MODEL 1
REMARK VINA RESULT:      -8.0      0.000      0.000
REMARK  2 active torsions:
REMARK  status: ('A' for Active; 'I' for Inactive)
REMARK    1  A    between atoms: C2_2  and  O1_3 
REMARK    2  A    between atoms: O1_3  and  C3_4 
ROOT
HETATM    1  C3  UNL     1      31.883  10.246  45.195  1.00  0.00     0.082 C 
HETATM    2  C4  UNL     1      32.708   9.220  45.107  1.00  0.00     0.053 C 
HETATM    3  C5  UNL     1      32.760   8.676  43.752  1.00  0.00     0.285 C 
HETATM    4  N1  UNL     1      33.471   7.681  43.349  1.00  0.00    -0.395 NA
HETATM    5  C6  UNL     1      34.353   6.908  44.147  1.00  0.00     0.118 C 
HETATM    6  C7  UNL     1      34.215   5.617  43.782  1.00  0.00     0.129 C 
HETATM    7  C8  UNL     1      33.235   5.448  42.716  1.00  0.00     0.119 C 
HETATM    8  N2  UNL     1      32.434   5.324  41.860  1.00  0.00    -0.190 NA
HETATM    9  N3  UNL     1      34.797   4.358  44.188  1.00  0.00    -0.346 N 
HETATM   10  C9  UNL     1      34.057   4.448  45.423  1.00  0.00     0.034 A 
HETATM   11  C10 UNL     1      32.767   3.969  45.513  1.00  0.00     0.032 A 
HETATM   12  C11 UNL     1      32.100   4.088  46.715  1.00  0.00     0.041 A 
HETATM   13  C12 UNL     1      32.702   4.674  47.809  1.00  0.00     0.091 A 
HETATM   14  C13 UNL     1      33.991   5.150  47.711  1.00  0.00     0.069 A 
HETATM   15 CL1  UNL     1      34.788   5.896  49.082  1.00  0.00    -0.081 Cl
HETATM   16  C14 UNL     1      34.667   5.036  46.514  1.00  0.00     0.056 A 
HETATM   17  O2  UNL     1      31.924   4.736  48.958  1.00  0.00    -0.345 OA
HETATM   18  C15 UNL     1      31.676   5.937  49.656  1.00  0.00     0.214 C 
HETATM   19  C16 UNL     1      31.004   6.945  48.792  1.00  0.00    -0.034 A 
HETATM   20  C17 UNL     1      29.828   6.576  48.176  1.00  0.00     0.009 A 
HETATM   21  C18 UNL     1      29.210   7.506  47.372  1.00  0.00     0.001 A 
HETATM   22  C19 UNL     1      29.773   8.754  47.211  1.00  0.00     0.008 A 
HETATM   23  C20 UNL     1      30.945   9.150  47.815  1.00  0.00    -0.044 A 
HETATM   24  C21 UNL     1      31.565   8.215  48.621  1.00  0.00     0.017 A 
HETATM   25  C22 UNL     1      31.596  10.472  47.681  1.00  0.00     0.130 C 
HETATM   26  C23 UNL     1      30.906  11.533  48.504  1.00  0.00     0.165 C 
HETATM   27  O3  UNL     1      30.878  11.778  49.708  1.00  0.00    -0.295 OA
HETATM   28  C24 UNL     1      30.144  12.377  47.529  1.00  0.00     0.349 C 
HETATM   29  N4  UNL     1      30.180  11.586  46.289  1.00  0.00     0.102 N 
HETATM   30  C25 UNL     1      31.523  11.087  46.330  1.00  0.00     0.292 C 
HETATM   31  H9  UNL     1      35.462   3.856  43.560  1.00  0.00     0.167 HD
HETATM   32  H22 UNL     1      29.924  12.132  45.465  1.00  0.00     0.317 HD
ENDROOT
BRANCH   1  33
HETATM   33  O1  UNL     1      31.242  10.602  44.016  1.00  0.00    -0.353 OA
BRANCH  33  34
HETATM   34  C2  UNL     1      31.340  11.910  43.491  1.00  0.00     0.171 C 
HETATM   35  C1  UNL     1      32.755  12.255  43.039  1.00  0.00     0.034 C 
ENDBRANCH  33  34
ENDBRANCH   1  33
TORSDOF 2
ENDMDL
MODEL 2
REMARK VINA RESULT:      -7.6      2.360      6.211
REMARK  2 active torsions:
REMARK  status: ('A' for Active; 'I' for Inactive)
REMARK    1  A    between atoms: C2_2  and  O1_3 
REMARK    2  A    between atoms: O1_3  and  C3_4 
ROOT
HETATM    1  C3  UNL     1      33.863   6.281  43.977  1.00  0.00     0.082 C 
HETATM    2  C4  UNL     1      32.861   7.137  43.904  1.00  0.00     0.053 C 
HETATM    3  C5  UNL     1      33.213   8.326  43.131  1.00  0.00     0.285 C 
HETATM    4  N1  UNL     1      32.453   9.334  42.881  1.00  0.00    -0.395 NA
HETATM    5  C6  UNL     1      31.110   9.492  43.309  1.00  0.00     0.118 C 
HETATM    6  C7  UNL     1      30.942  10.780  43.673  1.00  0.00     0.129 C 
HETATM    7  C8  UNL     1      32.162  11.562  43.509  1.00  0.00     0.119 C 
HETATM    8  N2  UNL     1      33.158  12.180  43.380  1.00  0.00    -0.190 NA
HETATM    9  N3  UNL     1      29.853  11.578  44.189  1.00  0.00    -0.346 N 
HETATM   10  C9  UNL     1      29.974  10.876  45.444  1.00  0.00     0.034 A 
HETATM   11  C10 UNL     1      30.852  11.308  46.416  1.00  0.00     0.032 A 
HETATM   12  C11 UNL     1      30.936  10.596  47.595  1.00  0.00     0.041 A 
HETATM   13  C12 UNL     1      30.162   9.473  47.806  1.00  0.00     0.091 A 
HETATM   14  C13 UNL     1      29.287   9.049  46.830  1.00  0.00     0.069 A 
HETATM   15 CL1  UNL     1      28.286   7.630  47.067  1.00  0.00    -0.081 Cl
HETATM   16  C14 UNL     1      29.195   9.753  45.648  1.00  0.00     0.056 A 
HETATM   17  O2  UNL     1      30.342   8.845  49.031  1.00  0.00    -0.345 OA
HETATM   18  C15 UNL     1      30.659   7.476  49.155  1.00  0.00     0.214 C 
HETATM   19  C16 UNL     1      31.934   7.143  48.465  1.00  0.00    -0.034 A 
HETATM   20  C17 UNL     1      33.057   7.860  48.818  1.00  0.00     0.009 A 
HETATM   21  C18 UNL     1      34.236   7.557  48.176  1.00  0.00     0.001 A 
HETATM   22  C19 UNL     1      34.258   6.564  47.218  1.00  0.00     0.008 A 
HETATM   23  C20 UNL     1      33.152   5.833  46.847  1.00  0.00    -0.044 A 
HETATM   24  C21 UNL     1      31.970   6.138  47.493  1.00  0.00     0.017 A 
HETATM   25  C22 UNL     1      33.114   4.758  45.830  1.00  0.00     0.130 C 
HETATM   26  C23 UNL     1      33.700   3.465  46.344  1.00  0.00     0.165 C 
HETATM   27  O3  UNL     1      33.291   2.607  47.123  1.00  0.00    -0.295 OA
HETATM   28  C24 UNL     1      35.043   3.336  45.693  1.00  0.00     0.349 C 
HETATM   29  N4  UNL     1      35.275   4.669  45.118  1.00  0.00     0.102 N 
HETATM   30  C25 UNL     1      33.964   4.983  44.631  1.00  0.00     0.292 C 
HETATM   31  H9  UNL     1      29.395  12.297  43.589  1.00  0.00     0.167 HD
HETATM   32  H22 UNL     1      36.029   4.677  44.429  1.00  0.00     0.317 HD
ENDROOT
BRANCH   1  33
HETATM   33  O1  UNL     1      35.026   6.663  43.322  1.00  0.00    -0.353 OA
BRANCH  33  34
HETATM   34  C2  UNL     1      35.428   6.048  42.115  1.00  0.00     0.171 C 
HETATM   35  C1  UNL     1      36.883   6.340  41.764  1.00  0.00     0.034 C 
ENDBRANCH  33  34
ENDBRANCH   1  33
TORSDOF 2
ENDMDL
MODEL 3
REMARK VINA RESULT:      -7.5      3.347      7.984
REMARK  2 active torsions:
REMARK  status: ('A' for Active; 'I' for Inactive)
REMARK    1  A    between atoms: C2_2  and  O1_3 
REMARK    2  A    between atoms: O1_3  and  C3_4 
ROOT
HETATM    1  C3  UNL     1      28.808   6.650  48.444  1.00  0.00     0.082 C 
HETATM    2  C4  UNL     1      28.282   7.840  48.665  1.00  0.00     0.053 C 
HETATM    3  C5  UNL     1      26.852   7.870  48.367  1.00  0.00     0.285 C 
HETATM    4  N1  UNL     1      26.063   8.880  48.484  1.00  0.00    -0.395 NA
HETATM    5  C6  UNL     1      26.426  10.176  48.931  1.00  0.00     0.118 C 
HETATM    6  C7  UNL     1      25.772  11.074  48.167  1.00  0.00     0.129 C 
HETATM    7  C8  UNL     1      24.929  10.434  47.163  1.00  0.00     0.119 C 
HETATM    8  N2  UNL     1      24.259   9.903  46.351  1.00  0.00    -0.190 NA
HETATM    9  N3  UNL     1      25.701  12.516  48.092  1.00  0.00    -0.346 N 
HETATM   10  C9  UNL     1      27.044  12.524  47.565  1.00  0.00     0.034 A 
HETATM   11  C10 UNL     1      27.274  12.390  46.211  1.00  0.00     0.032 A 
HETATM   12  C11 UNL     1      28.577  12.396  45.758  1.00  0.00     0.041 A 
HETATM   13  C12 UNL     1      29.635  12.531  46.634  1.00  0.00     0.091 A 
HETATM   14  C13 UNL     1      29.397  12.665  47.984  1.00  0.00     0.069 A 
HETATM   15 CL1  UNL     1      30.716  12.844  49.122  1.00  0.00    -0.081 Cl
HETATM   16  C14 UNL     1      28.098  12.661  48.447  1.00  0.00     0.056 A 
HETATM   17  O2  UNL     1      30.896  12.518  46.053  1.00  0.00    -0.345 OA
HETATM   18  C15 UNL     1      31.921  11.636  46.457  1.00  0.00     0.214 C 
HETATM   19  C16 UNL     1      31.514  10.214  46.303  1.00  0.00    -0.034 A 
HETATM   20  C17 UNL     1      31.083   9.804  45.060  1.00  0.00     0.009 A 
HETATM   21  C18 UNL     1      30.700   8.490  44.918  1.00  0.00     0.001 A 
HETATM   22  C19 UNL     1      30.757   7.640  46.003  1.00  0.00     0.008 A 
HETATM   23  C20 UNL     1      31.184   8.022  47.254  1.00  0.00    -0.044 A 
HETATM   24  C21 UNL     1      31.568   9.341  47.395  1.00  0.00     0.017 A 
HETATM   25  C22 UNL     1      31.269   7.158  48.453  1.00  0.00     0.130 C 
HETATM   26  C23 UNL     1      32.467   6.240  48.411  1.00  0.00     0.165 C 
HETATM   27  O3  UNL     1      33.671   6.421  48.578  1.00  0.00    -0.295 OA
HETATM   28  C24 UNL     1      31.930   4.878  48.092  1.00  0.00     0.349 C 
HETATM   29  N4  UNL     1      30.548   5.145  47.667  1.00  0.00     0.102 N 
HETATM   30  C25 UNL     1      30.173   6.164  48.603  1.00  0.00     0.292 C 
HETATM   31  H9  UNL     1      24.839  13.019  48.395  1.00  0.00     0.167 HD
HETATM   32  H22 UNL     1      29.968   4.304  47.656  1.00  0.00     0.317 HD
ENDROOT
BRANCH   1  33
HETATM   33  O1  UNL     1      27.926   5.682  47.984  1.00  0.00    -0.353 OA
BRANCH  33  34
HETATM   34  C2  UNL     1      27.567   4.573  48.783  1.00  0.00     0.171 C 
HETATM   35  C1  UNL     1      26.094   4.584  49.174  1.00  0.00     0.034 C 
ENDBRANCH  33  34
ENDBRANCH   1  33
TORSDOF 2
ENDMDL
MODEL 4
REMARK VINA RESULT:      -7.5     12.092     15.230
REMARK  2 active torsions:
REMARK  status: ('A' for Active; 'I' for Inactive)
REMARK    1  A    between atoms: C2_2  and  O1_3 
REMARK    2  A    between atoms: O1_3  and  C3_4 
ROOT
HETATM    1  C3  UNL     1      19.767   0.221  51.957  1.00  0.00     0.082 C 
HETATM    2  C4  UNL     1      20.761   0.827  51.337  1.00  0.00     0.053 C 
HETATM    3  C5  UNL     1      21.837   1.193  52.255  1.00  0.00     0.285 C 
HETATM    4  N1  UNL     1      22.937   1.789  51.954  1.00  0.00    -0.395 NA
HETATM    5  C6  UNL     1      23.328   2.215  50.658  1.00  0.00     0.118 C 
HETATM    6  C7  UNL     1      23.920   3.420  50.781  1.00  0.00     0.129 C 
HETATM    7  C8  UNL     1      23.964   3.874  52.166  1.00  0.00     0.119 C 
HETATM    8  N2  UNL     1      23.985   4.233  53.289  1.00  0.00    -0.190 NA
HETATM    9  N3  UNL     1      24.520   4.376  49.879  1.00  0.00    -0.346 N 
HETATM   10  C9  UNL     1      23.202   4.687  49.379  1.00  0.00     0.034 A 
HETATM   11  C10 UNL     1      22.420   5.642  49.994  1.00  0.00     0.032 A 
HETATM   12  C11 UNL     1      21.163   5.896  49.483  1.00  0.00     0.041 A 
HETATM   13  C12 UNL     1      20.690   5.212  48.382  1.00  0.00     0.091 A 
HETATM   14  C13 UNL     1      21.479   4.260  47.774  1.00  0.00     0.069 A 
HETATM   15 CL1  UNL     1      20.911   3.376  46.372  1.00  0.00    -0.081 Cl
HETATM   16  C14 UNL     1      22.737   3.999  48.276  1.00  0.00     0.056 A 
HETATM   17  O2  UNL     1      19.411   5.557  47.968  1.00  0.00    -0.345 OA
HETATM   18  C15 UNL     1      18.375   4.615  47.802  1.00  0.00     0.214 C 
HETATM   19  C16 UNL     1      18.087   3.886  49.066  1.00  0.00    -0.034 A 
HETATM   20  C17 UNL     1      17.786   4.637  50.182  1.00  0.00     0.009 A 
HETATM   21  C18 UNL     1      17.526   3.964  51.353  1.00  0.00     0.001 A 
HETATM   22  C19 UNL     1      17.573   2.586  51.376  1.00  0.00     0.008 A 
HETATM   23  C20 UNL     1      17.870   1.811  50.278  1.00  0.00    -0.044 A 
HETATM   24  C21 UNL     1      18.131   2.488  49.103  1.00  0.00     0.017 A 
HETATM   25  C22 UNL     1      17.935   0.333  50.240  1.00  0.00     0.130 C 
HETATM   26  C23 UNL     1      16.564  -0.298  50.215  1.00  0.00     0.165 C 
HETATM   27  O3  UNL     1      15.706  -0.412  49.343  1.00  0.00    -0.295 OA
HETATM   28  C24 UNL     1      16.342  -0.850  51.591  1.00  0.00     0.349 C 
HETATM   29  N4  UNL     1      17.422  -0.243  52.383  1.00  0.00     0.102 N 
HETATM   30  C25 UNL     1      18.509  -0.312  51.451  1.00  0.00     0.292 C 
HETATM   31  H9  UNL     1      25.553   4.520  49.872  1.00  0.00     0.167 HD
HETATM   32  H22 UNL     1      17.564  -0.709  53.280  1.00  0.00     0.317 HD
ENDROOT
BRANCH   1  33
HETATM   33  O1  UNL     1      19.929   0.051  53.325  1.00  0.00    -0.353 OA
BRANCH  33  34
HETATM   34  C2  UNL     1      20.186  -1.222  53.884  1.00  0.00     0.171 C 
HETATM   35  C1  UNL     1      21.512  -1.276  54.634  1.00  0.00     0.034 C 
ENDBRANCH  33  34
ENDBRANCH   1  33
TORSDOF 2
ENDMDL
MODEL 5
REMARK VINA RESULT:      -7.4     10.945     14.157
REMARK  2 active torsions:
REMARK  status: ('A' for Active; 'I' for Inactive)
REMARK    1  A    between atoms: C2_2  and  O1_3 
REMARK    2  A    between atoms: O1_3  and  C3_4 
ROOT
HETATM    1  C3  UNL     1      23.026   2.306  51.714  1.00  0.00     0.082 C 
HETATM    2  C4  UNL     1      21.756   2.667  51.705  1.00  0.00     0.053 C 
HETATM    3  C5  UNL     1      20.877   1.581  52.133  1.00  0.00     0.285 C 
HETATM    4  N1  UNL     1      19.594   1.624  52.232  1.00  0.00    -0.395 NA
HETATM    5  C6  UNL     1      18.771   2.742  51.943  1.00  0.00     0.118 C 
HETATM    6  C7  UNL     1      17.668   2.291  51.313  1.00  0.00     0.129 C 
HETATM    7  C8  UNL     1      17.684   0.843  51.143  1.00  0.00     0.119 C 
HETATM    8  N2  UNL     1      17.714  -0.327  51.004  1.00  0.00    -0.190 NA
HETATM    9  N3  UNL     1      16.474   2.888  50.759  1.00  0.00    -0.346 N 
HETATM   10  C9  UNL     1      17.278   3.441  49.697  1.00  0.00     0.034 A 
HETATM   11  C10 UNL     1      17.537   2.715  48.553  1.00  0.00     0.032 A 
HETATM   12  C11 UNL     1      18.319   3.286  47.571  1.00  0.00     0.041 A 
HETATM   13  C12 UNL     1      18.837   4.556  47.721  1.00  0.00     0.091 A 
HETATM   14  C13 UNL     1      18.574   5.274  48.866  1.00  0.00     0.069 A 
HETATM   15 CL1  UNL     1      19.212   6.891  49.088  1.00  0.00    -0.081 Cl
HETATM   16  C14 UNL     1      17.792   4.713  49.855  1.00  0.00     0.056 A 
HETATM   17  O2  UNL     1      19.611   5.015  46.663  1.00  0.00    -0.345 OA
HETATM   18  C15 UNL     1      20.927   5.496  46.823  1.00  0.00     0.214 C 
HETATM   19  C16 UNL     1      21.821   4.465  47.413  1.00  0.00    -0.034 A 
HETATM   20  C17 UNL     1      21.903   3.248  46.772  1.00  0.00     0.009 A 
HETATM   21  C18 UNL     1      22.725   2.291  47.320  1.00  0.00     0.001 A 
HETATM   22  C19 UNL     1      23.429   2.572  48.473  1.00  0.00     0.008 A 
HETATM   23  C20 UNL     1      23.367   3.778  49.133  1.00  0.00    -0.044 A 
HETATM   24  C21 UNL     1      22.541   4.738  48.581  1.00  0.00     0.017 A 
HETATM   25  C22 UNL     1      24.097   4.138  50.369  1.00  0.00     0.130 C 
HETATM   26  C23 UNL     1      25.551   4.449  50.103  1.00  0.00     0.165 C 
HETATM   27  O3  UNL     1      26.127   5.410  49.600  1.00  0.00    -0.295 OA
HETATM   28  C24 UNL     1      26.321   3.263  50.600  1.00  0.00     0.349 C 
HETATM   29  N4  UNL     1      25.281   2.246  50.818  1.00  0.00     0.102 N 
HETATM   30  C25 UNL     1      24.232   3.049  51.372  1.00  0.00     0.292 C 
HETATM   31  H9  UNL     1      15.551   2.753  51.226  1.00  0.00     0.167 HD
HETATM   32  H22 UNL     1      25.606   1.465  51.391  1.00  0.00     0.317 HD
ENDROOT
BRANCH   1  33
HETATM   33  O1  UNL     1      23.275   1.001  52.118  1.00  0.00    -0.353 OA
BRANCH  33  34
HETATM   34  C2  UNL     1      23.894   0.719  53.356  1.00  0.00     0.171 C 
HETATM   35  C1  UNL     1      24.860  -0.457  53.274  1.00  0.00     0.034 C 
ENDBRANCH  33  34
ENDBRANCH   1  33
TORSDOF 2
ENDMDL
MODEL 6
REMARK VINA RESULT:      -7.4     12.060     15.443
REMARK  2 active torsions:
REMARK  status: ('A' for Active; 'I' for Inactive)
REMARK    1  A    between atoms: C2_2  and  O1_3 
REMARK    2  A    between atoms: O1_3  and  C3_4 
ROOT
HETATM    1  C3  UNL     1      19.623   0.998  52.119  1.00  0.00     0.082 C 
HETATM    2  C4  UNL     1      18.992   2.061  51.658  1.00  0.00     0.053 C 
HETATM    3  C5  UNL     1      17.641   1.741  51.203  1.00  0.00     0.285 C 
HETATM    4  N1  UNL     1      16.781   2.560  50.707  1.00  0.00    -0.395 NA
HETATM    5  C6  UNL     1      16.975   3.950  50.503  1.00  0.00     0.118 C 
HETATM    6  C7  UNL     1      16.415   4.275  49.320  1.00  0.00     0.129 C 
HETATM    7  C8  UNL     1      15.811   3.123  48.661  1.00  0.00     0.119 C 
HETATM    8  N2  UNL     1      15.334   2.181  48.136  1.00  0.00    -0.190 NA
HETATM    9  N3  UNL     1      16.268   5.483  48.539  1.00  0.00    -0.346 N 
HETATM   10  C9  UNL     1      17.681   5.433  48.252  1.00  0.00     0.034 A 
HETATM   11  C10 UNL     1      18.161   4.709  47.181  1.00  0.00     0.032 A 
HETATM   12  C11 UNL     1      19.522   4.686  46.954  1.00  0.00     0.041 A 
HETATM   13  C12 UNL     1      20.392   5.371  47.778  1.00  0.00     0.091 A 
HETATM   14  C13 UNL     1      19.904   6.092  48.845  1.00  0.00     0.069 A 
HETATM   15 CL1  UNL     1      20.981   6.976  49.908  1.00  0.00    -0.081 Cl
HETATM   16  C14 UNL     1      18.546   6.122  49.080  1.00  0.00     0.056 A 
HETATM   17  O2  UNL     1      21.736   5.266  47.445  1.00  0.00    -0.345 OA
HETATM   18  C15 UNL     1      22.724   4.838  48.357  1.00  0.00     0.214 C 
HETATM   19  C16 UNL     1      22.442   3.471  48.870  1.00  0.00    -0.034 A 
HETATM   20  C17 UNL     1      22.271   2.464  47.945  1.00  0.00     0.009 A 
HETATM   21  C18 UNL     1      22.004   1.200  48.419  1.00  0.00     0.001 A 
HETATM   22  C19 UNL     1      21.917   0.982  49.778  1.00  0.00     0.008 A 
HETATM   23  C20 UNL     1      22.085   1.969  50.724  1.00  0.00    -0.044 A 
HETATM   24  C21 UNL     1      22.353   3.236  50.247  1.00  0.00     0.017 A 
HETATM   25  C22 UNL     1      22.005   1.797  52.192  1.00  0.00     0.130 C 
HETATM   26  C23 UNL     1      23.246   1.152  52.759  1.00  0.00     0.165 C 
HETATM   27  O3  UNL     1      24.386   1.562  52.968  1.00  0.00    -0.295 OA
HETATM   28  C24 UNL     1      22.863  -0.259  53.084  1.00  0.00     0.349 C 
HETATM   29  N4  UNL     1      21.567  -0.427  52.410  1.00  0.00     0.102 N 
HETATM   30  C25 UNL     1      20.964   0.847  52.668  1.00  0.00     0.292 C 
HETATM   31  H9  UNL     1      15.335   5.939  48.443  1.00  0.00     0.167 HD
HETATM   32  H22 UNL     1      21.054  -1.246  52.739  1.00  0.00     0.317 HD
ENDROOT
BRANCH   1  33
HETATM   33  O1  UNL     1      18.903  -0.188  52.084  1.00  0.00    -0.353 OA
BRANCH  33  34
HETATM   34  C2  UNL     1      18.586  -0.892  53.268  1.00  0.00     0.171 C 
HETATM   35  C1  UNL     1      17.417  -1.854  53.083  1.00  0.00     0.034 C 
ENDBRANCH  33  34
ENDBRANCH   1  33
TORSDOF 2
ENDMDL
MODEL 7
REMARK VINA RESULT:      -7.3      3.235      5.890
REMARK  2 active torsions:
REMARK  status: ('A' for Active; 'I' for Inactive)
REMARK    1  A    between atoms: C2_2  and  O1_3 
REMARK    2  A    between atoms: O1_3  and  C3_4 
ROOT
HETATM    1  C3  UNL     1      28.014   7.567  47.552  1.00  0.00     0.082 C 
HETATM    2  C4  UNL     1      29.172   7.357  46.955  1.00  0.00     0.053 C 
HETATM    3  C5  UNL     1      29.993   6.389  47.677  1.00  0.00     0.285 C 
HETATM    4  N1  UNL     1      31.166   5.976  47.347  1.00  0.00    -0.395 NA
HETATM    5  C6  UNL     1      31.903   6.382  46.204  1.00  0.00     0.118 C 
HETATM    6  C7  UNL     1      33.192   6.521  46.573  1.00  0.00     0.129 C 
HETATM    7  C8  UNL     1      33.398   6.215  47.983  1.00  0.00     0.119 C 
HETATM    8  N2  UNL     1      33.549   5.974  49.128  1.00  0.00    -0.190 NA
HETATM    9  N3  UNL     1      34.422   6.903  45.917  1.00  0.00    -0.346 N 
HETATM   10  C9  UNL     1      33.932   8.258  45.851  1.00  0.00     0.034 A 
HETATM   11  C10 UNL     1      34.130   9.134  46.898  1.00  0.00     0.032 A 
HETATM   12  C11 UNL     1      33.633  10.416  46.790  1.00  0.00     0.041 A 
HETATM   13  C12 UNL     1      32.951  10.824  45.662  1.00  0.00     0.091 A 
HETATM   14  C13 UNL     1      32.758   9.943  44.621  1.00  0.00     0.069 A 
HETATM   15 CL1  UNL     1      31.900  10.427  43.172  1.00  0.00    -0.081 Cl
HETATM   16  C14 UNL     1      33.251   8.658  44.719  1.00  0.00     0.056 A 
HETATM   17  O2  UNL     1      32.500  12.136  45.678  1.00  0.00    -0.345 OA
HETATM   18  C15 UNL     1      31.153  12.491  45.453  1.00  0.00     0.214 C 
HETATM   19  C16 UNL     1      30.245  11.858  46.446  1.00  0.00    -0.034 A 
HETATM   20  C17 UNL     1      30.509  12.072  47.781  1.00  0.00     0.009 A 
HETATM   21  C18 UNL     1      29.673  11.481  48.700  1.00  0.00     0.001 A 
HETATM   22  C19 UNL     1      28.617  10.708  48.267  1.00  0.00     0.008 A 
HETATM   23  C20 UNL     1      28.329  10.477  46.941  1.00  0.00    -0.044 A 
HETATM   24  C21 UNL     1      29.169  11.071  46.020  1.00  0.00     0.017 A 
HETATM   25  C22 UNL     1      27.212   9.660  46.416  1.00  0.00     0.130 C 
HETATM   26  C23 UNL     1      25.889  10.383  46.496  1.00  0.00     0.165 C 
HETATM   27  O3  UNL     1      25.392  11.301  45.848  1.00  0.00    -0.295 OA
HETATM   28  C24 UNL     1      25.145   9.752  47.634  1.00  0.00     0.349 C 
HETATM   29  N4  UNL     1      26.175   8.955  48.317  1.00  0.00     0.102 N 
HETATM   30  C25 UNL     1      26.898   8.433  47.195  1.00  0.00     0.292 C 
HETATM   31  H9  UNL     1      35.162   6.192  45.727  1.00  0.00     0.167 HD
HETATM   32  H22 UNL     1      25.780   8.268  48.961  1.00  0.00     0.317 HD
ENDROOT
BRANCH   1  33
HETATM   33  O1  UNL     1      27.804   6.846  48.720  1.00  0.00    -0.353 OA
BRANCH  33  34
HETATM   34  C2  UNL     1      26.749   5.912  48.829  1.00  0.00     0.171 C 
HETATM   35  C1  UNL     1      27.247   4.473  48.909  1.00  0.00     0.034 C 
ENDBRANCH  33  34
ENDBRANCH   1  33
TORSDOF 2
ENDMDL
MODEL 8
REMARK VINA RESULT:      -7.1     24.526     26.629
REMARK  2 active torsions:
REMARK  status: ('A' for Active; 'I' for Inactive)
REMARK    1  A    between atoms: C2_2  and  O1_3 
REMARK    2  A    between atoms: O1_3  and  C3_4 
ROOT
HETATM    1  C3  UNL     1      38.180   1.757  71.540  1.00  0.00     0.082 C 
HETATM    2  C4  UNL     1      39.499   1.809  71.520  1.00  0.00     0.053 C 
HETATM    3  C5  UNL     1      39.988   3.164  71.278  1.00  0.00     0.285 C 
HETATM    4  N1  UNL     1      41.218   3.537  71.206  1.00  0.00    -0.395 NA
HETATM    5  C6  UNL     1      42.354   2.700  71.349  1.00  0.00     0.118 C 
HETATM    6  C7  UNL     1      43.268   3.084  70.436  1.00  0.00     0.129 C 
HETATM    7  C8  UNL     1      42.801   4.204  69.627  1.00  0.00     0.119 C 
HETATM    8  N2  UNL     1      42.408   5.104  68.974  1.00  0.00    -0.190 NA
HETATM    9  N3  UNL     1      44.596   2.660  70.057  1.00  0.00    -0.346 N 
HETATM   10  C9  UNL     1      44.020   1.465  69.488  1.00  0.00     0.034 A 
HETATM   11  C10 UNL     1      43.562   1.450  68.188  1.00  0.00     0.032 A 
HETATM   12  C11 UNL     1      43.010   0.286  67.694  1.00  0.00     0.041 A 
HETATM   13  C12 UNL     1      42.914  -0.845  68.478  1.00  0.00     0.091 A 
HETATM   14  C13 UNL     1      43.375  -0.822  69.776  1.00  0.00     0.069 A 
HETATM   15 CL1  UNL     1      43.273  -2.241  70.799  1.00  0.00    -0.081 Cl
HETATM   16  C14 UNL     1      43.928   0.337  70.280  1.00  0.00     0.056 A 
HETATM   17  O2  UNL     1      42.338  -1.950  67.866  1.00  0.00    -0.345 OA
HETATM   18  C15 UNL     1      41.237  -2.644  68.410  1.00  0.00     0.214 C 
HETATM   19  C16 UNL     1      40.057  -1.756  68.580  1.00  0.00    -0.034 A 
HETATM   20  C17 UNL     1      39.606  -1.072  67.472  1.00  0.00     0.009 A 
HETATM   21  C18 UNL     1      38.518  -0.245  67.631  1.00  0.00     0.001 A 
HETATM   22  C19 UNL     1      37.923  -0.126  68.870  1.00  0.00     0.008 A 
HETATM   23  C20 UNL     1      38.351  -0.797  69.992  1.00  0.00    -0.044 A 
HETATM   24  C21 UNL     1      39.443  -1.627  69.831  1.00  0.00     0.017 A 
HETATM   25  C22 UNL     1      37.755  -0.712  71.344  1.00  0.00     0.130 C 
HETATM   26  C23 UNL     1      36.475  -1.507  71.454  1.00  0.00     0.165 C 
HETATM   27  O3  UNL     1      36.236  -2.709  71.531  1.00  0.00    -0.295 OA
HETATM   28  C24 UNL     1      35.366  -0.499  71.456  1.00  0.00     0.349 C 
HETATM   29  N4  UNL     1      36.031   0.744  71.037  1.00  0.00     0.102 N 
HETATM   30  C25 UNL     1      37.272   0.635  71.746  1.00  0.00     0.292 C 
HETATM   31  H9  UNL     1      45.424   3.254  70.277  1.00  0.00     0.167 HD
HETATM   32  H22 UNL     1      35.471   1.576  71.229  1.00  0.00     0.317 HD
ENDROOT
BRANCH   1  33
HETATM   33  O1  UNL     1      37.529   2.965  71.332  1.00  0.00    -0.353 OA
BRANCH  33  34
HETATM   34  C2  UNL     1      36.981   3.700  72.407  1.00  0.00     0.171 C 
HETATM   35  C1  UNL     1      37.032   5.206  72.173  1.00  0.00     0.034 C 
ENDBRANCH  33  34
ENDBRANCH   1  33
TORSDOF 2
ENDMDL
MODEL 9
REMARK VINA RESULT:      -7.1      2.496      4.427
REMARK  2 active torsions:
REMARK  status: ('A' for Active; 'I' for Inactive)
REMARK    1  A    between atoms: C2_2  and  O1_3 
REMARK    2  A    between atoms: O1_3  and  C3_4 
ROOT
HETATM    1  C3  UNL     1      33.599   9.279  44.015  1.00  0.00     0.082 C 
HETATM    2  C4  UNL     1      33.528   8.638  45.167  1.00  0.00     0.053 C 
HETATM    3  C5  UNL     1      33.881   7.227  45.029  1.00  0.00     0.285 C 
HETATM    4  N1  UNL     1      33.910   6.346  45.967  1.00  0.00    -0.395 NA
HETATM    5  C6  UNL     1      33.603   6.571  47.333  1.00  0.00     0.118 C 
HETATM    6  C7  UNL     1      32.902   5.509  47.780  1.00  0.00     0.129 C 
HETATM    7  C8  UNL     1      32.698   4.508  46.740  1.00  0.00     0.119 C 
HETATM    8  N2  UNL     1      32.533   3.710  45.888  1.00  0.00    -0.190 NA
HETATM    9  N3  UNL     1      32.299   5.118  49.034  1.00  0.00    -0.346 N 
HETATM   10  C9  UNL     1      31.296   6.137  48.834  1.00  0.00     0.034 A 
HETATM   11  C10 UNL     1      30.151   5.871  48.113  1.00  0.00     0.032 A 
HETATM   12  C11 UNL     1      29.227   6.881  47.942  1.00  0.00     0.041 A 
HETATM   13  C12 UNL     1      29.436   8.136  48.479  1.00  0.00     0.091 A 
HETATM   14  C13 UNL     1      30.583   8.392  49.198  1.00  0.00     0.069 A 
HETATM   15 CL1  UNL     1      30.878   9.972  49.896  1.00  0.00    -0.081 Cl
HETATM   16  C14 UNL     1      31.513   7.389  49.374  1.00  0.00     0.056 A 
HETATM   17  O2  UNL     1      28.434   9.065  48.234  1.00  0.00    -0.345 OA
HETATM   18  C15 UNL     1      28.678  10.325  47.649  1.00  0.00     0.214 C 
HETATM   19  C16 UNL     1      29.291  10.195  46.300  1.00  0.00    -0.034 A 
HETATM   20  C17 UNL     1      28.626   9.429  45.367  1.00  0.00     0.009 A 
HETATM   21  C18 UNL     1      29.196   9.303  44.121  1.00  0.00     0.001 A 
HETATM   22  C19 UNL     1      30.392   9.933  43.848  1.00  0.00     0.008 A 
HETATM   23  C20 UNL     1      31.077  10.704  44.760  1.00  0.00    -0.044 A 
HETATM   24  C21 UNL     1      30.504  10.830  46.010  1.00  0.00     0.017 A 
HETATM   25  C22 UNL     1      32.360  11.405  44.526  1.00  0.00     0.130 C 
HETATM   26  C23 UNL     1      32.182  12.664  43.713  1.00  0.00     0.165 C 
HETATM   27  O3  UNL     1      31.735  13.778  43.975  1.00  0.00    -0.295 OA
HETATM   28  C24 UNL     1      32.692  12.343  42.341  1.00  0.00     0.349 C 
HETATM   29  N4  UNL     1      32.827  10.878  42.360  1.00  0.00     0.102 N 
HETATM   30  C25 UNL     1      33.342  10.674  43.682  1.00  0.00     0.292 C 
HETATM   31  H9  UNL     1      32.710   4.346  49.600  1.00  0.00     0.167 HD
HETATM   32  H22 UNL     1      33.398  10.524  41.591  1.00  0.00     0.317 HD
ENDROOT
BRANCH   1  33
HETATM   33  O1  UNL     1      33.983   8.511  42.924  1.00  0.00    -0.353 OA
BRANCH  33  34
HETATM   34  C2  UNL     1      35.239   8.692  42.302  1.00  0.00     0.171 C 
HETATM   35  C1  UNL     1      35.927   7.372  41.974  1.00  0.00     0.034 C 
ENDBRANCH  33  34
ENDBRANCH   1  33
TORSDOF 2
ENDMDL
