MODEL 1
REMARK VINA RESULT:      -8.1      0.000      0.000
REMARK  6 active torsions:
REMARK  status: ('A' for Active; 'I' for Inactive)
REMARK    1  A    between atoms: O1_2  and  C2_3 
REMARK    2  A    between atoms: C6_9  and  N3_10 
REMARK    3  A    between atoms: C14_19  and  C15_20 
REMARK    4  A    between atoms: C15_20  and  N4_21 
REMARK    5  A    between atoms: N4_21  and  C17_23 
REMARK    6  A    between atoms: C17_23  and  C19_25 
REMARK       I    between atoms: C19_25  and  N5_26 
ROOT
HETATM    1  C2  UNL     1      21.009  -0.029  53.064  1.00  0.00     0.078 A 
HETATM    2  C3  UNL     1      21.340  -0.705  54.207  1.00  0.00     0.070 A 
HETATM    3  C4  UNL     1      22.664  -0.819  54.551  1.00  0.00     0.074 A 
HETATM    4  N1  UNL     1      23.012  -1.479  55.668  1.00  0.00    -0.241 NA
HETATM    5  C5  UNL     1      24.297  -1.600  56.017  1.00  0.00     0.236 A 
HETATM    6  N2  UNL     1      25.229  -1.046  55.221  1.00  0.00    -0.224 NA
HETATM    7  C6  UNL     1      24.910  -0.382  54.100  1.00  0.00     0.142 A 
HETATM    8  C12 UNL     1      23.608  -0.257  53.741  1.00  0.00     0.039 A 
HETATM    9  C13 UNL     1      23.233   0.408  52.610  1.00  0.00     0.029 A 
HETATM   10  C14 UNL     1      21.901   0.566  52.197  1.00  0.00     0.004 A 
ENDROOT
BRANCH  10  11
HETATM   11  C15 UNL     1      21.586   1.307  50.976  1.00  0.00     0.314 C 
BRANCH  11  12
HETATM   12  N4  UNL     1      21.177   2.656  51.144  1.00  0.00     0.101 N 
HETATM   13  C16 UNL     1      19.882   3.017  50.685  1.00  0.00     0.311 C 
BRANCH  12  14
HETATM   14  C17 UNL     1      22.216   3.574  50.746  1.00  0.00     0.309 C 
HETATM   15  C18 UNL     1      23.177   2.897  49.799  1.00  0.00     0.053 C 
BRANCH  14  16
HETATM   16  C19 UNL     1      22.946   4.139  51.918  1.00  0.00     0.248 C 
HETATM   17  N5  UNL     1      22.504   5.468  52.181  1.00  0.00    -0.368 N 
HETATM   18  H23 UNL     1      21.975   6.336  52.423  1.00  0.00     0.159 HD
HETATM   19  H24 UNL     1      22.642   6.485  52.244  1.00  0.00     0.159 HD
HETATM   20  O2  UNL     1      23.832   3.909  52.810  1.00  0.00    -0.271 OA
ENDBRANCH  14  16
ENDBRANCH  12  14
ENDBRANCH  11  12
ENDBRANCH  10  11
BRANCH   1  21
HETATM   21  O1  UNL     1      19.667   0.055  52.766  1.00  0.00    -0.355 OA
HETATM   22  C1  UNL     1      18.714  -0.913  53.115  1.00  0.00     0.210 C 
ENDBRANCH   1  21
BRANCH   7  23
HETATM   23  N3  UNL     1      25.972   0.169  53.330  1.00  0.00    -0.331 N 
HETATM   24  C7  UNL     1      26.555   0.020  51.997  1.00  0.00     0.154 C 
HETATM   25  C8  UNL     1      26.506   1.377  51.339  1.00  0.00    -0.011 C 
HETATM   26  C9  UNL     1      27.120   2.334  52.053  1.00  0.00    -0.024 C 
HETATM   27  C10 UNL     1      27.734   1.901  53.346  1.00  0.00     0.086 C 
HETATM   28  C11 UNL     1      26.666   1.180  54.132  1.00  0.00     0.276 C 
HETATM   29  F1  UNL     1      25.704   2.120  54.474  1.00  0.00    -0.226 F 
ENDBRANCH   7  23
TORSDOF 6
ENDMDL
MODEL 2
REMARK VINA RESULT:      -7.8      2.084      2.692
REMARK  6 active torsions:
REMARK  status: ('A' for Active; 'I' for Inactive)
REMARK    1  A    between atoms: O1_2  and  C2_3 
REMARK    2  A    between atoms: C6_9  and  N3_10 
REMARK    3  A    between atoms: C14_19  and  C15_20 
REMARK    4  A    between atoms: C15_20  and  N4_21 
REMARK    5  A    between atoms: N4_21  and  C17_23 
REMARK    6  A    between atoms: C17_23  and  C19_25 
REMARK       I    between atoms: C19_25  and  N5_26 
ROOT
HETATM    1  C2  UNL     1      21.771   1.834  52.060  1.00  0.00     0.078 A 
HETATM    2  C3  UNL     1      21.313   0.980  53.026  1.00  0.00     0.070 A 
HETATM    3  C4  UNL     1      22.215   0.190  53.695  1.00  0.00     0.074 A 
HETATM    4  N1  UNL     1      21.788  -0.656  54.647  1.00  0.00    -0.241 NA
HETATM    5  C5  UNL     1      22.652  -1.434  55.307  1.00  0.00     0.236 A 
HETATM    6  N2  UNL     1      23.957  -1.346  54.994  1.00  0.00    -0.224 NA
HETATM    7  C6  UNL     1      24.411  -0.510  54.048  1.00  0.00     0.142 A 
HETATM    8  C12 UNL     1      23.539   0.279  53.374  1.00  0.00     0.039 A 
HETATM    9  C13 UNL     1      23.951   1.145  52.403  1.00  0.00     0.029 A 
HETATM   10  C14 UNL     1      23.089   1.983  51.680  1.00  0.00     0.004 A 
ENDROOT
BRANCH  10  11
HETATM   11  C15 UNL     1      23.618   2.893  50.665  1.00  0.00     0.314 C 
BRANCH  11  12
HETATM   12  N4  UNL     1      24.303   4.041  51.140  1.00  0.00     0.101 N 
HETATM   13  C16 UNL     1      23.581   4.953  51.956  1.00  0.00     0.311 C 
BRANCH  12  14
HETATM   14  C17 UNL     1      25.065   4.671  50.090  1.00  0.00     0.309 C 
HETATM   15  C18 UNL     1      24.224   4.808  48.844  1.00  0.00     0.053 C 
BRANCH  14  16
HETATM   16  C19 UNL     1      26.328   3.934  49.793  1.00  0.00     0.248 C 
HETATM   17  N5  UNL     1      27.239   4.778  49.095  1.00  0.00    -0.368 N 
HETATM   18  H23 UNL     1      27.907   5.520  48.785  1.00  0.00     0.159 HD
HETATM   19  H24 UNL     1      27.796   5.047  48.274  1.00  0.00     0.159 HD
HETATM   20  O2  UNL     1      26.943   2.820  49.914  1.00  0.00    -0.271 OA
ENDBRANCH  14  16
ENDBRANCH  12  14
ENDBRANCH  11  12
ENDBRANCH  10  11
BRANCH   1  21
HETATM   21  O1  UNL     1      20.825   2.603  51.420  1.00  0.00    -0.355 OA
HETATM   22  C1  UNL     1      20.102   3.641  52.026  1.00  0.00     0.210 C 
ENDBRANCH   1  21
BRANCH   7  23
HETATM   23  N3  UNL     1      25.811  -0.493  53.794  1.00  0.00    -0.331 N 
HETATM   24  C7  UNL     1      26.746  -0.927  52.756  1.00  0.00     0.154 C 
HETATM   25  C8  UNL     1      27.508   0.296  52.309  1.00  0.00    -0.011 C 
HETATM   26  C9  UNL     1      28.132   0.929  53.315  1.00  0.00    -0.024 C 
HETATM   27  C10 UNL     1      27.970   0.326  54.674  1.00  0.00     0.086 C 
HETATM   28  C11 UNL     1      26.490   0.158  54.918  1.00  0.00     0.276 C 
HETATM   29  F1  UNL     1      25.942   1.430  55.008  1.00  0.00    -0.226 F 
ENDBRANCH   7  23
TORSDOF 6
ENDMDL
MODEL 3
REMARK VINA RESULT:      -7.6      2.756      6.541
REMARK  6 active torsions:
REMARK  status: ('A' for Active; 'I' for Inactive)
REMARK    1  A    between atoms: O1_2  and  C2_3 
REMARK    2  A    between atoms: C6_9  and  N3_10 
REMARK    3  A    between atoms: C14_19  and  C15_20 
REMARK    4  A    between atoms: C15_20  and  N4_21 
REMARK    5  A    between atoms: N4_21  and  C17_23 
REMARK    6  A    between atoms: C17_23  and  C19_25 
REMARK       I    between atoms: C19_25  and  N5_26 
ROOT
HETATM    1  C2  UNL     1      25.420   2.911  50.635  1.00  0.00     0.078 A 
HETATM    2  C3  UNL     1      24.422   3.086  49.715  1.00  0.00     0.070 A 
HETATM    3  C4  UNL     1      23.236   2.415  49.887  1.00  0.00     0.074 A 
HETATM    4  N1  UNL     1      22.243   2.571  48.996  1.00  0.00    -0.241 NA
HETATM    5  C5  UNL     1      21.082   1.924  49.148  1.00  0.00     0.236 A 
HETATM    6  N2  UNL     1      20.936   1.116  50.213  1.00  0.00    -0.224 NA
HETATM    7  C6  UNL     1      21.911   0.942  51.118  1.00  0.00     0.142 A 
HETATM    8  C12 UNL     1      23.091   1.595  50.968  1.00  0.00     0.039 A 
HETATM    9  C13 UNL     1      24.113   1.450  51.861  1.00  0.00     0.029 A 
HETATM   10  C14 UNL     1      25.350   2.104  51.751  1.00  0.00     0.004 A 
ENDROOT
BRANCH  10  11
HETATM   11  C15 UNL     1      26.387   1.902  52.762  1.00  0.00     0.314 C 
BRANCH  11  12
HETATM   12  N4  UNL     1      27.195   0.745  52.617  1.00  0.00     0.101 N 
HETATM   13  C16 UNL     1      26.674  -0.336  51.857  1.00  0.00     0.311 C 
BRANCH  12  14
HETATM   14  C17 UNL     1      27.778   0.350  53.876  1.00  0.00     0.309 C 
HETATM   15  C18 UNL     1      26.737   0.388  54.968  1.00  0.00     0.053 C 
BRANCH  14  16
HETATM   16  C19 UNL     1      28.953   1.192  54.241  1.00  0.00     0.248 C 
HETATM   17  N5  UNL     1      30.109   0.763  53.528  1.00  0.00    -0.368 N 
HETATM   18  H23 UNL     1      30.835   0.521  52.816  1.00  0.00     0.159 HD
HETATM   19  H24 UNL     1      31.053   0.361  53.468  1.00  0.00     0.159 HD
HETATM   20  O2  UNL     1      29.357   2.172  54.955  1.00  0.00    -0.271 OA
ENDBRANCH  14  16
ENDBRANCH  12  14
ENDBRANCH  11  12
ENDBRANCH  10  11
BRANCH   1  21
HETATM   21  O1  UNL     1      26.588   3.606  50.414  1.00  0.00    -0.355 OA
HETATM   22  C1  UNL     1      26.868   4.340  49.252  1.00  0.00     0.210 C 
ENDBRANCH   1  21
BRANCH   7  23
HETATM   23  N3  UNL     1      21.655   0.067  52.210  1.00  0.00    -0.331 N 
HETATM   24  C7  UNL     1      22.243  -1.120  52.830  1.00  0.00     0.154 C 
HETATM   25  C8  UNL     1      22.520  -0.773  54.272  1.00  0.00    -0.011 C 
HETATM   26  C9  UNL     1      21.431  -0.349  54.933  1.00  0.00    -0.024 C 
HETATM   27  C10 UNL     1      20.161  -0.295  54.145  1.00  0.00     0.086 C 
HETATM   28  C11 UNL     1      20.439   0.510  52.899  1.00  0.00     0.276 C 
HETATM   29  F1  UNL     1      20.684   1.816  53.300  1.00  0.00    -0.226 F 
ENDBRANCH   7  23
TORSDOF 6
ENDMDL
MODEL 4
REMARK VINA RESULT:      -7.5      2.255      4.951
REMARK  6 active torsions:
REMARK  status: ('A' for Active; 'I' for Inactive)
REMARK    1  A    between atoms: O1_2  and  C2_3 
REMARK    2  A    between atoms: C6_9  and  N3_10 
REMARK    3  A    between atoms: C14_19  and  C15_20 
REMARK    4  A    between atoms: C15_20  and  N4_21 
REMARK    5  A    between atoms: N4_21  and  C17_23 
REMARK    6  A    between atoms: C17_23  and  C19_25 
REMARK       I    between atoms: C19_25  and  N5_26 
ROOT
HETATM    1  C2  UNL     1      25.811   1.195  52.390  1.00  0.00     0.078 A 
HETATM    2  C3  UNL     1      25.510   0.259  53.341  1.00  0.00     0.070 A 
HETATM    3  C4  UNL     1      24.193   0.021  53.647  1.00  0.00     0.074 A 
HETATM    4  N1  UNL     1      23.874  -0.892  54.578  1.00  0.00    -0.241 NA
HETATM    5  C5  UNL     1      22.596  -1.134  54.887  1.00  0.00     0.236 A 
HETATM    6  N2  UNL     1      21.641  -0.440  54.243  1.00  0.00    -0.224 NA
HETATM    7  C6  UNL     1      21.931   0.478  53.309  1.00  0.00     0.142 A 
HETATM    8  C12 UNL     1      23.225   0.728  52.992  1.00  0.00     0.039 A 
HETATM    9  C13 UNL     1      23.572   1.654  52.050  1.00  0.00     0.029 A 
HETATM   10  C14 UNL     1      24.894   1.947  51.686  1.00  0.00     0.004 A 
ENDROOT
BRANCH  10  11
HETATM   11  C15 UNL     1      25.175   2.944  50.654  1.00  0.00     0.314 C 
BRANCH  11  12
HETATM   12  N4  UNL     1      24.052   3.599  50.086  1.00  0.00     0.101 N 
HETATM   13  C16 UNL     1      23.643   3.204  48.785  1.00  0.00     0.311 C 
BRANCH  12  14
HETATM   14  C17 UNL     1      24.130   5.028  50.267  1.00  0.00     0.309 C 
HETATM   15  C18 UNL     1      25.511   5.525  49.915  1.00  0.00     0.053 C 
BRANCH  14  16
HETATM   16  C19 UNL     1      23.762   5.440  51.652  1.00  0.00     0.248 C 
HETATM   17  N5  UNL     1      24.330   6.710  51.957  1.00  0.00    -0.368 N 
HETATM   18  H23 UNL     1      24.602   7.718  52.011  1.00  0.00     0.159 HD
HETATM   19  H24 UNL     1      24.960   7.332  52.481  1.00  0.00     0.159 HD
HETATM   20  O2  UNL     1      23.124   5.107  52.709  1.00  0.00    -0.271 OA
ENDBRANCH  14  16
ENDBRANCH  12  14
ENDBRANCH  11  12
ENDBRANCH  10  11
BRANCH   1  21
HETATM   21  O1  UNL     1      27.148   1.393  52.124  1.00  0.00    -0.355 OA
HETATM   22  C1  UNL     1      28.102   1.764  53.083  1.00  0.00     0.210 C 
ENDBRANCH   1  21
BRANCH   7  23
HETATM   23  N3  UNL     1      20.846   1.156  52.686  1.00  0.00    -0.331 N 
HETATM   24  C7  UNL     1      20.215   2.475  52.707  1.00  0.00     0.154 C 
HETATM   25  C8  UNL     1      20.251   3.005  51.295  1.00  0.00    -0.011 C 
HETATM   26  C9  UNL     1      19.668   2.184  50.407  1.00  0.00    -0.024 C 
HETATM   27  C10 UNL     1      19.097   0.916  50.956  1.00  0.00     0.086 C 
HETATM   28  C11 UNL     1      20.187   0.239  51.751  1.00  0.00     0.276 C 
HETATM   29  F1  UNL     1      21.167  -0.154  50.850  1.00  0.00    -0.226 F 
ENDBRANCH   7  23
TORSDOF 6
ENDMDL
MODEL 5
REMARK VINA RESULT:      -7.4      2.464      5.540
REMARK  6 active torsions:
REMARK  status: ('A' for Active; 'I' for Inactive)
REMARK    1  A    between atoms: O1_2  and  C2_3 
REMARK    2  A    between atoms: C6_9  and  N3_10 
REMARK    3  A    between atoms: C14_19  and  C15_20 
REMARK    4  A    between atoms: C15_20  and  N4_21 
REMARK    5  A    between atoms: N4_21  and  C17_23 
REMARK    6  A    between atoms: C17_23  and  C19_25 
REMARK       I    between atoms: C19_25  and  N5_26 
ROOT
HETATM    1  C2  UNL     1      22.406   0.399  53.259  1.00  0.00     0.078 A 
HETATM    2  C3  UNL     1      21.128   0.879  53.166  1.00  0.00     0.070 A 
HETATM    3  C4  UNL     1      20.909   2.062  52.504  1.00  0.00     0.074 A 
HETATM    4  N1  UNL     1      19.664   2.552  52.400  1.00  0.00    -0.241 NA
HETATM    5  C5  UNL     1      19.434   3.704  51.760  1.00  0.00     0.236 A 
HETATM    6  N2  UNL     1      20.481   4.355  51.223  1.00  0.00    -0.224 NA
HETATM    7  C6  UNL     1      21.736   3.888  51.311  1.00  0.00     0.142 A 
HETATM    8  C12 UNL     1      21.974   2.722  51.961  1.00  0.00     0.039 A 
HETATM    9  C13 UNL     1      23.233   2.206  52.078  1.00  0.00     0.029 A 
HETATM   10  C14 UNL     1      23.530   1.004  52.738  1.00  0.00     0.004 A 
ENDROOT
BRANCH  10  11
HETATM   11  C15 UNL     1      24.907   0.516  52.804  1.00  0.00     0.314 C 
BRANCH  11  12
HETATM   12  N4  UNL     1      25.930   1.494  52.699  1.00  0.00     0.101 N 
HETATM   13  C16 UNL     1      26.761   1.463  51.548  1.00  0.00     0.311 C 
BRANCH  12  14
HETATM   14  C17 UNL     1      26.652   1.634  53.940  1.00  0.00     0.309 C 
HETATM   15  C18 UNL     1      28.037   2.176  53.679  1.00  0.00     0.053 C 
BRANCH  14  16
HETATM   16  C19 UNL     1      26.725   0.351  54.696  1.00  0.00     0.248 C 
HETATM   17  N5  UNL     1      27.991  -0.271  54.495  1.00  0.00    -0.368 N 
HETATM   18  H23 UNL     1      29.001  -0.537  54.462  1.00  0.00     0.159 HD
HETATM   19  H24 UNL     1      28.598  -1.024  54.149  1.00  0.00     0.159 HD
HETATM   20  O2  UNL     1      26.094  -0.442  55.476  1.00  0.00    -0.271 OA
ENDBRANCH  14  16
ENDBRANCH  12  14
ENDBRANCH  11  12
ENDBRANCH  10  11
BRANCH   1  21
HETATM   21  O1  UNL     1      22.568  -0.791  53.934  1.00  0.00    -0.355 OA
HETATM   22  C1  UNL     1      21.546  -1.457  54.626  1.00  0.00     0.210 C 
ENDBRANCH   1  21
BRANCH   7  23
HETATM   23  N3  UNL     1      22.773   4.653  50.708  1.00  0.00    -0.331 N 
HETATM   24  C7  UNL     1      23.929   5.450  51.113  1.00  0.00     0.154 C 
HETATM   25  C8  UNL     1      25.138   4.850  50.439  1.00  0.00    -0.011 C 
HETATM   26  C9  UNL     1      25.019   4.780  49.103  1.00  0.00    -0.024 C 
HETATM   27  C10 UNL     1      23.740   5.298  48.527  1.00  0.00     0.086 C 
HETATM   28  C11 UNL     1      22.609   4.609  49.252  1.00  0.00     0.276 C 
HETATM   29  F1  UNL     1      22.657   3.266  48.904  1.00  0.00    -0.226 F 
ENDBRANCH   7  23
TORSDOF 6
ENDMDL
MODEL 6
REMARK VINA RESULT:      -7.1      2.628      5.029
REMARK  6 active torsions:
REMARK  status: ('A' for Active; 'I' for Inactive)
REMARK    1  A    between atoms: O1_2  and  C2_3 
REMARK    2  A    between atoms: C6_9  and  N3_10 
REMARK    3  A    between atoms: C14_19  and  C15_20 
REMARK    4  A    between atoms: C15_20  and  N4_21 
REMARK    5  A    between atoms: N4_21  and  C17_23 
REMARK    6  A    between atoms: C17_23  and  C19_25 
REMARK       I    between atoms: C19_25  and  N5_26 
ROOT
HETATM    1  C2  UNL     1      25.307   3.128  50.239  1.00  0.00     0.078 A 
HETATM    2  C3  UNL     1      26.206   2.275  50.818  1.00  0.00     0.070 A 
HETATM    3  C4  UNL     1      25.765   1.389  51.770  1.00  0.00     0.074 A 
HETATM    4  N1  UNL     1      26.631   0.544  52.352  1.00  0.00    -0.241 NA
HETATM    5  C5  UNL     1      26.216  -0.324  53.281  1.00  0.00     0.236 A 
HETATM    6  N2  UNL     1      24.914  -0.328  53.616  1.00  0.00    -0.224 NA
HETATM    7  C6  UNL     1      24.028   0.505  53.051  1.00  0.00     0.142 A 
HETATM    8  C12 UNL     1      24.442   1.388  52.109  1.00  0.00     0.039 A 
HETATM    9  C13 UNL     1      23.579   2.257  51.505  1.00  0.00     0.029 A 
HETATM   10  C14 UNL     1      23.959   3.187  50.525  1.00  0.00     0.004 A 
ENDROOT
BRANCH  10  11
HETATM   11  C15 UNL     1      22.965   4.072  49.919  1.00  0.00     0.314 C 
BRANCH  11  12
HETATM   12  N4  UNL     1      22.563   5.193  50.690  1.00  0.00     0.101 N 
HETATM   13  C16 UNL     1      21.200   5.275  51.082  1.00  0.00     0.311 C 
BRANCH  12  14
HETATM   14  C17 UNL     1      23.091   6.421  50.147  1.00  0.00     0.309 C 
HETATM   15  C18 UNL     1      23.224   6.314  48.647  1.00  0.00     0.053 C 
BRANCH  14  16
HETATM   16  C19 UNL     1      24.396   6.794  50.764  1.00  0.00     0.248 C 
HETATM   17  N5  UNL     1      24.321   6.684  52.182  1.00  0.00    -0.368 N 
HETATM   18  H23 UNL     1      24.238   6.373  53.177  1.00  0.00     0.159 HD
HETATM   19  H24 UNL     1      24.334   7.071  53.135  1.00  0.00     0.159 HD
HETATM   20  O2  UNL     1      25.591   7.184  50.531  1.00  0.00    -0.271 OA
ENDBRANCH  14  16
ENDBRANCH  12  14
ENDBRANCH  11  12
ENDBRANCH  10  11
BRANCH   1  21
HETATM   21  O1  UNL     1      25.804   3.996  49.292  1.00  0.00    -0.355 OA
HETATM   22  C1  UNL     1      27.161   4.309  49.137  1.00  0.00     0.210 C 
ENDBRANCH   1  21
BRANCH   7  23
HETATM   23  N3  UNL     1      22.672   0.419  53.474  1.00  0.00    -0.331 N 
HETATM   24  C7  UNL     1      21.518   1.300  53.655  1.00  0.00     0.154 C 
HETATM   25  C8  UNL     1      20.402   0.744  52.805  1.00  0.00    -0.011 C 
HETATM   26  C9  UNL     1      20.107  -0.534  53.087  1.00  0.00    -0.024 C 
HETATM   27  C10 UNL     1      20.916  -1.174  54.171  1.00  0.00     0.086 C 
HETATM   28  C11 UNL     1      22.371  -0.972  53.825  1.00  0.00     0.276 C 
HETATM   29  F1  UNL     1      22.628  -1.716  52.681  1.00  0.00    -0.226 F 
ENDBRANCH   7  23
TORSDOF 6
ENDMDL
MODEL 7
REMARK VINA RESULT:      -6.9      3.206      6.268
REMARK  6 active torsions:
REMARK  status: ('A' for Active; 'I' for Inactive)
REMARK    1  A    between atoms: O1_2  and  C2_3 
REMARK    2  A    between atoms: C6_9  and  N3_10 
REMARK    3  A    between atoms: C14_19  and  C15_20 
REMARK    4  A    between atoms: C15_20  and  N4_21 
REMARK    5  A    between atoms: N4_21  and  C17_23 
REMARK    6  A    between atoms: C17_23  and  C19_25 
REMARK       I    between atoms: C19_25  and  N5_26 
ROOT
HETATM    1  C2  UNL     1      22.984   1.212  51.556  1.00  0.00     0.078 A 
HETATM    2  C3  UNL     1      22.189   1.476  50.474  1.00  0.00     0.070 A 
HETATM    3  C4  UNL     1      22.505   2.536  49.660  1.00  0.00     0.074 A 
HETATM    4  N1  UNL     1      21.739   2.814  48.593  1.00  0.00    -0.241 NA
HETATM    5  C5  UNL     1      22.033   3.842  47.791  1.00  0.00     0.236 A 
HETATM    6  N2  UNL     1      23.114   4.589  48.080  1.00  0.00    -0.224 NA
HETATM    7  C6  UNL     1      23.897   4.333  49.139  1.00  0.00     0.142 A 
HETATM    8  C12 UNL     1      23.602   3.292  49.957  1.00  0.00     0.039 A 
HETATM    9  C13 UNL     1      24.367   2.992  51.047  1.00  0.00     0.029 A 
HETATM   10  C14 UNL     1      24.105   1.926  51.921  1.00  0.00     0.004 A 
ENDROOT
BRANCH  10  11
HETATM   11  C15 UNL     1      24.987   1.667  53.058  1.00  0.00     0.314 C 
BRANCH  11  12
HETATM   12  N4  UNL     1      26.343   1.379  52.754  1.00  0.00     0.101 N 
HETATM   13  C16 UNL     1      26.617   0.223  51.976  1.00  0.00     0.311 C 
BRANCH  12  14
HETATM   14  C17 UNL     1      27.182   1.514  53.919  1.00  0.00     0.309 C 
HETATM   15  C18 UNL     1      28.595   1.853  53.509  1.00  0.00     0.053 C 
BRANCH  14  16
HETATM   16  C19 UNL     1      27.163   0.290  54.771  1.00  0.00     0.248 C 
HETATM   17  N5  UNL     1      28.489  -0.181  54.990  1.00  0.00    -0.368 N 
HETATM   18  H23 UNL     1      29.487  -0.323  55.267  1.00  0.00     0.159 HD
HETATM   19  H24 UNL     1      29.245  -0.872  54.895  1.00  0.00     0.159 HD
HETATM   20  O2  UNL     1      26.417  -0.533  55.404  1.00  0.00    -0.271 OA
ENDBRANCH  14  16
ENDBRANCH  12  14
ENDBRANCH  11  12
ENDBRANCH  10  11
BRANCH   1  21
HETATM   21  O1  UNL     1      22.619   0.139  52.339  1.00  0.00    -0.355 OA
HETATM   22  C1  UNL     1      21.588   0.162  53.288  1.00  0.00     0.210 C 
ENDBRANCH   1  21
BRANCH   7  23
HETATM   23  N3  UNL     1      25.018   5.182  49.356  1.00  0.00    -0.331 N 
HETATM   24  C7  UNL     1      26.435   5.244  49.001  1.00  0.00     0.154 C 
HETATM   25  C8  UNL     1      26.653   6.554  48.283  1.00  0.00    -0.011 C 
HETATM   26  C9  UNL     1      26.268   7.621  49.001  1.00  0.00    -0.024 C 
HETATM   27  C10 UNL     1      25.703   7.336  50.355  1.00  0.00     0.086 C 
HETATM   28  C11 UNL     1      24.599   6.321  50.178  1.00  0.00     0.276 C 
HETATM   29  F1  UNL     1      23.579   6.944  49.473  1.00  0.00    -0.226 F 
ENDBRANCH   7  23
TORSDOF 6
ENDMDL
MODEL 8
REMARK VINA RESULT:      -6.8      3.111      6.561
REMARK  6 active torsions:
REMARK  status: ('A' for Active; 'I' for Inactive)
REMARK    1  A    between atoms: O1_2  and  C2_3 
REMARK    2  A    between atoms: C6_9  and  N3_10 
REMARK    3  A    between atoms: C14_19  and  C15_20 
REMARK    4  A    between atoms: C15_20  and  N4_21 
REMARK    5  A    between atoms: N4_21  and  C17_23 
REMARK    6  A    between atoms: C17_23  and  C19_25 
REMARK       I    between atoms: C19_25  and  N5_26 
ROOT
HETATM    1  C2  UNL     1      25.409   1.826  51.450  1.00  0.00     0.078 A 
HETATM    2  C3  UNL     1      26.488   2.299  50.755  1.00  0.00     0.070 A 
HETATM    3  C4  UNL     1      26.368   3.480  50.065  1.00  0.00     0.074 A 
HETATM    4  N1  UNL     1      27.414   3.963  49.375  1.00  0.00    -0.241 NA
HETATM    5  C5  UNL     1      27.313   5.111  48.697  1.00  0.00     0.236 A 
HETATM    6  N2  UNL     1      26.139   5.767  48.724  1.00  0.00    -0.224 NA
HETATM    7  C6  UNL     1      25.078   5.308  49.405  1.00  0.00     0.142 A 
HETATM    8  C12 UNL     1      25.175   4.144  50.094  1.00  0.00     0.039 A 
HETATM    9  C13 UNL     1      24.124   3.634  50.801  1.00  0.00     0.029 A 
HETATM   10  C14 UNL     1      24.175   2.436  51.529  1.00  0.00     0.004 A 
ENDROOT
BRANCH  10  11
HETATM   11  C15 UNL     1      23.005   1.971  52.272  1.00  0.00     0.314 C 
BRANCH  11  12
HETATM   12  N4  UNL     1      22.313   0.858  51.728  1.00  0.00     0.101 N 
HETATM   13  C16 UNL     1      21.769   0.989  50.422  1.00  0.00     0.311 C 
BRANCH  12  14
HETATM   14  C17 UNL     1      21.400   0.286  52.687  1.00  0.00     0.309 C 
HETATM   15  C18 UNL     1      20.427   1.333  53.171  1.00  0.00     0.053 C 
BRANCH  14  16
HETATM   16  C19 UNL     1      22.113  -0.340  53.838  1.00  0.00     0.248 C 
HETATM   17  N5  UNL     1      21.269  -0.370  54.985  1.00  0.00    -0.368 N 
HETATM   18  H23 UNL     1      20.520  -0.540  55.695  1.00  0.00     0.159 HD
HETATM   19  H24 UNL     1      21.012  -0.099  55.943  1.00  0.00     0.159 HD
HETATM   20  O2  UNL     1      23.207  -0.876  54.225  1.00  0.00    -0.271 OA
ENDBRANCH  14  16
ENDBRANCH  12  14
ENDBRANCH  11  12
ENDBRANCH  10  11
BRANCH   1  21
HETATM   21  O1  UNL     1      25.585   0.637  52.124  1.00  0.00    -0.355 OA
HETATM   22  C1  UNL     1      26.813  -0.026  52.258  1.00  0.00     0.210 C 
ENDBRANCH   1  21
BRANCH   7  23
HETATM   23  N3  UNL     1      23.884   6.079  49.371  1.00  0.00    -0.331 N 
HETATM   24  C7  UNL     1      22.524   5.978  48.842  1.00  0.00     0.154 C 
HETATM   25  C8  UNL     1      21.583   6.128  50.012  1.00  0.00    -0.011 C 
HETATM   26  C9  UNL     1      21.770   7.265  50.701  1.00  0.00    -0.024 C 
HETATM   27  C10 UNL     1      22.854   8.167  50.202  1.00  0.00     0.086 C 
HETATM   28  C11 UNL     1      24.111   7.339  50.086  1.00  0.00     0.276 C 
HETATM   29  F1  UNL     1      24.487   6.983  51.374  1.00  0.00    -0.226 F 
ENDBRANCH   7  23
TORSDOF 6
ENDMDL
MODEL 9
REMARK VINA RESULT:      -6.4      3.294      6.440
REMARK  6 active torsions:
REMARK  status: ('A' for Active; 'I' for Inactive)
REMARK    1  A    between atoms: O1_2  and  C2_3 
REMARK    2  A    between atoms: C6_9  and  N3_10 
REMARK    3  A    between atoms: C14_19  and  C15_20 
REMARK    4  A    between atoms: C15_20  and  N4_21 
REMARK    5  A    between atoms: N4_21  and  C17_23 
REMARK    6  A    between atoms: C17_23  and  C19_25 
REMARK       I    between atoms: C19_25  and  N5_26 
ROOT
HETATM    1  C2  UNL     1      24.804   1.969  51.438  1.00  0.00     0.078 A 
HETATM    2  C3  UNL     1      25.991   2.310  50.849  1.00  0.00     0.070 A 
HETATM    3  C4  UNL     1      26.058   3.465  50.110  1.00  0.00     0.074 A 
HETATM    4  N1  UNL     1      27.212   3.819  49.522  1.00  0.00    -0.241 NA
HETATM    5  C5  UNL     1      27.294   4.941  48.798  1.00  0.00     0.236 A 
HETATM    6  N2  UNL     1      26.193   5.702  48.674  1.00  0.00    -0.224 NA
HETATM    7  C6  UNL     1      25.027   5.373  49.251  1.00  0.00     0.142 A 
HETATM    8  C12 UNL     1      24.938   4.236  49.985  1.00  0.00     0.039 A 
HETATM    9  C13 UNL     1      23.774   3.857  50.590  1.00  0.00     0.029 A 
HETATM   10  C14 UNL     1      23.632   2.693  51.360  1.00  0.00     0.004 A 
ENDROOT
BRANCH  10  11
HETATM   11  C15 UNL     1      22.351   2.370  51.986  1.00  0.00     0.314 C 
BRANCH  11  12
HETATM   12  N4  UNL     1      21.187   2.656  51.226  1.00  0.00     0.101 N 
HETATM   13  C16 UNL     1      20.233   3.547  51.785  1.00  0.00     0.311 C 
BRANCH  12  14
HETATM   14  C17 UNL     1      20.613   1.454  50.673  1.00  0.00     0.309 C 
HETATM   15  C18 UNL     1      21.140   0.241  51.400  1.00  0.00     0.053 C 
BRANCH  14  16
HETATM   16  C19 UNL     1      20.859   1.336  49.207  1.00  0.00     0.248 C 
HETATM   17  N5  UNL     1      19.830   1.998  48.478  1.00  0.00    -0.368 N 
HETATM   18  H23 UNL     1      19.162   2.676  48.045  1.00  0.00     0.159 HD
HETATM   19  H24 UNL     1      19.031   2.017  47.831  1.00  0.00     0.159 HD
HETATM   20  O2  UNL     1      21.643   0.869  48.311  1.00  0.00    -0.271 OA
ENDBRANCH  14  16
ENDBRANCH  12  14
ENDBRANCH  11  12
ENDBRANCH  10  11
BRANCH   1  21
HETATM   21  O1  UNL     1      24.792   0.801  52.167  1.00  0.00    -0.355 OA
HETATM   22  C1  UNL     1      25.649   0.527  53.242  1.00  0.00     0.210 C 
ENDBRANCH   1  21
BRANCH   7  23
HETATM   23  N3  UNL     1      23.922   6.248  49.060  1.00  0.00    -0.331 N 
HETATM   24  C7  UNL     1      22.627   6.253  48.380  1.00  0.00     0.154 C 
HETATM   25  C8  UNL     1      21.578   6.529  49.429  1.00  0.00    -0.011 C 
HETATM   26  C9  UNL     1      21.794   7.668  50.106  1.00  0.00    -0.024 C 
HETATM   27  C10 UNL     1      23.007   8.449  49.714  1.00  0.00     0.086 C 
HETATM   28  C11 UNL     1      24.185   7.506  49.765  1.00  0.00     0.276 C 
HETATM   29  F1  UNL     1      24.378   7.163  51.096  1.00  0.00    -0.226 F 
ENDBRANCH   7  23
TORSDOF 6
ENDMDL
