MODEL 1
REMARK VINA RESULT:      -7.5      0.000      0.000
REMARK  8 active torsions:
REMARK  status: ('A' for Active; 'I' for Inactive)
REMARK    1  A    between atoms: O1_2  and  C2_3 
REMARK    2  A    between atoms: C2_3  and  C3_4 
REMARK    3  A    between atoms: C3_4  and  O2_5 
REMARK    4  A    between atoms: O2_5  and  C4_6 
REMARK    5  A    between atoms: C9_11  and  O3_12 
REMARK    6  A    between atoms: O3_12  and  C10_13 
REMARK    7  A    between atoms: C10_13  and  C11_14 
REMARK    8  A    between atoms: C11_14  and  O4_15 
ROOT
HETATM    1  C4  UNL     1      25.654   0.643  52.822  1.00  0.00     0.104 A 
HETATM    2  C5  UNL     1      26.373   1.375  51.899  1.00  0.00     0.073 A 
HETATM    3  C6  UNL     1      25.733   2.087  50.905  1.00  0.00     0.085 A 
HETATM    4  C7  UNL     1      24.341   2.117  50.762  1.00  0.00     0.063 A 
HETATM    5  C8  UNL     1      23.699   1.363  51.722  1.00  0.00     0.071 A 
HETATM    6  C9  UNL     1      24.244   0.622  52.748  1.00  0.00     0.104 A 
HETATM    7  N1  UNL     1      23.293   2.661  49.918  1.00  0.00    -0.364 N 
HETATM    8  C13 UNL     1      22.372   1.640  50.248  1.00  0.00     0.151 C 
HETATM    9  C14 UNL     1      21.599   1.418  48.918  1.00  0.00    -0.007 C 
HETATM   10  C15 UNL     1      20.998   2.285  48.109  1.00  0.00    -0.002 C 
HETATM   11  C16 UNL     1      20.976   3.745  48.378  1.00  0.00     0.004 C 
HETATM   12  C17 UNL     1      22.029   4.449  48.831  1.00  0.00    -0.058 C 
HETATM   13  C18 UNL     1      21.794   5.893  49.035  1.00  0.00     0.046 C 
HETATM   14  C19 UNL     1      23.368   3.832  49.099  1.00  0.00     0.137 C 
HETATM   15  C20 UNL     1      24.374   4.833  49.367  1.00  0.00     0.004 C 
HETATM   16  C21 UNL     1      25.664   5.054  49.579  1.00  0.00     0.017 C 
HETATM   17  C22 UNL     1      26.709   3.993  49.603  1.00  0.00     0.117 C 
HETATM   18  N2  UNL     1      26.749   2.781  50.138  1.00  0.00    -0.259 NA
ENDROOT
BRANCH   1  19
HETATM   19  O2  UNL     1      26.277  -0.049  53.791  1.00  0.00    -0.346 OA
BRANCH  19  20
HETATM   20  C3  UNL     1      26.997   0.267  54.911  1.00  0.00     0.201 C 
BRANCH  20  21
HETATM   21  C2  UNL     1      28.502   0.267  54.771  1.00  0.00     0.193 C 
BRANCH  21  22
HETATM   22  O1  UNL     1      29.026   1.525  55.010  1.00  0.00    -0.394 OA
HETATM   23  C1  UNL     1      29.038   2.336  53.906  1.00  0.00     0.201 C 
ENDBRANCH  21  22
ENDBRANCH  20  21
ENDBRANCH  19  20
ENDBRANCH   1  19
BRANCH   6  24
HETATM   24  O3  UNL     1      23.675  -0.132  53.707  1.00  0.00    -0.346 OA
BRANCH  24  25
HETATM   25  C10 UNL     1      22.569  -0.967  53.649  1.00  0.00     0.201 C 
BRANCH  25  26
HETATM   26  C11 UNL     1      21.578  -0.788  54.776  1.00  0.00     0.193 C 
BRANCH  26  27
HETATM   27  O4  UNL     1      20.808   0.333  54.561  1.00  0.00    -0.394 OA
HETATM   28  C12 UNL     1      20.281   0.456  53.305  1.00  0.00     0.201 C 
ENDBRANCH  26  27
ENDBRANCH  25  26
ENDBRANCH  24  25
ENDBRANCH   6  24
TORSDOF 8
ENDMDL
MODEL 2
REMARK VINA RESULT:      -7.2      3.264      7.809
REMARK  8 active torsions:
REMARK  status: ('A' for Active; 'I' for Inactive)
REMARK    1  A    between atoms: O1_2  and  C2_3 
REMARK    2  A    between atoms: C2_3  and  C3_4 
REMARK    3  A    between atoms: C3_4  and  O2_5 
REMARK    4  A    between atoms: O2_5  and  C4_6 
REMARK    5  A    between atoms: C9_11  and  O3_12 
REMARK    6  A    between atoms: O3_12  and  C10_13 
REMARK    7  A    between atoms: C10_13  and  C11_14 
REMARK    8  A    between atoms: C11_14  and  O4_15 
ROOT
HETATM    1  C4  UNL     1      20.226   2.947  52.335  1.00  0.00     0.104 A 
HETATM    2  C5  UNL     1      20.172   1.597  52.616  1.00  0.00     0.073 A 
HETATM    3  C6  UNL     1      21.328   0.869  52.817  1.00  0.00     0.085 A 
HETATM    4  C7  UNL     1      22.607   1.433  52.749  1.00  0.00     0.063 A 
HETATM    5  C8  UNL     1      22.572   2.782  52.467  1.00  0.00     0.071 A 
HETATM    6  C9  UNL     1      21.479   3.592  52.252  1.00  0.00     0.104 A 
HETATM    7  N1  UNL     1      24.012   1.086  52.853  1.00  0.00    -0.364 N 
HETATM    8  C13 UNL     1      24.433   2.172  52.052  1.00  0.00     0.151 C 
HETATM    9  C14 UNL     1      25.635   1.584  51.261  1.00  0.00    -0.007 C 
HETATM   10  C15 UNL     1      26.712   0.926  51.682  1.00  0.00    -0.002 C 
HETATM   11  C16 UNL     1      26.950   0.618  53.115  1.00  0.00     0.004 C 
HETATM   12  C17 UNL     1      26.000   0.200  53.970  1.00  0.00    -0.058 C 
HETATM   13  C18 UNL     1      26.448  -0.047  55.355  1.00  0.00     0.046 C 
HETATM   14  C19 UNL     1      24.576  -0.025  53.560  1.00  0.00     0.137 C 
HETATM   15  C20 UNL     1      23.816  -0.674  54.602  1.00  0.00     0.004 C 
HETATM   16  C21 UNL     1      22.653  -1.223  54.922  1.00  0.00     0.017 C 
HETATM   17  C22 UNL     1      21.489  -1.335  54.000  1.00  0.00     0.117 C 
HETATM   18  N2  UNL     1      20.940  -0.491  53.137  1.00  0.00    -0.259 NA
ENDROOT
BRANCH   1  19
HETATM   19  O2  UNL     1      19.101   3.656  52.142  1.00  0.00    -0.346 OA
BRANCH  19  20
HETATM   20  C3  UNL     1      18.134   3.713  51.175  1.00  0.00     0.201 C 
BRANCH  20  21
HETATM   21  C2  UNL     1      16.710   3.481  51.627  1.00  0.00     0.193 C 
BRANCH  21  22
HETATM   22  O1  UNL     1      16.353   4.365  52.629  1.00  0.00    -0.394 OA
HETATM   23  C1  UNL     1      15.116   4.119  53.166  1.00  0.00     0.201 C 
ENDBRANCH  21  22
ENDBRANCH  20  21
ENDBRANCH  19  20
ENDBRANCH   1  19
BRANCH   6  24
HETATM   24  O3  UNL     1      21.380   4.905  51.970  1.00  0.00    -0.346 OA
BRANCH  24  25
HETATM   25  C10 UNL     1      21.614   5.585  50.784  1.00  0.00     0.201 C 
BRANCH  25  26
HETATM   26  C11 UNL     1      22.635   6.695  50.878  1.00  0.00     0.193 C 
BRANCH  26  27
HETATM   27  O4  UNL     1      23.821   6.210  51.384  1.00  0.00    -0.394 OA
HETATM   28  C12 UNL     1      24.614   5.540  50.494  1.00  0.00     0.201 C 
ENDBRANCH  26  27
ENDBRANCH  25  26
ENDBRANCH  24  25
ENDBRANCH   6  24
TORSDOF 8
ENDMDL
MODEL 3
REMARK VINA RESULT:      -6.9      1.627      2.215
REMARK  8 active torsions:
REMARK  status: ('A' for Active; 'I' for Inactive)
REMARK    1  A    between atoms: O1_2  and  C2_3 
REMARK    2  A    between atoms: C2_3  and  C3_4 
REMARK    3  A    between atoms: C3_4  and  O2_5 
REMARK    4  A    between atoms: O2_5  and  C4_6 
REMARK    5  A    between atoms: C9_11  and  O3_12 
REMARK    6  A    between atoms: O3_12  and  C10_13 
REMARK    7  A    between atoms: C10_13  and  C11_14 
REMARK    8  A    between atoms: C11_14  and  O4_15 
ROOT
HETATM    1  C4  UNL     1      25.773   2.126  51.884  1.00  0.00     0.104 A 
HETATM    2  C5  UNL     1      26.610   2.651  50.922  1.00  0.00     0.073 A 
HETATM    3  C6  UNL     1      26.134   3.529  49.970  1.00  0.00     0.085 A 
HETATM    4  C7  UNL     1      24.796   3.940  49.911  1.00  0.00     0.063 A 
HETATM    5  C8  UNL     1      24.029   3.372  50.906  1.00  0.00     0.071 A 
HETATM    6  C9  UNL     1      24.408   2.492  51.895  1.00  0.00     0.104 A 
HETATM    7  N1  UNL     1      23.891   4.765  49.133  1.00  0.00    -0.364 N 
HETATM    8  C13 UNL     1      22.746   4.028  49.515  1.00  0.00     0.151 C 
HETATM    9  C14 UNL     1      21.867   4.050  48.233  1.00  0.00    -0.007 C 
HETATM   10  C15 UNL     1      21.481   5.063  47.464  1.00  0.00    -0.002 C 
HETATM   11  C16 UNL     1      21.874   6.469  47.737  1.00  0.00     0.004 C 
HETATM   12  C17 UNL     1      23.103   6.851  48.127  1.00  0.00    -0.058 C 
HETATM   13  C18 UNL     1      23.283   8.299  48.348  1.00  0.00     0.046 C 
HETATM   14  C19 UNL     1      24.236   5.887  48.313  1.00  0.00     0.137 C 
HETATM   15  C20 UNL     1      25.490   6.571  48.522  1.00  0.00     0.004 C 
HETATM   16  C21 UNL     1      26.801   6.427  48.657  1.00  0.00     0.017 C 
HETATM   17  C22 UNL     1      27.517   5.122  48.615  1.00  0.00     0.117 C 
HETATM   18  N2  UNL     1      27.255   3.935  49.145  1.00  0.00    -0.259 NA
ENDROOT
BRANCH   1  19
HETATM   19  O2  UNL     1      26.237   1.273  52.812  1.00  0.00    -0.346 OA
BRANCH  19  20
HETATM   20  C3  UNL     1      27.233   1.294  53.751  1.00  0.00     0.201 C 
BRANCH  20  21
HETATM   21  C2  UNL     1      27.185   0.221  54.814  1.00  0.00     0.193 C 
BRANCH  21  22
HETATM   22  O1  UNL     1      28.325  -0.563  54.783  1.00  0.00    -0.394 OA
HETATM   23  C1  UNL     1      29.300  -0.086  53.946  1.00  0.00     0.201 C 
ENDBRANCH  21  22
ENDBRANCH  20  21
ENDBRANCH  19  20
ENDBRANCH   1  19
BRANCH   6  24
HETATM   24  O3  UNL     1      23.711   1.904  52.884  1.00  0.00    -0.346 OA
BRANCH  24  25
HETATM   25  C10 UNL     1      22.768   0.887  52.832  1.00  0.00     0.201 C 
BRANCH  25  26
HETATM   26  C11 UNL     1      23.246  -0.450  53.350  1.00  0.00     0.193 C 
BRANCH  26  27
HETATM   27  O4  UNL     1      22.219  -1.369  53.314  1.00  0.00    -0.394 OA
HETATM   28  C12 UNL     1      21.291  -1.257  54.312  1.00  0.00     0.201 C 
ENDBRANCH  26  27
ENDBRANCH  25  26
ENDBRANCH  24  25
ENDBRANCH   6  24
TORSDOF 8
ENDMDL
MODEL 4
REMARK VINA RESULT:      -6.6      1.786      2.564
REMARK  8 active torsions:
REMARK  status: ('A' for Active; 'I' for Inactive)
REMARK    1  A    between atoms: O1_2  and  C2_3 
REMARK    2  A    between atoms: C2_3  and  C3_4 
REMARK    3  A    between atoms: C3_4  and  O2_5 
REMARK    4  A    between atoms: O2_5  and  C4_6 
REMARK    5  A    between atoms: C9_11  and  O3_12 
REMARK    6  A    between atoms: O3_12  and  C10_13 
REMARK    7  A    between atoms: C10_13  and  C11_14 
REMARK    8  A    between atoms: C11_14  and  O4_15 
ROOT
HETATM    1  C4  UNL     1      25.708   2.123  51.499  1.00  0.00     0.104 A 
HETATM    2  C5  UNL     1      26.608   2.702  50.629  1.00  0.00     0.073 A 
HETATM    3  C6  UNL     1      26.202   3.658  49.720  1.00  0.00     0.085 A 
HETATM    4  C7  UNL     1      24.877   4.098  49.617  1.00  0.00     0.063 A 
HETATM    5  C8  UNL     1      24.044   3.473  50.520  1.00  0.00     0.071 A 
HETATM    6  C9  UNL     1      24.351   2.514  51.460  1.00  0.00     0.104 A 
HETATM    7  N1  UNL     1      24.031   4.996  48.852  1.00  0.00    -0.364 N 
HETATM    8  C13 UNL     1      22.855   4.255  49.112  1.00  0.00     0.151 C 
HETATM    9  C14 UNL     1      22.052   4.390  47.787  1.00  0.00    -0.007 C 
HETATM   10  C15 UNL     1      21.727   5.465  47.076  1.00  0.00    -0.002 C 
HETATM   11  C16 UNL     1      22.125   6.838  47.477  1.00  0.00     0.004 C 
HETATM   12  C17 UNL     1      23.335   7.166  47.964  1.00  0.00    -0.058 C 
HETATM   13  C18 UNL     1      23.524   8.590  48.304  1.00  0.00     0.046 C 
HETATM   14  C19 UNL     1      24.440   6.169  48.141  1.00  0.00     0.137 C 
HETATM   15  C20 UNL     1      25.691   6.811  48.472  1.00  0.00     0.004 C 
HETATM   16  C21 UNL     1      26.989   6.632  48.670  1.00  0.00     0.017 C 
HETATM   17  C22 UNL     1      27.686   5.319  48.571  1.00  0.00     0.117 C 
HETATM   18  N2  UNL     1      27.375   4.101  48.993  1.00  0.00    -0.259 NA
ENDROOT
BRANCH   1  19
HETATM   19  O2  UNL     1      26.104   1.194  52.385  1.00  0.00    -0.346 OA
BRANCH  19  20
HETATM   20  C3  UNL     1      27.307   0.701  52.815  1.00  0.00     0.201 C 
BRANCH  20  21
HETATM   21  C2  UNL     1      27.388  -0.792  53.033  1.00  0.00     0.193 C 
BRANCH  21  22
HETATM   22  O1  UNL     1      28.303  -1.103  54.024  1.00  0.00    -0.394 OA
HETATM   23  C1  UNL     1      29.601  -1.136  53.584  1.00  0.00     0.201 C 
ENDBRANCH  21  22
ENDBRANCH  20  21
ENDBRANCH  19  20
ENDBRANCH   1  19
BRANCH   6  24
HETATM   24  O3  UNL     1      23.589   1.867  52.361  1.00  0.00    -0.346 OA
BRANCH  24  25
HETATM   25  C10 UNL     1      22.532   0.988  52.172  1.00  0.00     0.201 C 
BRANCH  25  26
HETATM   26  C11 UNL     1      21.185   1.505  52.621  1.00  0.00     0.193 C 
BRANCH  26  27
HETATM   27  O4  UNL     1      20.794   0.870  53.779  1.00  0.00    -0.394 OA
HETATM   28  C12 UNL     1      21.438  -0.305  54.056  1.00  0.00     0.201 C 
ENDBRANCH  26  27
ENDBRANCH  25  26
ENDBRANCH  24  25
ENDBRANCH   6  24
TORSDOF 8
ENDMDL
MODEL 5
REMARK VINA RESULT:      -6.5      2.452      3.688
REMARK  8 active torsions:
REMARK  status: ('A' for Active; 'I' for Inactive)
REMARK    1  A    between atoms: O1_2  and  C2_3 
REMARK    2  A    between atoms: C2_3  and  C3_4 
REMARK    3  A    between atoms: C3_4  and  O2_5 
REMARK    4  A    between atoms: O2_5  and  C4_6 
REMARK    5  A    between atoms: C9_11  and  O3_12 
REMARK    6  A    between atoms: O3_12  and  C10_13 
REMARK    7  A    between atoms: C10_13  and  C11_14 
REMARK    8  A    between atoms: C11_14  and  O4_15 
ROOT
HETATM    1  C4  UNL     1      25.668   2.838  50.971  1.00  0.00     0.104 A 
HETATM    2  C5  UNL     1      26.711   3.253  50.170  1.00  0.00     0.073 A 
HETATM    3  C6  UNL     1      26.561   4.318  49.306  1.00  0.00     0.085 A 
HETATM    4  C7  UNL     1      25.367   5.038  49.181  1.00  0.00     0.063 A 
HETATM    5  C8  UNL     1      24.377   4.562  50.015  1.00  0.00     0.071 A 
HETATM    6  C9  UNL     1      24.428   3.514  50.907  1.00  0.00     0.104 A 
HETATM    7  N1  UNL     1      24.769   6.134  48.442  1.00  0.00    -0.364 N 
HETATM    8  C13 UNL     1      23.451   5.652  48.614  1.00  0.00     0.151 C 
HETATM    9  C14 UNL     1      22.760   6.023  47.272  1.00  0.00    -0.007 C 
HETATM   10  C15 UNL     1      22.706   7.177  46.615  1.00  0.00    -0.002 C 
HETATM   11  C16 UNL     1      23.368   8.411  47.111  1.00  0.00     0.004 C 
HETATM   12  C17 UNL     1      24.595   8.445  47.660  1.00  0.00    -0.058 C 
HETATM   13  C18 UNL     1      25.067   9.776  48.090  1.00  0.00     0.046 C 
HETATM   14  C19 UNL     1      25.452   7.226  47.817  1.00  0.00     0.137 C 
HETATM   15  C20 UNL     1      26.794   7.566  48.230  1.00  0.00     0.004 C 
HETATM   16  C21 UNL     1      28.013   7.102  48.463  1.00  0.00     0.017 C 
HETATM   17  C22 UNL     1      28.418   5.676  48.311  1.00  0.00     0.117 C 
HETATM   18  N2  UNL     1      27.836   4.534  48.649  1.00  0.00    -0.259 NA
ENDROOT
BRANCH   1  19
HETATM   19  O2  UNL     1      25.814   1.802  51.814  1.00  0.00    -0.346 OA
BRANCH  19  20
HETATM   20  C3  UNL     1      26.866   1.195  52.447  1.00  0.00     0.201 C 
BRANCH  20  21
HETATM   21  C2  UNL     1      27.488   1.948  53.600  1.00  0.00     0.193 C 
BRANCH  21  22
HETATM   22  O1  UNL     1      27.657   1.125  54.700  1.00  0.00    -0.394 OA
HETATM   23  C1  UNL     1      26.631   0.235  54.885  1.00  0.00     0.201 C 
ENDBRANCH  21  22
ENDBRANCH  20  21
ENDBRANCH  19  20
ENDBRANCH   1  19
BRANCH   6  24
HETATM   24  O3  UNL     1      23.504   3.002  51.740  1.00  0.00    -0.346 OA
BRANCH  24  25
HETATM   25  C10 UNL     1      22.220   2.545  51.479  1.00  0.00     0.201 C 
BRANCH  25  26
HETATM   26  C11 UNL     1      22.127   1.080  51.117  1.00  0.00     0.193 C 
BRANCH  26  27
HETATM   27  O4  UNL     1      21.541   0.373  52.144  1.00  0.00    -0.394 OA
HETATM   28  C12 UNL     1      22.383  -0.430  52.863  1.00  0.00     0.201 C 
ENDBRANCH  26  27
ENDBRANCH  25  26
ENDBRANCH  24  25
ENDBRANCH   6  24
TORSDOF 8
ENDMDL
MODEL 6
REMARK VINA RESULT:      -6.3      4.925      7.497
REMARK  8 active torsions:
REMARK  status: ('A' for Active; 'I' for Inactive)
REMARK    1  A    between atoms: O1_2  and  C2_3 
REMARK    2  A    between atoms: C2_3  and  C3_4 
REMARK    3  A    between atoms: C3_4  and  O2_5 
REMARK    4  A    between atoms: O2_5  and  C4_6 
REMARK    5  A    between atoms: C9_11  and  O3_12 
REMARK    6  A    between atoms: O3_12  and  C10_13 
REMARK    7  A    between atoms: C10_13  and  C11_14 
REMARK    8  A    between atoms: C11_14  and  O4_15 
ROOT
HETATM    1  C4  UNL     1      26.457   4.798  49.042  1.00  0.00     0.104 A 
HETATM    2  C5  UNL     1      27.797   4.641  48.753  1.00  0.00     0.073 A 
HETATM    3  C6  UNL     1      28.570   5.717  48.366  1.00  0.00     0.085 A 
HETATM    4  C7  UNL     1      28.062   7.016  48.239  1.00  0.00     0.063 A 
HETATM    5  C8  UNL     1      26.719   7.086  48.545  1.00  0.00     0.071 A 
HETATM    6  C9  UNL     1      25.868   6.078  48.939  1.00  0.00     0.104 A 
HETATM    7  N1  UNL     1      28.454   8.361  47.862  1.00  0.00    -0.364 N 
HETATM    8  C13 UNL     1      27.142   8.740  47.498  1.00  0.00     0.151 C 
HETATM    9  C14 UNL     1      27.369   9.680  46.281  1.00  0.00    -0.007 C 
HETATM   10  C15 UNL     1      28.169  10.732  46.136  1.00  0.00    -0.002 C 
HETATM   11  C16 UNL     1      29.060  11.214  47.222  1.00  0.00     0.004 C 
HETATM   12  C17 UNL     1      29.777  10.412  48.028  1.00  0.00    -0.058 C 
HETATM   13  C18 UNL     1      30.598  11.096  49.047  1.00  0.00     0.046 C 
HETATM   14  C19 UNL     1      29.772   8.918  47.905  1.00  0.00     0.137 C 
HETATM   15  C20 UNL     1      30.783   8.310  48.738  1.00  0.00     0.004 C 
HETATM   16  C21 UNL     1      31.388   7.178  49.068  1.00  0.00     0.017 C 
HETATM   17  C22 UNL     1      31.070   5.847  48.478  1.00  0.00     0.117 C 
HETATM   18  N2  UNL     1      29.928   5.242  48.186  1.00  0.00    -0.259 NA
ENDROOT
BRANCH   1  19
HETATM   19  O2  UNL     1      25.705   3.751  49.421  1.00  0.00    -0.346 OA
BRANCH  19  20
HETATM   20  C3  UNL     1      25.419   3.130  50.606  1.00  0.00     0.201 C 
BRANCH  20  21
HETATM   21  C2  UNL     1      26.400   2.080  51.075  1.00  0.00     0.193 C 
BRANCH  21  22
HETATM   22  O1  UNL     1      27.460   2.655  51.753  1.00  0.00    -0.394 OA
HETATM   23  C1  UNL     1      27.717   2.075  52.968  1.00  0.00     0.201 C 
ENDBRANCH  21  22
ENDBRANCH  20  21
ENDBRANCH  19  20
ENDBRANCH   1  19
BRANCH   6  24
HETATM   24  O3  UNL     1      24.558   6.082  49.247  1.00  0.00    -0.346 OA
BRANCH  24  25
HETATM   25  C10 UNL     1      23.645   7.127  49.259  1.00  0.00     0.201 C 
BRANCH  25  26
HETATM   26  C11 UNL     1      23.302   7.657  50.632  1.00  0.00     0.193 C 
BRANCH  26  27
HETATM   27  O4  UNL     1      21.968   7.449  50.903  1.00  0.00    -0.394 OA
HETATM   28  C12 UNL     1      21.594   6.143  51.066  1.00  0.00     0.201 C 
ENDBRANCH  26  27
ENDBRANCH  25  26
ENDBRANCH  24  25
ENDBRANCH   6  24
TORSDOF 8
ENDMDL
MODEL 7
REMARK VINA RESULT:      -6.2      2.494      3.859
REMARK  8 active torsions:
REMARK  status: ('A' for Active; 'I' for Inactive)
REMARK    1  A    between atoms: O1_2  and  C2_3 
REMARK    2  A    between atoms: C2_3  and  C3_4 
REMARK    3  A    between atoms: C3_4  and  O2_5 
REMARK    4  A    between atoms: O2_5  and  C4_6 
REMARK    5  A    between atoms: C9_11  and  O3_12 
REMARK    6  A    between atoms: O3_12  and  C10_13 
REMARK    7  A    between atoms: C10_13  and  C11_14 
REMARK    8  A    between atoms: C11_14  and  O4_15 
ROOT
HETATM    1  C4  UNL     1      23.791   1.725  51.427  1.00  0.00     0.104 A 
HETATM    2  C5  UNL     1      23.373   2.537  50.392  1.00  0.00     0.073 A 
HETATM    3  C6  UNL     1      22.030   2.736  50.146  1.00  0.00     0.085 A 
HETATM    4  C7  UNL     1      21.017   2.142  50.908  1.00  0.00     0.063 A 
HETATM    5  C8  UNL     1      21.518   1.349  51.919  1.00  0.00     0.071 A 
HETATM    6  C9  UNL     1      22.830   1.089  52.244  1.00  0.00     0.104 A 
HETATM    7  N1  UNL     1      19.573   2.040  51.002  1.00  0.00    -0.364 N 
HETATM    8  C13 UNL     1      19.612   0.790  51.661  1.00  0.00     0.151 C 
HETATM    9  C14 UNL     1      18.373   0.048  51.087  1.00  0.00    -0.007 C 
HETATM   10  C15 UNL     1      17.104   0.431  50.983  1.00  0.00    -0.002 C 
HETATM   11  C16 UNL     1      16.632   1.763  51.441  1.00  0.00     0.004 C 
HETATM   12  C17 UNL     1      17.301   2.913  51.248  1.00  0.00    -0.058 C 
HETATM   13  C18 UNL     1      16.656   4.128  51.785  1.00  0.00     0.046 C 
HETATM   14  C19 UNL     1      18.609   2.983  50.519  1.00  0.00     0.137 C 
HETATM   15  C20 UNL     1      19.005   4.348  50.262  1.00  0.00     0.004 C 
HETATM   16  C21 UNL     1      19.887   5.131  49.658  1.00  0.00     0.017 C 
HETATM   17  C22 UNL     1      21.041   4.641  48.852  1.00  0.00     0.117 C 
HETATM   18  N2  UNL     1      21.920   3.667  49.039  1.00  0.00    -0.259 NA
ENDROOT
BRANCH   1  19
HETATM   19  O2  UNL     1      25.099   1.532  51.668  1.00  0.00    -0.346 OA
BRANCH  19  20
HETATM   20  C3  UNL     1      26.105   2.259  52.243  1.00  0.00     0.201 C 
BRANCH  20  21
HETATM   21  C2  UNL     1      26.132   2.302  53.754  1.00  0.00     0.193 C 
BRANCH  21  22
HETATM   22  O1  UNL     1      27.350   1.865  54.244  1.00  0.00    -0.394 OA
HETATM   23  C1  UNL     1      28.428   2.324  53.533  1.00  0.00     0.201 C 
ENDBRANCH  21  22
ENDBRANCH  20  21
ENDBRANCH  19  20
ENDBRANCH   1  19
BRANCH   6  24
HETATM   24  O3  UNL     1      23.379   0.327  53.209  1.00  0.00    -0.346 OA
BRANCH  24  25
HETATM   25  C10 UNL     1      23.123  -0.990  53.563  1.00  0.00     0.201 C 
BRANCH  25  26
HETATM   26  C11 UNL     1      22.897  -1.220  55.039  1.00  0.00     0.193 C 
BRANCH  26  27
HETATM   27  O4  UNL     1      21.606  -1.644  55.263  1.00  0.00    -0.394 OA
HETATM   28  C12 UNL     1      20.777  -1.612  54.176  1.00  0.00     0.201 C 
ENDBRANCH  26  27
ENDBRANCH  25  26
ENDBRANCH  24  25
ENDBRANCH   6  24
TORSDOF 8
ENDMDL
MODEL 8
REMARK VINA RESULT:      -6.2      7.027     10.189
REMARK  8 active torsions:
REMARK  status: ('A' for Active; 'I' for Inactive)
REMARK    1  A    between atoms: O1_2  and  C2_3 
REMARK    2  A    between atoms: C2_3  and  C3_4 
REMARK    3  A    between atoms: C3_4  and  O2_5 
REMARK    4  A    between atoms: O2_5  and  C4_6 
REMARK    5  A    between atoms: C9_11  and  O3_12 
REMARK    6  A    between atoms: O3_12  and  C10_13 
REMARK    7  A    between atoms: C10_13  and  C11_14 
REMARK    8  A    between atoms: C11_14  and  O4_15 
ROOT
HETATM    1  C4  UNL     1      29.073   7.675  48.568  1.00  0.00     0.104 A 
HETATM    2  C5  UNL     1      30.234   8.420  48.537  1.00  0.00     0.073 A 
HETATM    3  C6  UNL     1      31.406   7.886  48.042  1.00  0.00     0.085 A 
HETATM    4  C7  UNL     1      31.501   6.579  47.548  1.00  0.00     0.063 A 
HETATM    5  C8  UNL     1      30.300   5.905  47.613  1.00  0.00     0.071 A 
HETATM    6  C9  UNL     1      29.084   6.347  48.086  1.00  0.00     0.104 A 
HETATM    7  N1  UNL     1      32.454   5.638  46.992  1.00  0.00    -0.364 N 
HETATM    8  C13 UNL     1      31.716   4.505  47.406  1.00  0.00     0.151 C 
HETATM    9  C14 UNL     1      32.822   3.479  47.781  1.00  0.00    -0.007 C 
HETATM   10  C15 UNL     1      33.887   3.065  47.101  1.00  0.00    -0.002 C 
HETATM   11  C16 UNL     1      34.217   3.574  45.746  1.00  0.00     0.004 C 
HETATM   12  C17 UNL     1      34.117   4.863  45.374  1.00  0.00    -0.058 C 
HETATM   13  C18 UNL     1      34.493   5.157  43.977  1.00  0.00     0.046 C 
HETATM   14  C19 UNL     1      33.672   5.948  46.307  1.00  0.00     0.137 C 
HETATM   15  C20 UNL     1      33.858   7.258  45.728  1.00  0.00     0.004 C 
HETATM   16  C21 UNL     1      33.795   8.564  45.945  1.00  0.00     0.017 C 
HETATM   17  C22 UNL     1      33.389   9.188  47.235  1.00  0.00     0.117 C 
HETATM   18  N2  UNL     1      32.419   8.921  48.099  1.00  0.00    -0.259 NA
ENDROOT
BRANCH   1  19
HETATM   19  O2  UNL     1      27.931   8.196  49.049  1.00  0.00    -0.346 OA
BRANCH  19  20
HETATM   20  C3  UNL     1      27.582   9.336  49.722  1.00  0.00     0.201 C 
BRANCH  20  21
HETATM   21  C2  UNL     1      27.139  10.510  48.880  1.00  0.00     0.193 C 
BRANCH  21  22
HETATM   22  O1  UNL     1      27.850  11.653  49.204  1.00  0.00    -0.394 OA
HETATM   23  C1  UNL     1      28.803  11.990  48.278  1.00  0.00     0.201 C 
ENDBRANCH  21  22
ENDBRANCH  20  21
ENDBRANCH  19  20
ENDBRANCH   1  19
BRANCH   6  24
HETATM   24  O3  UNL     1      27.886   5.741  48.180  1.00  0.00    -0.346 OA
BRANCH  24  25
HETATM   25  C10 UNL     1      27.510   4.606  48.884  1.00  0.00     0.201 C 
BRANCH  25  26
HETATM   26  C11 UNL     1      26.094   4.626  49.412  1.00  0.00     0.193 C 
BRANCH  26  27
HETATM   27  O4  UNL     1      25.855   3.503  50.175  1.00  0.00    -0.394 OA
HETATM   28  C12 UNL     1      24.553   3.307  50.546  1.00  0.00     0.201 C 
ENDBRANCH  26  27
ENDBRANCH  25  26
ENDBRANCH  24  25
ENDBRANCH   6  24
TORSDOF 8
ENDMDL
MODEL 9
REMARK VINA RESULT:      -6.1      3.342      4.896
REMARK  8 active torsions:
REMARK  status: ('A' for Active; 'I' for Inactive)
REMARK    1  A    between atoms: O1_2  and  C2_3 
REMARK    2  A    between atoms: C2_3  and  C3_4 
REMARK    3  A    between atoms: C3_4  and  O2_5 
REMARK    4  A    between atoms: O2_5  and  C4_6 
REMARK    5  A    between atoms: C9_11  and  O3_12 
REMARK    6  A    between atoms: O3_12  and  C10_13 
REMARK    7  A    between atoms: C10_13  and  C11_14 
REMARK    8  A    between atoms: C11_14  and  O4_15 
ROOT
HETATM    1  C4  UNL     1      25.521   3.627  50.435  1.00  0.00     0.104 A 
HETATM    2  C5  UNL     1      26.707   3.795  49.751  1.00  0.00     0.073 A 
HETATM    3  C6  UNL     1      26.898   4.882  48.922  1.00  0.00     0.085 A 
HETATM    4  C7  UNL     1      25.926   5.869  48.719  1.00  0.00     0.063 A 
HETATM    5  C8  UNL     1      24.775   5.627  49.438  1.00  0.00     0.071 A 
HETATM    6  C9  UNL     1      24.489   4.580  50.286  1.00  0.00     0.104 A 
HETATM    7  N1  UNL     1      25.680   7.090  47.975  1.00  0.00    -0.364 N 
HETATM    8  C13 UNL     1      24.275   6.933  48.005  1.00  0.00     0.151 C 
HETATM    9  C14 UNL     1      23.827   7.483  46.622  1.00  0.00    -0.007 C 
HETATM   10  C15 UNL     1      24.111   8.630  46.012  1.00  0.00    -0.002 C 
HETATM   11  C16 UNL     1      24.993   9.660  46.617  1.00  0.00     0.004 C 
HETATM   12  C17 UNL     1      26.133   9.390  47.278  1.00  0.00    -0.058 C 
HETATM   13  C18 UNL     1      26.861  10.561  47.805  1.00  0.00     0.046 C 
HETATM   14  C19 UNL     1      26.659   7.998  47.461  1.00  0.00     0.137 C 
HETATM   15  C20 UNL     1      27.995   8.000  48.009  1.00  0.00     0.004 C 
HETATM   16  C21 UNL     1      29.042   7.254  48.334  1.00  0.00     0.017 C 
HETATM   17  C22 UNL     1      29.112   5.777  48.160  1.00  0.00     0.117 C 
HETATM   18  N2  UNL     1      28.247   4.800  48.394  1.00  0.00    -0.259 NA
ENDROOT
BRANCH   1  19
HETATM   19  O2  UNL     1      25.335   2.570  51.244  1.00  0.00    -0.346 OA
BRANCH  19  20
HETATM   20  C3  UNL     1      25.779   2.195  52.483  1.00  0.00     0.201 C 
BRANCH  20  21
HETATM   21  C2  UNL     1      27.120   1.499  52.540  1.00  0.00     0.193 C 
BRANCH  21  22
HETATM   22  O1  UNL     1      28.153   2.413  52.654  1.00  0.00    -0.394 OA
HETATM   23  C1  UNL     1      28.867   2.294  53.817  1.00  0.00     0.201 C 
ENDBRANCH  21  22
ENDBRANCH  20  21
ENDBRANCH  19  20
ENDBRANCH   1  19
BRANCH   6  24
HETATM   24  O3  UNL     1      23.392   4.287  51.009  1.00  0.00    -0.346 OA
BRANCH  24  25
HETATM   25  C10 UNL     1      22.051   4.508  50.727  1.00  0.00     0.201 C 
BRANCH  25  26
HETATM   26  C11 UNL     1      21.095   4.100  51.825  1.00  0.00     0.193 C 
BRANCH  26  27
HETATM   27  O4  UNL     1      20.592   2.842  51.575  1.00  0.00    -0.394 OA
HETATM   28  C12 UNL     1      20.250   2.112  52.680  1.00  0.00     0.201 C 
ENDBRANCH  26  27
ENDBRANCH  25  26
ENDBRANCH  24  25
ENDBRANCH   6  24
TORSDOF 8
ENDMDL
