MODEL 1
REMARK VINA RESULT:      -6.9      0.000      0.000
REMARK  7 active torsions:
REMARK  status: ('A' for Active; 'I' for Inactive)
REMARK    1  A    between atoms: C2_2  and  C3_3 
REMARK    2  A    between atoms: C3_3  and  C4_4 
REMARK    3  A    between atoms: C4_4  and  O1_5 
REMARK    4  A    between atoms: O1_5  and  C5_6 
REMARK    5  A    between atoms: C7_10  and  N3_11 
REMARK    6  A    between atoms: N3_11  and  C8_12 
REMARK    7  A    between atoms: C14_19  and  N4_20 
ROOT
HETATM    1  C5  UNL     1      26.566   0.336  54.494  1.00  0.00     0.195 A 
HETATM    2  N1  UNL     1      25.842  -0.797  54.494  1.00  0.00    -0.216 NA
HETATM    3  C6  UNL     1      24.580  -0.783  53.976  1.00  0.00     0.238 A 
HETATM    4  N2  UNL     1      24.054   0.347  53.466  1.00  0.00    -0.222 NA
HETATM    5  C7  UNL     1      24.734   1.509  53.439  1.00  0.00     0.155 A 
HETATM    6  C14 UNL     1      26.026   1.496  53.969  1.00  0.00     0.106 A 
ENDROOT
BRANCH   5   7
HETATM    7  N3  UNL     1      24.157   2.715  52.890  1.00  0.00    -0.339 N 
HETATM    8  H7  UNL     1      23.942   3.522  53.517  1.00  0.00     0.167 HD
BRANCH   7   9
HETATM    9  C8  UNL     1      23.904   2.751  51.517  1.00  0.00     0.035 A 
HETATM   10  C9  UNL     1      24.695   3.495  50.672  1.00  0.00     0.029 A 
HETATM   11  C10 UNL     1      24.390   3.483  49.325  1.00  0.00     0.004 A 
HETATM   12  C11 UNL     1      23.339   2.764  48.816  1.00  0.00     0.024 A 
HETATM   13  C12 UNL     1      22.528   2.007  49.643  1.00  0.00     0.036 A 
HETATM   14 CL1  UNL     1      21.180   1.079  49.023  1.00  0.00    -0.084 Cl
HETATM   15  C13 UNL     1      22.848   2.028  51.005  1.00  0.00     0.053 A 
ENDBRANCH   7   9
ENDBRANCH   5   7
BRANCH   6  16
HETATM   16  N4  UNL     1      26.697   2.758  53.911  1.00  0.00    -0.296 NA
HETATM   17  H12 UNL     1      26.136   3.553  53.479  1.00  0.00     0.124 HD
HETATM   18  H13 UNL     1      26.168   3.563  53.489  1.00  0.00     0.124 HD
ENDBRANCH   6  16
BRANCH   1  19
HETATM   19  O1  UNL     1      27.850   0.593  54.950  1.00  0.00    -0.303 OA
BRANCH  19  20
HETATM   20  C4  UNL     1      28.963   0.156  54.296  1.00  0.00     0.144 C 
BRANCH  20  21
HETATM   21  C3  UNL     1      29.859  -0.520  53.642  1.00  0.00     0.021 C 
BRANCH  21  22
HETATM   22  C2  UNL     1      29.804  -1.943  53.489  1.00  0.00    -0.024 C 
HETATM   23  C1  UNL     1      28.690  -2.425  53.011  1.00  0.00     0.031 C 
ENDBRANCH  21  22
ENDBRANCH  20  21
ENDBRANCH  19  20
ENDBRANCH   1  19
TORSDOF 7
ENDMDL
MODEL 2
REMARK VINA RESULT:      -6.8      2.974      6.226
REMARK  7 active torsions:
REMARK  status: ('A' for Active; 'I' for Inactive)
REMARK    1  A    between atoms: C2_2  and  C3_3 
REMARK    2  A    between atoms: C3_3  and  C4_4 
REMARK    3  A    between atoms: C4_4  and  O1_5 
REMARK    4  A    between atoms: O1_5  and  C5_6 
REMARK    5  A    between atoms: C7_10  and  N3_11 
REMARK    6  A    between atoms: N3_11  and  C8_12 
REMARK    7  A    between atoms: C14_19  and  N4_20 
ROOT
HETATM    1  C5  UNL     1      24.782   3.001  50.695  1.00  0.00     0.195 A 
HETATM    2  N1  UNL     1      23.527   2.732  51.090  1.00  0.00    -0.216 NA
HETATM    3  C6  UNL     1      23.301   2.335  52.376  1.00  0.00     0.238 A 
HETATM    4  N2  UNL     1      24.319   2.211  53.250  1.00  0.00    -0.222 NA
HETATM    5  C7  UNL     1      25.596   2.467  52.908  1.00  0.00     0.155 A 
HETATM    6  C14 UNL     1      25.827   2.874  51.592  1.00  0.00     0.106 A 
ENDROOT
BRANCH   5   7
HETATM    7  N3  UNL     1      26.679   2.329  53.855  1.00  0.00    -0.339 N 
HETATM    8  H7  UNL     1      26.797   3.032  54.619  1.00  0.00     0.167 HD
BRANCH   7   9
HETATM    9  C8  UNL     1      27.542   1.241  53.705  1.00  0.00     0.035 A 
HETATM   10  C9  UNL     1      28.879   1.352  54.012  1.00  0.00     0.029 A 
HETATM   11  C10 UNL     1      29.675   0.237  53.842  1.00  0.00     0.004 A 
HETATM   12  C11 UNL     1      29.180  -0.957  53.384  1.00  0.00     0.024 A 
HETATM   13  C12 UNL     1      27.839  -1.096  53.067  1.00  0.00     0.036 A 
HETATM   14 CL1  UNL     1      27.177  -2.605  52.479  1.00  0.00    -0.084 Cl
HETATM   15  C13 UNL     1      27.044   0.041  53.243  1.00  0.00     0.053 A 
ENDBRANCH   7   9
ENDBRANCH   5   7
BRANCH   6  16
HETATM   16  N4  UNL     1      27.202   3.132  51.291  1.00  0.00    -0.296 NA
HETATM   17  H12 UNL     1      27.906   2.639  51.917  1.00  0.00     0.124 HD
HETATM   18  H13 UNL     1      27.922   2.658  51.893  1.00  0.00     0.124 HD
ENDBRANCH   6  16
BRANCH   1  19
HETATM   19  O1  UNL     1      25.279   3.414  49.468  1.00  0.00    -0.303 OA
BRANCH  19  20
HETATM   20  C4  UNL     1      25.424   4.729  49.140  1.00  0.00     0.144 C 
BRANCH  20  21
HETATM   21  C3  UNL     1      25.863   5.913  48.836  1.00  0.00     0.021 C 
BRANCH  21  22
HETATM   22  C2  UNL     1      27.234   6.179  48.519  1.00  0.00    -0.024 C 
HETATM   23  C1  UNL     1      28.025   5.141  48.485  1.00  0.00     0.031 C 
ENDBRANCH  21  22
ENDBRANCH  20  21
ENDBRANCH  19  20
ENDBRANCH   1  19
TORSDOF 7
ENDMDL
MODEL 3
REMARK VINA RESULT:      -6.6      2.973      3.837
REMARK  7 active torsions:
REMARK  status: ('A' for Active; 'I' for Inactive)
REMARK    1  A    between atoms: C2_2  and  C3_3 
REMARK    2  A    between atoms: C3_3  and  C4_4 
REMARK    3  A    between atoms: C4_4  and  O1_5 
REMARK    4  A    between atoms: O1_5  and  C5_6 
REMARK    5  A    between atoms: C7_10  and  N3_11 
REMARK    6  A    between atoms: N3_11  and  C8_12 
REMARK    7  A    between atoms: C14_19  and  N4_20 
ROOT
HETATM    1  C5  UNL     1      25.534   2.174  53.139  1.00  0.00     0.195 A 
HETATM    2  N1  UNL     1      24.203   2.010  53.068  1.00  0.00    -0.216 NA
HETATM    3  C6  UNL     1      23.569   2.194  51.874  1.00  0.00     0.238 A 
HETATM    4  N2  UNL     1      24.261   2.535  50.769  1.00  0.00    -0.222 NA
HETATM    5  C7  UNL     1      25.596   2.712  50.783  1.00  0.00     0.155 A 
HETATM    6  C14 UNL     1      26.245   2.524  52.005  1.00  0.00     0.106 A 
ENDROOT
BRANCH   5   7
HETATM    7  N3  UNL     1      26.326   3.079  49.591  1.00  0.00    -0.339 N 
HETATM    8  H7  UNL     1      26.681   2.337  48.947  1.00  0.00     0.167 HD
BRANCH   7   9
HETATM    9  C8  UNL     1      26.534   4.438  49.346  1.00  0.00     0.035 A 
HETATM   10  C9  UNL     1      27.621   4.868  48.619  1.00  0.00     0.029 A 
HETATM   11  C10 UNL     1      27.764   6.225  48.412  1.00  0.00     0.004 A 
HETATM   12  C11 UNL     1      26.869   7.142  48.903  1.00  0.00     0.024 A 
HETATM   13  C12 UNL     1      25.768   6.737  49.638  1.00  0.00     0.036 A 
HETATM   14 CL1  UNL     1      24.610   7.882  50.278  1.00  0.00    -0.084 Cl
HETATM   15  C13 UNL     1      25.635   5.360  49.840  1.00  0.00     0.053 A 
ENDBRANCH   7   9
ENDBRANCH   5   7
BRANCH   6  16
HETATM   16  N4  UNL     1      27.661   2.724  51.955  1.00  0.00    -0.296 NA
HETATM   17  H12 UNL     1      28.220   1.920  51.538  1.00  0.00     0.124 HD
HETATM   18  H13 UNL     1      28.240   1.947  51.547  1.00  0.00     0.124 HD
ENDBRANCH   6  16
BRANCH   1  19
HETATM   19  O1  UNL     1      26.408   2.051  54.208  1.00  0.00    -0.303 OA
BRANCH  19  20
HETATM   20  C4  UNL     1      27.072   0.893  54.485  1.00  0.00     0.144 C 
BRANCH  20  21
HETATM   21  C3  UNL     1      27.917  -0.092  54.557  1.00  0.00     0.021 C 
BRANCH  21  22
HETATM   22  C2  UNL     1      28.622  -0.599  53.419  1.00  0.00    -0.024 C 
HETATM   23  C1  UNL     1      29.898  -0.816  53.586  1.00  0.00     0.031 C 
ENDBRANCH  21  22
ENDBRANCH  20  21
ENDBRANCH  19  20
ENDBRANCH   1  19
TORSDOF 7
ENDMDL
MODEL 4
REMARK VINA RESULT:      -6.6      2.148      3.417
REMARK  7 active torsions:
REMARK  status: ('A' for Active; 'I' for Inactive)
REMARK    1  A    between atoms: C2_2  and  C3_3 
REMARK    2  A    between atoms: C3_3  and  C4_4 
REMARK    3  A    between atoms: C4_4  and  O1_5 
REMARK    4  A    between atoms: O1_5  and  C5_6 
REMARK    5  A    between atoms: C7_10  and  N3_11 
REMARK    6  A    between atoms: N3_11  and  C8_12 
REMARK    7  A    between atoms: C14_19  and  N4_20 
ROOT
HETATM    1  C5  UNL     1      26.156   1.259  54.289  1.00  0.00     0.195 A 
HETATM    2  N1  UNL     1      25.843   2.471  53.803  1.00  0.00    -0.216 NA
HETATM    3  C6  UNL     1      24.703   2.624  53.068  1.00  0.00     0.238 A 
HETATM    4  N2  UNL     1      23.891   1.577  52.827  1.00  0.00    -0.222 NA
HETATM    5  C7  UNL     1      24.156   0.339  53.289  1.00  0.00     0.155 A 
HETATM    6  C14 UNL     1      25.322   0.183  54.041  1.00  0.00     0.106 A 
ENDROOT
BRANCH   5   7
HETATM    7  N3  UNL     1      23.277  -0.776  53.022  1.00  0.00    -0.339 N 
HETATM    8  H7  UNL     1      23.661  -1.747  52.992  1.00  0.00     0.167 HD
BRANCH   7   9
HETATM    9  C8  UNL     1      21.924  -0.504  52.808  1.00  0.00     0.035 A 
HETATM   10  C9  UNL     1      20.983  -0.795  53.769  1.00  0.00     0.029 A 
HETATM   11  C10 UNL     1      19.664  -0.499  53.494  1.00  0.00     0.004 A 
HETATM   12  C11 UNL     1      19.271   0.068  52.308  1.00  0.00     0.024 A 
HETATM   13  C12 UNL     1      20.195   0.371  51.323  1.00  0.00     0.036 A 
HETATM   14 CL1  UNL     1      19.725   1.094  49.801  1.00  0.00    -0.084 Cl
HETATM   15  C13 UNL     1      21.529   0.065  51.616  1.00  0.00     0.053 A 
ENDBRANCH   7   9
ENDBRANCH   5   7
BRANCH   6  16
HETATM   16  N4  UNL     1      25.547  -1.152  54.505  1.00  0.00    -0.296 NA
HETATM   17  H12 UNL     1      24.863  -1.499  55.242  1.00  0.00     0.124 HD
HETATM   18  H13 UNL     1      24.887  -1.523  55.234  1.00  0.00     0.124 HD
ENDBRANCH   6  16
BRANCH   1  19
HETATM   19  O1  UNL     1      27.234   0.836  55.051  1.00  0.00    -0.303 OA
BRANCH  19  20
HETATM   20  C4  UNL     1      28.408   0.422  54.496  1.00  0.00     0.144 C 
BRANCH  20  21
HETATM   21  C3  UNL     1      29.614   0.320  54.022  1.00  0.00     0.021 C 
BRANCH  21  22
HETATM   22  C2  UNL     1      30.110  -0.872  53.403  1.00  0.00    -0.024 C 
HETATM   23  C1  UNL     1      29.279  -1.877  53.348  1.00  0.00     0.031 C 
ENDBRANCH  21  22
ENDBRANCH  20  21
ENDBRANCH  19  20
ENDBRANCH   1  19
TORSDOF 7
ENDMDL
MODEL 5
REMARK VINA RESULT:      -6.6      3.344      5.183
REMARK  7 active torsions:
REMARK  status: ('A' for Active; 'I' for Inactive)
REMARK    1  A    between atoms: C2_2  and  C3_3 
REMARK    2  A    between atoms: C3_3  and  C4_4 
REMARK    3  A    between atoms: C4_4  and  O1_5 
REMARK    4  A    between atoms: O1_5  and  C5_6 
REMARK    5  A    between atoms: C7_10  and  N3_11 
REMARK    6  A    between atoms: N3_11  and  C8_12 
REMARK    7  A    between atoms: C14_19  and  N4_20 
ROOT
HETATM    1  C5  UNL     1      25.129   1.822  52.909  1.00  0.00     0.195 A 
HETATM    2  N1  UNL     1      26.276   1.796  53.608  1.00  0.00    -0.216 NA
HETATM    3  C6  UNL     1      27.437   2.182  53.003  1.00  0.00     0.238 A 
HETATM    4  N2  UNL     1      27.445   2.587  51.719  1.00  0.00    -0.222 NA
HETATM    5  C7  UNL     1      26.326   2.633  50.971  1.00  0.00     0.155 A 
HETATM    6  C14 UNL     1      25.138   2.238  51.589  1.00  0.00     0.106 A 
ENDROOT
BRANCH   5   7
HETATM    7  N3  UNL     1      26.349   3.068  49.593  1.00  0.00    -0.339 N 
HETATM    8  H7  UNL     1      26.188   2.378  48.825  1.00  0.00     0.167 HD
BRANCH   7   9
HETATM    9  C8  UNL     1      26.594   4.419  49.340  1.00  0.00     0.035 A 
HETATM   10  C9  UNL     1      27.687   4.814  48.603  1.00  0.00     0.029 A 
HETATM   11  C10 UNL     1      27.868   6.165  48.388  1.00  0.00     0.004 A 
HETATM   12  C11 UNL     1      27.003   7.110  48.880  1.00  0.00     0.024 A 
HETATM   13  C12 UNL     1      25.896   6.741  49.624  1.00  0.00     0.036 A 
HETATM   14 CL1  UNL     1      24.775   7.921  50.265  1.00  0.00    -0.084 Cl
HETATM   15  C13 UNL     1      25.725   5.368  49.834  1.00  0.00     0.053 A 
ENDBRANCH   7   9
ENDBRANCH   5   7
BRANCH   6  16
HETATM   16  N4  UNL     1      23.985   2.309  50.745  1.00  0.00    -0.296 NA
HETATM   17  H12 UNL     1      23.117   2.730  51.195  1.00  0.00     0.124 HD
HETATM   18  H13 UNL     1      23.111   2.721  51.162  1.00  0.00     0.124 HD
ENDBRANCH   6  16
BRANCH   1  19
HETATM   19  O1  UNL     1      23.835   1.487  53.275  1.00  0.00    -0.303 OA
BRANCH  19  20
HETATM   20  C4  UNL     1      23.440   0.200  53.486  1.00  0.00     0.144 C 
BRANCH  20  21
HETATM   21  C3  UNL     1      22.783  -0.912  53.627  1.00  0.00     0.021 C 
BRANCH  21  22
HETATM   22  C2  UNL     1      21.693  -1.064  54.543  1.00  0.00    -0.024 C 
HETATM   23  C1  UNL     1      20.997   0.012  54.787  1.00  0.00     0.031 C 
ENDBRANCH  21  22
ENDBRANCH  20  21
ENDBRANCH  19  20
ENDBRANCH   1  19
TORSDOF 7
ENDMDL
MODEL 6
REMARK VINA RESULT:      -6.5      1.805      2.195
REMARK  7 active torsions:
REMARK  status: ('A' for Active; 'I' for Inactive)
REMARK    1  A    between atoms: C2_2  and  C3_3 
REMARK    2  A    between atoms: C3_3  and  C4_4 
REMARK    3  A    between atoms: C4_4  and  O1_5 
REMARK    4  A    between atoms: O1_5  and  C5_6 
REMARK    5  A    between atoms: C7_10  and  N3_11 
REMARK    6  A    between atoms: N3_11  and  C8_12 
REMARK    7  A    between atoms: C14_19  and  N4_20 
ROOT
HETATM    1  C5  UNL     1      26.531   0.776  54.157  1.00  0.00     0.195 A 
HETATM    2  N1  UNL     1      26.026  -0.296  54.791  1.00  0.00    -0.216 NA
HETATM    3  C6  UNL     1      24.834  -0.816  54.379  1.00  0.00     0.238 A 
HETATM    4  N2  UNL     1      24.161  -0.271  53.347  1.00  0.00    -0.222 NA
HETATM    5  C7  UNL     1      24.621   0.802  52.675  1.00  0.00     0.155 A 
HETATM    6  C14 UNL     1      25.840   1.335  53.097  1.00  0.00     0.106 A 
ENDROOT
BRANCH   5   7
HETATM    7  N3  UNL     1      23.888   1.378  51.571  1.00  0.00    -0.339 N 
HETATM    8  H7  UNL     1      24.353   1.498  50.643  1.00  0.00     0.167 HD
BRANCH   7   9
HETATM    9  C8  UNL     1      22.564   1.761  51.795  1.00  0.00     0.035 A 
HETATM   10  C9  UNL     1      22.260   3.025  52.247  1.00  0.00     0.029 A 
HETATM   11  C10 UNL     1      20.930   3.338  52.445  1.00  0.00     0.004 A 
HETATM   12  C11 UNL     1      19.921   2.439  52.208  1.00  0.00     0.024 A 
HETATM   13  C12 UNL     1      20.198   1.162  51.753  1.00  0.00     0.036 A 
HETATM   14 CL1  UNL     1      18.933  -0.006  51.443  1.00  0.00    -0.084 Cl
HETATM   15  C13 UNL     1      21.550   0.858  51.557  1.00  0.00     0.053 A 
ENDBRANCH   7   9
ENDBRANCH   5   7
BRANCH   6  16
HETATM   16  N4  UNL     1      26.276   2.472  52.344  1.00  0.00    -0.296 NA
HETATM   17  H12 UNL     1      26.222   3.404  52.856  1.00  0.00     0.124 HD
HETATM   18  H13 UNL     1      26.235   3.407  52.823  1.00  0.00     0.124 HD
ENDBRANCH   6  16
BRANCH   1  19
HETATM   19  O1  UNL     1      27.701   1.489  54.370  1.00  0.00    -0.303 OA
BRANCH  19  20
HETATM   20  C4  UNL     1      28.920   1.038  53.962  1.00  0.00     0.144 C 
BRANCH  20  21
HETATM   21  C3  UNL     1      29.965   0.331  53.650  1.00  0.00     0.021 C 
BRANCH  21  22
HETATM   22  C2  UNL     1      30.014  -1.093  53.790  1.00  0.00    -0.024 C 
HETATM   23  C1  UNL     1      29.051  -1.758  53.214  1.00  0.00     0.031 C 
ENDBRANCH  21  22
ENDBRANCH  20  21
ENDBRANCH  19  20
ENDBRANCH   1  19
TORSDOF 7
ENDMDL
MODEL 7
REMARK VINA RESULT:      -6.3      2.776      6.396
REMARK  7 active torsions:
REMARK  status: ('A' for Active; 'I' for Inactive)
REMARK    1  A    between atoms: C2_2  and  C3_3 
REMARK    2  A    between atoms: C3_3  and  C4_4 
REMARK    3  A    between atoms: C4_4  and  O1_5 
REMARK    4  A    between atoms: O1_5  and  C5_6 
REMARK    5  A    between atoms: C7_10  and  N3_11 
REMARK    6  A    between atoms: N3_11  and  C8_12 
REMARK    7  A    between atoms: C14_19  and  N4_20 
ROOT
HETATM    1  C5  UNL     1      23.940   3.102  51.109  1.00  0.00     0.195 A 
HETATM    2  N1  UNL     1      23.064   2.422  51.866  1.00  0.00    -0.216 NA
HETATM    3  C6  UNL     1      23.506   1.777  52.985  1.00  0.00     0.238 A 
HETATM    4  N2  UNL     1      24.805   1.816  53.337  1.00  0.00    -0.222 NA
HETATM    5  C7  UNL     1      25.727   2.483  52.615  1.00  0.00     0.155 A 
HETATM    6  C14 UNL     1      25.275   3.142  51.470  1.00  0.00     0.106 A 
ENDROOT
BRANCH   5   7
HETATM    7  N3  UNL     1      27.119   2.516  53.003  1.00  0.00    -0.339 N 
HETATM    8  H7  UNL     1      27.592   3.432  53.170  1.00  0.00     0.167 HD
BRANCH   7   9
HETATM    9  C8  UNL     1      27.787   1.297  53.139  1.00  0.00     0.035 A 
HETATM   10  C9  UNL     1      29.051   1.240  53.680  1.00  0.00     0.029 A 
HETATM   11  C10 UNL     1      29.653   0.002  53.788  1.00  0.00     0.004 A 
HETATM   12  C11 UNL     1      29.037  -1.152  53.376  1.00  0.00     0.024 A 
HETATM   13  C12 UNL     1      27.766  -1.124  52.828  1.00  0.00     0.036 A 
HETATM   14 CL1  UNL     1      26.955  -2.579  52.294  1.00  0.00    -0.084 Cl
HETATM   15  C13 UNL     1      27.168   0.136  52.725  1.00  0.00     0.053 A 
ENDBRANCH   7   9
ENDBRANCH   5   7
BRANCH   6  16
HETATM   16  N4  UNL     1      26.298   3.833  50.747  1.00  0.00    -0.296 NA
HETATM   17  H12 UNL     1      26.019   4.177  49.780  1.00  0.00     0.124 HD
HETATM   18  H13 UNL     1      26.052   4.185  49.788  1.00  0.00     0.124 HD
ENDBRANCH   6  16
BRANCH   1  19
HETATM   19  O1  UNL     1      23.758   3.831  49.943  1.00  0.00    -0.303 OA
BRANCH  19  20
HETATM   20  C4  UNL     1      23.004   3.377  48.903  1.00  0.00     0.144 C 
BRANCH  20  21
HETATM   21  C3  UNL     1      22.526   2.754  47.868  1.00  0.00     0.021 C 
BRANCH  21  22
HETATM   22  C2  UNL     1      21.981   1.432  47.936  1.00  0.00    -0.024 C 
HETATM   23  C1  UNL     1      21.283   1.155  49.004  1.00  0.00     0.031 C 
ENDBRANCH  21  22
ENDBRANCH  20  21
ENDBRANCH  19  20
ENDBRANCH   1  19
TORSDOF 7
ENDMDL
MODEL 8
REMARK VINA RESULT:      -6.3      3.646      7.118
REMARK  7 active torsions:
REMARK  status: ('A' for Active; 'I' for Inactive)
REMARK    1  A    between atoms: C2_2  and  C3_3 
REMARK    2  A    between atoms: C3_3  and  C4_4 
REMARK    3  A    between atoms: C4_4  and  O1_5 
REMARK    4  A    between atoms: O1_5  and  C5_6 
REMARK    5  A    between atoms: C7_10  and  N3_11 
REMARK    6  A    between atoms: N3_11  and  C8_12 
REMARK    7  A    between atoms: C14_19  and  N4_20 
ROOT
HETATM    1  C5  UNL     1      22.679   0.822  52.877  1.00  0.00     0.195 A 
HETATM    2  N1  UNL     1      23.163   1.621  51.911  1.00  0.00    -0.216 NA
HETATM    3  C6  UNL     1      24.490   1.563  51.599  1.00  0.00     0.238 A 
HETATM    4  N2  UNL     1      25.316   0.718  52.244  1.00  0.00    -0.222 NA
HETATM    5  C7  UNL     1      24.886  -0.105  53.220  1.00  0.00     0.155 A 
HETATM    6  C14 UNL     1      23.528  -0.046  53.540  1.00  0.00     0.106 A 
ENDROOT
BRANCH   5   7
HETATM    7  N3  UNL     1      25.783  -1.006  53.905  1.00  0.00    -0.339 N 
HETATM    8  H7  UNL     1      25.397  -1.797  54.469  1.00  0.00     0.167 HD
BRANCH   7   9
HETATM    9  C8  UNL     1      27.155  -0.777  53.786  1.00  0.00     0.035 A 
HETATM   10  C9  UNL     1      27.978  -1.702  53.186  1.00  0.00     0.029 A 
HETATM   11  C10 UNL     1      29.324  -1.411  53.099  1.00  0.00     0.004 A 
HETATM   12  C11 UNL     1      29.856  -0.244  53.587  1.00  0.00     0.024 A 
HETATM   13  C12 UNL     1      29.052   0.704  54.196  1.00  0.00     0.036 A 
HETATM   14 CL1  UNL     1      29.701   2.200  54.828  1.00  0.00    -0.084 Cl
HETATM   15  C13 UNL     1      27.690   0.395  54.277  1.00  0.00     0.053 A 
ENDBRANCH   7   9
ENDBRANCH   5   7
BRANCH   6  16
HETATM   16  N4  UNL     1      23.131  -0.944  54.581  1.00  0.00    -0.296 NA
HETATM   17  H12 UNL     1      23.532  -0.730  55.544  1.00  0.00     0.124 HD
HETATM   18  H13 UNL     1      23.511  -0.758  55.544  1.00  0.00     0.124 HD
ENDBRANCH   6  16
BRANCH   1  19
HETATM   19  O1  UNL     1      21.395   0.684  53.382  1.00  0.00    -0.303 OA
BRANCH  19  20
HETATM   20  C4  UNL     1      20.294   0.626  52.582  1.00  0.00     0.144 C 
BRANCH  20  21
HETATM   21  C3  UNL     1      19.427   0.397  51.641  1.00  0.00     0.021 C 
BRANCH  21  22
HETATM   22  C2  UNL     1      18.264  -0.416  51.833  1.00  0.00    -0.024 C 
HETATM   23  C1  UNL     1      18.173  -1.021  52.986  1.00  0.00     0.031 C 
ENDBRANCH  21  22
ENDBRANCH  20  21
ENDBRANCH  19  20
ENDBRANCH   1  19
TORSDOF 7
ENDMDL
MODEL 9
REMARK VINA RESULT:      -6.2      4.152      6.991
REMARK  7 active torsions:
REMARK  status: ('A' for Active; 'I' for Inactive)
REMARK    1  A    between atoms: C2_2  and  C3_3 
REMARK    2  A    between atoms: C3_3  and  C4_4 
REMARK    3  A    between atoms: C4_4  and  O1_5 
REMARK    4  A    between atoms: O1_5  and  C5_6 
REMARK    5  A    between atoms: C7_10  and  N3_11 
REMARK    6  A    between atoms: N3_11  and  C8_12 
REMARK    7  A    between atoms: C14_19  and  N4_20 
ROOT
HETATM    1  C5  UNL     1      21.643   0.085  53.951  1.00  0.00     0.195 A 
HETATM    2  N1  UNL     1      21.896  -0.738  54.982  1.00  0.00    -0.216 NA
HETATM    3  C6  UNL     1      23.169  -1.184  55.185  1.00  0.00     0.238 A 
HETATM    4  N2  UNL     1      24.172  -0.809  54.368  1.00  0.00    -0.222 NA
HETATM    5  C7  UNL     1      23.976   0.014  53.320  1.00  0.00     0.155 A 
HETATM    6  C14 UNL     1      22.673   0.471  53.112  1.00  0.00     0.106 A 
ENDROOT
BRANCH   5   7
HETATM    7  N3  UNL     1      25.060   0.408  52.450  1.00  0.00    -0.339 N 
HETATM    8  H7  UNL     1      24.858   0.933  51.570  1.00  0.00     0.167 HD
BRANCH   7   9
HETATM    9  C8  UNL     1      26.359   0.061  52.827  1.00  0.00     0.035 A 
HETATM   10  C9  UNL     1      26.842  -1.210  52.615  1.00  0.00     0.029 A 
HETATM   11  C10 UNL     1      28.135  -1.485  53.011  1.00  0.00     0.004 A 
HETATM   12  C11 UNL     1      28.940  -0.542  53.599  1.00  0.00     0.024 A 
HETATM   13  C12 UNL     1      28.480   0.744  53.824  1.00  0.00     0.036 A 
HETATM   14 CL1  UNL     1      29.481   1.968  54.573  1.00  0.00    -0.084 Cl
HETATM   15  C13 UNL     1      27.167   1.009  53.419  1.00  0.00     0.053 A 
ENDBRANCH   7   9
ENDBRANCH   5   7
BRANCH   6  16
HETATM   16  N4  UNL     1      22.529   1.342  51.986  1.00  0.00    -0.296 NA
HETATM   17  H12 UNL     1      22.770   2.363  52.167  1.00  0.00     0.124 HD
HETATM   18  H13 UNL     1      22.760   2.357  52.133  1.00  0.00     0.124 HD
ENDBRANCH   6  16
BRANCH   1  19
HETATM   19  O1  UNL     1      20.461   0.674  53.527  1.00  0.00    -0.303 OA
BRANCH  19  20
HETATM   20  C4  UNL     1      19.405  -0.052  53.065  1.00  0.00     0.144 C 
BRANCH  20  21
HETATM   21  C3  UNL     1      18.274  -0.464  52.573  1.00  0.00     0.021 C 
BRANCH  21  22
HETATM   22  C2  UNL     1      17.755  -1.778  52.807  1.00  0.00    -0.024 C 
HETATM   23  C1  UNL     1      18.150  -2.363  53.905  1.00  0.00     0.031 C 
ENDBRANCH  21  22
ENDBRANCH  20  21
ENDBRANCH  19  20
ENDBRANCH   1  19
TORSDOF 7
ENDMDL
