MODEL 1
REMARK VINA RESULT:      -7.2      0.000      0.000
REMARK  6 active torsions:
REMARK  status: ('A' for Active; 'I' for Inactive)
REMARK    1  A    between atoms: C5_5  and  C6_6 
REMARK    2  A    between atoms: C6_6  and  N1_7 
REMARK    3  A    between atoms: N1_7  and  C7_8 
REMARK    4  A    between atoms: C7_8  and  C8_9 
REMARK    5  A    between atoms: C8_9  and  C9_11 
REMARK    6  A    between atoms: C10_12  and  C11_13 
ROOT
HETATM    1  C7  UNL     1      23.884   4.415  50.956  1.00  0.00     0.197 C 
ENDROOT
BRANCH   1   2
HETATM    2  N1  UNL     1      25.251   4.059  51.168  1.00  0.00    -0.412 N 
HETATM    3  H12 UNL     1      25.716   4.457  51.987  1.00  0.00     0.153 HD
BRANCH   2   4
HETATM    4  C6  UNL     1      25.711   2.836  50.644  1.00  0.00     0.149 C 
BRANCH   4   5
HETATM    5  C5  UNL     1      26.782   2.110  51.382  1.00  0.00     0.237 C 
HETATM    6  C4  UNL     1      26.134   0.827  51.902  1.00  0.00     0.037 C 
HETATM    7  C3  UNL     1      27.190  -0.132  52.352  1.00  0.00     0.008 C 
HETATM    8  C2  UNL     1      28.178   0.601  53.208  1.00  0.00     0.010 C 
HETATM    9  C1  UNL     1      28.513  -0.243  54.397  1.00  0.00     0.011 C 
HETATM   10  C15 UNL     1      27.595   1.910  53.623  1.00  0.00     0.274 C 
HETATM   11  N4  UNL     1      27.399   2.789  52.464  1.00  0.00     0.090 N 
HETATM   12  H18 UNL     1      28.342   3.175  52.170  1.00  0.00     0.316 HD
ENDBRANCH   4   5
ENDBRANCH   2   4
ENDBRANCH   1   2
BRANCH   1  13
HETATM   13  C8  UNL     1      23.064   3.359  51.575  1.00  0.00     0.166 C 
HETATM   14  O1  UNL     1      22.266   3.056  50.621  1.00  0.00    -0.291 OA
BRANCH  13  15
HETATM   15  C9  UNL     1      22.560   2.432  52.555  1.00  0.00     0.053 C 
HETATM   16  C10 UNL     1      22.593   1.164  52.275  1.00  0.00     0.021 C 
BRANCH  16  17
HETATM   17  C11 UNL     1      22.123   0.128  53.159  1.00  0.00     0.041 A 
HETATM   18  C12 UNL     1      22.985  -0.460  54.083  1.00  0.00     0.148 A 
HETATM   19  F1  UNL     1      24.251  -0.016  54.081  1.00  0.00    -0.204 F 
HETATM   20  C13 UNL     1      22.512  -1.425  54.910  1.00  0.00     0.184 A 
HETATM   21  N2  UNL     1      21.246  -1.868  54.909  1.00  0.00    -0.159 NA
HETATM   22  N3  UNL     1      20.394  -1.314  54.026  1.00  0.00    -0.143 NA
HETATM   23  C14 UNL     1      20.844  -0.357  53.198  1.00  0.00     0.133 A 
HETATM   24  I1  UNL     1      19.352   0.339  51.928  1.00  0.00    -0.019 I 
ENDBRANCH  16  17
ENDBRANCH  13  15
ENDBRANCH   1  13
TORSDOF 6
ENDMDL
MODEL 2
REMARK VINA RESULT:      -7.1      3.448      5.625
REMARK  6 active torsions:
REMARK  status: ('A' for Active; 'I' for Inactive)
REMARK    1  A    between atoms: C5_5  and  C6_6 
REMARK    2  A    between atoms: C6_6  and  N1_7 
REMARK    3  A    between atoms: N1_7  and  C7_8 
REMARK    4  A    between atoms: C7_8  and  C8_9 
REMARK    5  A    between atoms: C8_9  and  C9_11 
REMARK    6  A    between atoms: C10_12  and  C11_13 
ROOT
HETATM    1  C7  UNL     1      22.940   2.200  52.474  1.00  0.00     0.197 C 
ENDROOT
BRANCH   1   2
HETATM    2  N1  UNL     1      23.750   3.124  51.744  1.00  0.00    -0.412 N 
HETATM    3  H12 UNL     1      24.252   3.832  52.283  1.00  0.00     0.153 HD
BRANCH   2   4
HETATM    4  C6  UNL     1      24.261   2.721  50.496  1.00  0.00     0.149 C 
BRANCH   4   5
HETATM    5  C5  UNL     1      24.919   3.746  49.639  1.00  0.00     0.237 C 
HETATM    6  C4  UNL     1      26.413   3.649  49.948  1.00  0.00     0.037 C 
HETATM    7  C3  UNL     1      27.199   4.380  48.905  1.00  0.00     0.008 C 
HETATM    8  C2  UNL     1      26.572   5.722  48.678  1.00  0.00     0.010 C 
HETATM    9  C1  UNL     1      27.652   6.754  48.585  1.00  0.00     0.011 C 
HETATM   10  C15 UNL     1      25.634   6.024  49.797  1.00  0.00     0.274 C 
HETATM   11  N4  UNL     1      24.499   5.092  49.798  1.00  0.00     0.090 N 
HETATM   12  H18 UNL     1      23.836   5.367  49.018  1.00  0.00     0.316 HD
ENDBRANCH   4   5
ENDBRANCH   2   4
ENDBRANCH   1   2
BRANCH   1  13
HETATM   13  C8  UNL     1      23.809   1.071  52.850  1.00  0.00     0.166 C 
HETATM   14  O1  UNL     1      23.058   0.067  52.592  1.00  0.00    -0.291 OA
BRANCH  13  15
HETATM   15  C9  UNL     1      24.957   0.342  53.323  1.00  0.00     0.053 C 
HETATM   16  C10 UNL     1      25.928   0.118  52.490  1.00  0.00     0.021 C 
BRANCH  16  17
HETATM   17  C11 UNL     1      27.133  -0.597  52.827  1.00  0.00     0.041 A 
HETATM   18  C12 UNL     1      27.215  -1.976  52.641  1.00  0.00     0.148 A 
HETATM   19  F1  UNL     1      26.119  -2.575  52.152  1.00  0.00    -0.204 F 
HETATM   20  C13 UNL     1      28.366  -2.619  52.957  1.00  0.00     0.184 A 
HETATM   21  N2  UNL     1      29.460  -2.017  53.446  1.00  0.00    -0.159 NA
HETATM   22  N3  UNL     1      29.405  -0.685  53.634  1.00  0.00    -0.143 NA
HETATM   23  C14 UNL     1      28.274  -0.029  53.328  1.00  0.00     0.133 A 
HETATM   24  I1  UNL     1      28.428   2.009  53.706  1.00  0.00    -0.019 I 
ENDBRANCH  16  17
ENDBRANCH  13  15
ENDBRANCH   1  13
TORSDOF 6
ENDMDL
MODEL 3
REMARK VINA RESULT:      -6.9      3.097      5.802
REMARK  6 active torsions:
REMARK  status: ('A' for Active; 'I' for Inactive)
REMARK    1  A    between atoms: C5_5  and  C6_6 
REMARK    2  A    between atoms: C6_6  and  N1_7 
REMARK    3  A    between atoms: N1_7  and  C7_8 
REMARK    4  A    between atoms: C7_8  and  C8_9 
REMARK    5  A    between atoms: C8_9  and  C9_11 
REMARK    6  A    between atoms: C10_12  and  C11_13 
ROOT
HETATM    1  C7  UNL     1      24.837   4.120  49.714  1.00  0.00     0.197 C 
ENDROOT
BRANCH   1   2
HETATM    2  N1  UNL     1      23.625   3.418  49.993  1.00  0.00    -0.412 N 
HETATM    3  H12 UNL     1      23.528   2.479  49.600  1.00  0.00     0.153 HD
BRANCH   2   4
HETATM    4  C6  UNL     1      22.917   3.749  51.164  1.00  0.00     0.149 C 
BRANCH   4   5
HETATM    5  C5  UNL     1      22.072   2.699  51.798  1.00  0.00     0.237 C 
HETATM    6  C4  UNL     1      21.756   1.693  50.692  1.00  0.00     0.037 C 
HETATM    7  C3  UNL     1      21.213   0.432  51.287  1.00  0.00     0.008 C 
HETATM    8  C2  UNL     1      20.160   0.786  52.293  1.00  0.00     0.010 C 
HETATM    9  C1  UNL     1      18.997  -0.140  52.127  1.00  0.00     0.011 C 
HETATM   10  C15 UNL     1      19.751   2.206  52.100  1.00  0.00     0.274 C 
HETATM   11  N4  UNL     1      20.860   3.120  52.403  1.00  0.00     0.090 N 
HETATM   12  H18 UNL     1      20.971   3.178  53.456  1.00  0.00     0.316 HD
ENDBRANCH   4   5
ENDBRANCH   2   4
ENDBRANCH   1   2
BRANCH   1  13
HETATM   13  C8  UNL     1      25.940   3.307  50.257  1.00  0.00     0.166 C 
HETATM   14  O1  UNL     1      26.919   3.669  49.516  1.00  0.00    -0.291 OA
BRANCH  13  15
HETATM   15  C9  UNL     1      26.652   2.363  51.078  1.00  0.00     0.053 C 
HETATM   16  C10 UNL     1      26.479   2.414  52.364  1.00  0.00     0.021 C 
BRANCH  16  17
HETATM   17  C11 UNL     1      27.126   1.532  53.302  1.00  0.00     0.041 A 
HETATM   18  C12 UNL     1      28.428   1.785  53.730  1.00  0.00     0.148 A 
HETATM   19  F1  UNL     1      29.024   2.870  53.211  1.00  0.00    -0.204 F 
HETATM   20  C13 UNL     1      29.008   0.944  54.622  1.00  0.00     0.184 A 
HETATM   21  N2  UNL     1      28.410  -0.140  55.138  1.00  0.00    -0.159 NA
HETATM   22  N3  UNL     1      27.151  -0.405  54.740  1.00  0.00    -0.143 NA
HETATM   23  C14 UNL     1      26.560   0.416  53.857  1.00  0.00     0.133 A 
HETATM   24  I1  UNL     1      24.629  -0.198  53.393  1.00  0.00    -0.019 I 
ENDBRANCH  16  17
ENDBRANCH  13  15
ENDBRANCH   1  13
TORSDOF 6
ENDMDL
MODEL 4
REMARK VINA RESULT:      -6.8      3.086      4.873
REMARK  6 active torsions:
REMARK  status: ('A' for Active; 'I' for Inactive)
REMARK    1  A    between atoms: C5_5  and  C6_6 
REMARK    2  A    between atoms: C6_6  and  N1_7 
REMARK    3  A    between atoms: N1_7  and  C7_8 
REMARK    4  A    between atoms: C7_8  and  C8_9 
REMARK    5  A    between atoms: C8_9  and  C9_11 
REMARK    6  A    between atoms: C10_12  and  C11_13 
ROOT
HETATM    1  C7  UNL     1      22.435   4.405  51.169  1.00  0.00     0.197 C 
ENDROOT
BRANCH   1   2
HETATM    2  N1  UNL     1      23.165   4.429  49.942  1.00  0.00    -0.412 N 
HETATM    3  H12 UNL     1      22.953   3.699  49.258  1.00  0.00     0.153 HD
BRANCH   2   4
HETATM    4  C6  UNL     1      23.680   5.660  49.495  1.00  0.00     0.149 C 
BRANCH   4   5
HETATM    5  C5  UNL     1      25.000   5.666  48.806  1.00  0.00     0.237 C 
HETATM    6  C4  UNL     1      25.933   4.834  49.686  1.00  0.00     0.037 C 
HETATM    7  C3  UNL     1      27.174   4.485  48.928  1.00  0.00     0.008 C 
HETATM    8  C2  UNL     1      27.693   5.718  48.253  1.00  0.00     0.010 C 
HETATM    9  C1  UNL     1      29.179   5.776  48.418  1.00  0.00     0.011 C 
HETATM   10  C15 UNL     1      27.038   6.919  48.847  1.00  0.00     0.274 C 
HETATM   11  N4  UNL     1      25.598   6.928  48.560  1.00  0.00     0.090 N 
HETATM   12  H18 UNL     1      25.458   7.214  47.548  1.00  0.00     0.316 HD
ENDBRANCH   4   5
ENDBRANCH   2   4
ENDBRANCH   1   2
BRANCH   1  13
HETATM   13  C8  UNL     1      23.366   3.944  52.214  1.00  0.00     0.166 C 
HETATM   14  O1  UNL     1      23.544   5.014  52.895  1.00  0.00    -0.291 OA
BRANCH  13  15
HETATM   15  C9  UNL     1      24.219   3.077  52.985  1.00  0.00     0.053 C 
HETATM   16  C10 UNL     1      24.774   2.068  52.383  1.00  0.00     0.021 C 
BRANCH  16  17
HETATM   17  C11 UNL     1      25.648   1.123  53.029  1.00  0.00     0.041 A 
HETATM   18  C12 UNL     1      27.023   1.342  53.072  1.00  0.00     0.148 A 
HETATM   19  F1  UNL     1      27.465   2.459  52.473  1.00  0.00    -0.204 F 
HETATM   20  C13 UNL     1      27.820   0.440  53.697  1.00  0.00     0.184 A 
HETATM   21  N2  UNL     1      27.375  -0.676  54.293  1.00  0.00    -0.159 NA
HETATM   22  N3  UNL     1      26.049  -0.910  54.267  1.00  0.00    -0.143 NA
HETATM   23  C14 UNL     1      25.244  -0.028  53.652  1.00  0.00     0.133 A 
HETATM   24  I1  UNL     1      23.248  -0.605  53.737  1.00  0.00    -0.019 I 
ENDBRANCH  16  17
ENDBRANCH  13  15
ENDBRANCH   1  13
TORSDOF 6
ENDMDL
MODEL 5
REMARK VINA RESULT:      -6.8      4.577      6.104
REMARK  6 active torsions:
REMARK  status: ('A' for Active; 'I' for Inactive)
REMARK    1  A    between atoms: C5_5  and  C6_6 
REMARK    2  A    between atoms: C6_6  and  N1_7 
REMARK    3  A    between atoms: N1_7  and  C7_8 
REMARK    4  A    between atoms: C7_8  and  C8_9 
REMARK    5  A    between atoms: C8_9  and  C9_11 
REMARK    6  A    between atoms: C10_12  and  C11_13 
ROOT
HETATM    1  C7  UNL     1      25.907   4.764  49.446  1.00  0.00     0.197 C 
ENDROOT
BRANCH   1   2
HETATM    2  N1  UNL     1      27.220   5.315  49.332  1.00  0.00    -0.412 N 
HETATM    3  H12 UNL     1      28.007   4.671  49.438  1.00  0.00     0.153 HD
BRANCH   2   4
HETATM    4  C6  UNL     1      27.388   6.487  48.572  1.00  0.00     0.149 C 
BRANCH   4   5
HETATM    5  C5  UNL     1      28.759   6.834  48.104  1.00  0.00     0.237 C 
HETATM    6  C4  UNL     1      29.576   5.547  48.216  1.00  0.00     0.037 C 
HETATM    7  C3  UNL     1      30.857   5.687  47.455  1.00  0.00     0.008 C 
HETATM    8  C2  UNL     1      31.487   7.001  47.805  1.00  0.00     0.010 C 
HETATM    9  C1  UNL     1      32.956   6.798  48.005  1.00  0.00     0.011 C 
HETATM   10  C15 UNL     1      30.845   7.545  49.035  1.00  0.00     0.274 C 
HETATM   11  N4  UNL     1      29.435   7.875  48.791  1.00  0.00     0.090 N 
HETATM   12  H18 UNL     1      29.392   8.776  48.234  1.00  0.00     0.316 HD
ENDBRANCH   4   5
ENDBRANCH   2   4
ENDBRANCH   1   2
BRANCH   1  13
HETATM   13  C8  UNL     1      26.028   3.525  50.234  1.00  0.00     0.166 C 
HETATM   14  O1  UNL     1      24.819   3.102  50.241  1.00  0.00    -0.291 OA
BRANCH  13  15
HETATM   15  C9  UNL     1      26.612   2.464  51.012  1.00  0.00     0.053 C 
HETATM   16  C10 UNL     1      26.444   2.483  52.300  1.00  0.00     0.021 C 
BRANCH  16  17
HETATM   17  C11 UNL     1      26.972   1.487  53.199  1.00  0.00     0.041 A 
HETATM   18  C12 UNL     1      28.283   1.575  53.663  1.00  0.00     0.148 A 
HETATM   19  F1  UNL     1      29.003   2.615  53.217  1.00  0.00    -0.204 F 
HETATM   20  C13 UNL     1      28.748   0.629  54.516  1.00  0.00     0.184 A 
HETATM   21  N2  UNL     1      28.026  -0.411  54.959  1.00  0.00    -0.159 NA
HETATM   22  N3  UNL     1      26.756  -0.517  54.525  1.00  0.00    -0.143 NA
HETATM   23  C14 UNL     1      26.277   0.411  53.679  1.00  0.00     0.133 A 
HETATM   24  I1  UNL     1      24.302   0.034  53.148  1.00  0.00    -0.019 I 
ENDBRANCH  16  17
ENDBRANCH  13  15
ENDBRANCH   1  13
TORSDOF 6
ENDMDL
MODEL 6
REMARK VINA RESULT:      -6.8      2.209      2.742
REMARK  6 active torsions:
REMARK  status: ('A' for Active; 'I' for Inactive)
REMARK    1  A    between atoms: C5_5  and  C6_6 
REMARK    2  A    between atoms: C6_6  and  N1_7 
REMARK    3  A    between atoms: N1_7  and  C7_8 
REMARK    4  A    between atoms: C7_8  and  C8_9 
REMARK    5  A    between atoms: C8_9  and  C9_11 
REMARK    6  A    between atoms: C10_12  and  C11_13 
ROOT
HETATM    1  C7  UNL     1      24.956   3.019  51.530  1.00  0.00     0.197 C 
ENDROOT
BRANCH   1   2
HETATM    2  N1  UNL     1      24.882   3.191  52.946  1.00  0.00    -0.412 N 
HETATM    3  H12 UNL     1      24.149   3.807  53.304  1.00  0.00     0.153 HD
BRANCH   2   4
HETATM    4  C6  UNL     1      25.380   2.164  53.770  1.00  0.00     0.149 C 
BRANCH   4   5
HETATM    5  C5  UNL     1      26.695   1.557  53.424  1.00  0.00     0.237 C 
HETATM    6  C4  UNL     1      26.525   0.051  53.628  1.00  0.00     0.037 C 
HETATM    7  C3  UNL     1      27.659  -0.683  52.985  1.00  0.00     0.008 C 
HETATM    8  C2  UNL     1      28.946  -0.021  53.373  1.00  0.00     0.010 C 
HETATM    9  C1  UNL     1      29.954  -1.074  53.710  1.00  0.00     0.011 C 
HETATM   10  C15 UNL     1      28.706   0.885  54.532  1.00  0.00     0.274 C 
HETATM   11  N4  UNL     1      27.827   1.999  54.156  1.00  0.00     0.090 N 
HETATM   12  H18 UNL     1      28.388   2.694  53.586  1.00  0.00     0.316 HD
ENDBRANCH   4   5
ENDBRANCH   2   4
ENDBRANCH   1   2
BRANCH   1  13
HETATM   13  C8  UNL     1      23.746   2.285  51.123  1.00  0.00     0.166 C 
HETATM   14  O1  UNL     1      23.655   2.598  49.885  1.00  0.00    -0.291 OA
BRANCH  13  15
HETATM   15  C9  UNL     1      22.583   1.439  51.197  1.00  0.00     0.053 C 
HETATM   16  C10 UNL     1      21.838   1.511  52.259  1.00  0.00     0.021 C 
BRANCH  16  17
HETATM   17  C11 UNL     1      20.648   0.725  52.466  1.00  0.00     0.041 A 
HETATM   18  C12 UNL     1      19.482   1.002  51.755  1.00  0.00     0.148 A 
HETATM   19  F1  UNL     1      19.541   2.032  50.897  1.00  0.00    -0.204 F 
HETATM   20  C13 UNL     1      18.381   0.239  51.963  1.00  0.00     0.184 A 
HETATM   21  N2  UNL     1      18.326  -0.790  52.822  1.00  0.00    -0.159 NA
HETATM   22  N3  UNL     1      19.440  -1.078  53.521  1.00  0.00    -0.143 NA
HETATM   23  C14 UNL     1      20.541  -0.333  53.329  1.00  0.00     0.133 A 
HETATM   24  I1  UNL     1      22.126  -0.963  54.518  1.00  0.00    -0.019 I 
ENDBRANCH  16  17
ENDBRANCH  13  15
ENDBRANCH   1  13
TORSDOF 6
ENDMDL
MODEL 7
REMARK VINA RESULT:      -6.7      4.334      6.722
REMARK  6 active torsions:
REMARK  status: ('A' for Active; 'I' for Inactive)
REMARK    1  A    between atoms: C5_5  and  C6_6 
REMARK    2  A    between atoms: C6_6  and  N1_7 
REMARK    3  A    between atoms: N1_7  and  C7_8 
REMARK    4  A    between atoms: C7_8  and  C8_9 
REMARK    5  A    between atoms: C8_9  and  C9_11 
REMARK    6  A    between atoms: C10_12  and  C11_13 
ROOT
HETATM    1  C7  UNL     1      25.121   4.624  49.978  1.00  0.00     0.197 C 
ENDROOT
BRANCH   1   2
HETATM    2  N1  UNL     1      25.884   5.829  50.058  1.00  0.00    -0.412 N 
HETATM    3  H12 UNL     1      26.714   5.896  49.465  1.00  0.00     0.153 HD
BRANCH   2   4
HETATM    4  C6  UNL     1      25.228   7.008  50.458  1.00  0.00     0.149 C 
BRANCH   4   5
HETATM    5  C5  UNL     1      25.826   8.315  50.067  1.00  0.00     0.237 C 
HETATM    6  C4  UNL     1      26.085   8.222  48.564  1.00  0.00     0.037 C 
HETATM    7  C3  UNL     1      26.357   9.584  48.007  1.00  0.00     0.008 C 
HETATM    8  C2  UNL     1      27.347  10.280  48.890  1.00  0.00     0.010 C 
HETATM    9  C1  UNL     1      28.358  10.977  48.035  1.00  0.00     0.011 C 
HETATM   10  C15 UNL     1      27.997   9.281  49.786  1.00  0.00     0.274 C 
HETATM   11  N4  UNL     1      27.024   8.702  50.721  1.00  0.00     0.090 N 
HETATM   12  H18 UNL     1      26.819   9.415  51.479  1.00  0.00     0.316 HD
ENDBRANCH   4   5
ENDBRANCH   2   4
ENDBRANCH   1   2
BRANCH   1  13
HETATM   13  C8  UNL     1      26.023   3.519  50.350  1.00  0.00     0.166 C 
HETATM   14  O1  UNL     1      26.722   3.384  49.286  1.00  0.00    -0.291 OA
BRANCH  13  15
HETATM   15  C9  UNL     1      26.644   2.478  51.127  1.00  0.00     0.053 C 
HETATM   16  C10 UNL     1      26.518   2.518  52.419  1.00  0.00     0.021 C 
BRANCH  16  17
HETATM   17  C11 UNL     1      27.086   1.544  53.317  1.00  0.00     0.041 A 
HETATM   18  C12 UNL     1      28.395   1.681  53.776  1.00  0.00     0.148 A 
HETATM   19  F1  UNL     1      29.073   2.747  53.325  1.00  0.00    -0.204 F 
HETATM   20  C13 UNL     1      28.898   0.755  54.628  1.00  0.00     0.184 A 
HETATM   21  N2  UNL     1      28.217  -0.310  55.076  1.00  0.00    -0.159 NA
HETATM   22  N3  UNL     1      26.950  -0.464  54.648  1.00  0.00    -0.143 NA
HETATM   23  C14 UNL     1      26.433   0.443  53.803  1.00  0.00     0.133 A 
HETATM   24  I1  UNL     1      24.472  -0.008  53.280  1.00  0.00    -0.019 I 
ENDBRANCH  16  17
ENDBRANCH  13  15
ENDBRANCH   1  13
TORSDOF 6
ENDMDL
MODEL 8
REMARK VINA RESULT:      -6.6      4.648      5.871
REMARK  6 active torsions:
REMARK  status: ('A' for Active; 'I' for Inactive)
REMARK    1  A    between atoms: C5_5  and  C6_6 
REMARK    2  A    between atoms: C6_6  and  N1_7 
REMARK    3  A    between atoms: N1_7  and  C7_8 
REMARK    4  A    between atoms: C7_8  and  C8_9 
REMARK    5  A    between atoms: C8_9  and  C9_11 
REMARK    6  A    between atoms: C10_12  and  C11_13 
ROOT
HETATM    1  C7  UNL     1      25.521   4.526  49.392  1.00  0.00     0.197 C 
ENDROOT
BRANCH   1   2
HETATM    2  N1  UNL     1      26.063   5.795  49.762  1.00  0.00    -0.412 N 
HETATM    3  H12 UNL     1      26.465   5.876  50.699  1.00  0.00     0.153 HD
BRANCH   2   4
HETATM    4  C6  UNL     1      26.523   6.648  48.742  1.00  0.00     0.149 C 
BRANCH   4   5
HETATM    5  C5  UNL     1      27.993   6.831  48.584  1.00  0.00     0.237 C 
HETATM    6  C4  UNL     1      28.213   7.182  47.112  1.00  0.00     0.037 C 
HETATM    7  C3  UNL     1      29.595   7.722  46.918  1.00  0.00     0.008 C 
HETATM    8  C2  UNL     1      30.569   6.828  47.623  1.00  0.00     0.010 C 
HETATM    9  C1  UNL     1      31.759   6.613  46.742  1.00  0.00     0.011 C 
HETATM   10  C15 UNL     1      29.903   5.536  47.953  1.00  0.00     0.274 C 
HETATM   11  N4  UNL     1      28.824   5.735  48.929  1.00  0.00     0.090 N 
HETATM   12  H18 UNL     1      29.257   5.884  49.885  1.00  0.00     0.316 HD
ENDBRANCH   4   5
ENDBRANCH   2   4
ENDBRANCH   1   2
BRANCH   1  13
HETATM   13  C8  UNL     1      25.744   3.616  50.528  1.00  0.00     0.166 C 
HETATM   14  O1  UNL     1      26.973   3.294  50.366  1.00  0.00    -0.291 OA
BRANCH  13  15
HETATM   15  C9  UNL     1      25.492   2.838  51.714  1.00  0.00     0.053 C 
HETATM   16  C10 UNL     1      26.003   1.646  51.786  1.00  0.00     0.021 C 
BRANCH  16  17
HETATM   17  C11 UNL     1      25.832   0.761  52.910  1.00  0.00     0.041 A 
HETATM   18  C12 UNL     1      24.615   0.119  53.128  1.00  0.00     0.148 A 
HETATM   19  F1  UNL     1      23.637   0.386  52.250  1.00  0.00    -0.204 F 
HETATM   20  C13 UNL     1      24.487  -0.717  54.188  1.00  0.00     0.184 A 
HETATM   21  N2  UNL     1      25.467  -0.981  55.066  1.00  0.00    -0.159 NA
HETATM   22  N3  UNL     1      26.653  -0.373  54.875  1.00  0.00    -0.143 NA
HETATM   23  C14 UNL     1      26.799   0.459  53.831  1.00  0.00     0.133 A 
HETATM   24  I1  UNL     1      28.708   1.277  53.748  1.00  0.00    -0.019 I 
ENDBRANCH  16  17
ENDBRANCH  13  15
ENDBRANCH   1  13
TORSDOF 6
ENDMDL
MODEL 9
REMARK VINA RESULT:      -6.6      2.866      4.354
REMARK  6 active torsions:
REMARK  status: ('A' for Active; 'I' for Inactive)
REMARK    1  A    between atoms: C5_5  and  C6_6 
REMARK    2  A    between atoms: C6_6  and  N1_7 
REMARK    3  A    between atoms: N1_7  and  C7_8 
REMARK    4  A    between atoms: C7_8  and  C8_9 
REMARK    5  A    between atoms: C8_9  and  C9_11 
REMARK    6  A    between atoms: C10_12  and  C11_13 
ROOT
HETATM    1  C7  UNL     1      21.552   3.348  50.305  1.00  0.00     0.197 C 
ENDROOT
BRANCH   1   2
HETATM    2  N1  UNL     1      22.427   4.236  49.607  1.00  0.00    -0.412 N 
HETATM    3  H12 UNL     1      22.273   4.350  48.603  1.00  0.00     0.153 HD
BRANCH   2   4
HETATM    4  C6  UNL     1      23.036   5.278  50.331  1.00  0.00     0.149 C 
BRANCH   4   5
HETATM    5  C5  UNL     1      24.501   5.488  50.169  1.00  0.00     0.237 C 
HETATM    6  C4  UNL     1      24.716   5.803  48.689  1.00  0.00     0.037 C 
HETATM    7  C3  UNL     1      26.086   6.367  48.480  1.00  0.00     0.008 C 
HETATM    8  C2  UNL     1      27.078   5.513  49.210  1.00  0.00     0.010 C 
HETATM    9  C1  UNL     1      28.274   5.299  48.336  1.00  0.00     0.011 C 
HETATM   10  C15 UNL     1      26.439   4.217  49.575  1.00  0.00     0.274 C 
HETATM   11  N4  UNL     1      25.355   4.419  50.544  1.00  0.00     0.090 N 
HETATM   12  H18 UNL     1      25.784   4.603  51.496  1.00  0.00     0.316 HD
ENDBRANCH   4   5
ENDBRANCH   2   4
ENDBRANCH   1   2
BRANCH   1  13
HETATM   13  C8  UNL     1      22.394   2.523  51.190  1.00  0.00     0.166 C 
HETATM   14  O1  UNL     1      23.150   1.925  50.347  1.00  0.00    -0.291 OA
BRANCH  13  15
HETATM   15  C9  UNL     1      22.935   1.937  52.389  1.00  0.00     0.053 C 
HETATM   16  C10 UNL     1      23.263   0.681  52.364  1.00  0.00     0.021 C 
BRANCH  16  17
HETATM   17  C11 UNL     1      23.815  -0.032  53.488  1.00  0.00     0.041 A 
HETATM   18  C12 UNL     1      22.977  -0.627  54.430  1.00  0.00     0.148 A 
HETATM   19  F1  UNL     1      21.659  -0.481  54.229  1.00  0.00    -0.204 F 
HETATM   20  C13 UNL     1      23.525  -1.301  55.472  1.00  0.00     0.184 A 
HETATM   21  N2  UNL     1      24.844  -1.444  55.670  1.00  0.00    -0.159 NA
HETATM   22  N3  UNL     1      25.673  -0.879  54.773  1.00  0.00    -0.143 NA
HETATM   23  C14 UNL     1      25.150  -0.207  53.734  1.00  0.00     0.133 A 
HETATM   24  I1  UNL     1      26.622   0.577  52.492  1.00  0.00    -0.019 I 
ENDBRANCH  16  17
ENDBRANCH  13  15
ENDBRANCH   1  13
TORSDOF 6
ENDMDL
