MODEL 1
REMARK VINA RESULT:      -9.2      0.000      0.000
REMARK  1 active torsions:
REMARK  status: ('A' for Active; 'I' for Inactive)
REMARK    1  A    between atoms: O1_2  and  C2_3 
ROOT
HETATM    1  C2  UNL     1      27.905   0.278  53.484  1.00  0.00     0.060 C 
HETATM    2  C3  UNL     1      26.936   0.610  54.276  1.00  0.00     0.050 C 
HETATM    3  C4  UNL     1      26.006  -0.480  53.741  1.00  0.00     0.123 A 
HETATM    4  C5  UNL     1      26.434  -1.322  52.817  1.00  0.00     0.010 A 
HETATM    5  C6  UNL     1      26.995  -0.066  52.337  1.00  0.00     0.137 A 
HETATM    6  C7  UNL     1      25.938   0.914  51.941  1.00  0.00     0.036 C 
HETATM    7  C8  UNL     1      26.234   1.912  51.156  1.00  0.00     0.028 C 
HETATM    8  C9  UNL     1      26.664   3.024  50.257  1.00  0.00     0.026 C 
HETATM    9  C10 UNL     1      25.948   4.002  49.651  1.00  0.00     0.033 C 
HETATM   10 CL1  UNL     1      27.110   5.023  48.738  1.00  0.00    -0.084 Cl
HETATM   11  C11 UNL     1      24.579   4.517  49.268  1.00  0.00     0.021 C 
HETATM   12  C12 UNL     1      23.363   3.873  49.517  1.00  0.00    -0.006 C 
HETATM   13  C13 UNL     1      22.086   3.309  49.720  1.00  0.00     0.147 C 
HETATM   14  N1  UNL     1      21.655   3.017  51.073  1.00  0.00    -0.387 N 
HETATM   15  C14 UNL     1      22.276   1.873  51.692  1.00  0.00     0.041 C 
HETATM   16  C15 UNL     1      23.547   1.795  51.507  1.00  0.00     0.127 C 
HETATM   17  N2  UNL     1      24.473   0.956  52.258  1.00  0.00    -0.288 N 
HETATM   18  C16 UNL     1      23.687   0.194  53.296  1.00  0.00     0.249 C 
HETATM   19  N3  UNL     1      22.462   0.239  53.499  1.00  0.00    -0.244 NA
HETATM   20  C17 UNL     1      21.609   0.820  52.487  1.00  0.00     0.211 C 
HETATM   21  O2  UNL     1      24.593  -0.682  54.139  1.00  0.00    -0.299 OA
HETATM   22  H13 UNL     1      21.012   3.333  51.828  1.00  0.00     0.159 HD
ENDROOT
BRANCH   1  23
HETATM   23  O1  UNL     1      29.276   0.322  53.826  1.00  0.00    -0.359 OA
HETATM   24  C1  UNL     1      30.000  -0.891  53.689  1.00  0.00     0.209 C 
ENDBRANCH   1  23
TORSDOF 1
ENDMDL
MODEL 2
REMARK VINA RESULT:      -9.1      2.346      3.210
REMARK  1 active torsions:
REMARK  status: ('A' for Active; 'I' for Inactive)
REMARK    1  A    between atoms: O1_2  and  C2_3 
ROOT
HETATM    1  C2  UNL     1      26.992   1.251  52.977  1.00  0.00     0.060 C 
HETATM    2  C3  UNL     1      26.430   1.207  54.144  1.00  0.00     0.050 C 
HETATM    3  C4  UNL     1      26.131  -0.290  54.042  1.00  0.00     0.123 A 
HETATM    4  C5  UNL     1      26.524  -0.974  52.983  1.00  0.00     0.010 A 
HETATM    5  C6  UNL     1      26.047   0.255  52.364  1.00  0.00     0.137 A 
HETATM    6  C7  UNL     1      24.576   0.452  52.551  1.00  0.00     0.036 C 
HETATM    7  C8  UNL     1      23.922   1.266  51.771  1.00  0.00     0.028 C 
HETATM    8  C9  UNL     1      23.255   2.219  50.834  1.00  0.00     0.026 C 
HETATM    9  C10 UNL     1      21.948   2.541  50.679  1.00  0.00     0.033 C 
HETATM   10 CL1  UNL     1      21.859   3.786  49.387  1.00  0.00    -0.084 Cl
HETATM   11  C11 UNL     1      20.512   2.193  50.997  1.00  0.00     0.021 C 
HETATM   12  C12 UNL     1      20.082   1.094  51.745  1.00  0.00    -0.006 C 
HETATM   13  C13 UNL     1      19.545   0.019  52.484  1.00  0.00     0.147 C 
HETATM   14  N1  UNL     1      19.948  -0.152  53.866  1.00  0.00    -0.387 N 
HETATM   15  C14 UNL     1      21.282  -0.659  54.069  1.00  0.00     0.041 C 
HETATM   16  C15 UNL     1      22.174  -0.119  53.315  1.00  0.00     0.127 C 
HETATM   17  N2  UNL     1      23.618  -0.188  53.510  1.00  0.00    -0.288 N 
HETATM   18  C16 UNL     1      23.890  -0.999  54.752  1.00  0.00     0.249 C 
HETATM   19  N3  UNL     1      23.057  -1.540  55.499  1.00  0.00    -0.244 NA
HETATM   20  C17 UNL     1      21.701  -1.705  55.027  1.00  0.00     0.211 C 
HETATM   21  O2  UNL     1      25.376  -1.089  55.036  1.00  0.00    -0.299 OA
HETATM   22  H13 UNL     1      19.617  -0.053  54.848  1.00  0.00     0.159 HD
ENDROOT
BRANCH   1  23
HETATM   23  O1  UNL     1      28.106   2.056  52.650  1.00  0.00    -0.359 OA
HETATM   24  C1  UNL     1      28.937   2.455  53.730  1.00  0.00     0.209 C 
ENDBRANCH   1  23
TORSDOF 1
ENDMDL
MODEL 3
REMARK VINA RESULT:      -8.7      2.748      4.297
REMARK  1 active torsions:
REMARK  status: ('A' for Active; 'I' for Inactive)
REMARK    1  A    between atoms: O1_2  and  C2_3 
ROOT
HETATM    1  C2  UNL     1      27.463   0.088  53.578  1.00  0.00     0.060 C 
HETATM    2  C3  UNL     1      27.486   0.247  52.292  1.00  0.00     0.050 C 
HETATM    3  C4  UNL     1      27.343   1.767  52.388  1.00  0.00     0.123 A 
HETATM    4  C5  UNL     1      27.299   2.356  53.569  1.00  0.00     0.010 A 
HETATM    5  C6  UNL     1      26.462   1.188  53.804  1.00  0.00     0.137 A 
HETATM    6  C7  UNL     1      25.216   1.206  52.978  1.00  0.00     0.036 C 
HETATM    7  C8  UNL     1      24.196   0.468  53.318  1.00  0.00     0.028 C 
HETATM    8  C9  UNL     1      23.080  -0.410  53.780  1.00  0.00     0.026 C 
HETATM    9  C10 UNL     1      21.813  -0.550  53.320  1.00  0.00     0.033 C 
HETATM   10 CL1  UNL     1      21.020  -1.809  54.326  1.00  0.00    -0.084 Cl
HETATM   11  C11 UNL     1      20.717   0.006  52.440  1.00  0.00     0.021 C 
HETATM   12  C12 UNL     1      20.791   1.178  51.682  1.00  0.00    -0.006 C 
HETATM   13  C13 UNL     1      20.763   2.341  50.883  1.00  0.00     0.147 C 
HETATM   14  N1  UNL     1      21.754   2.496  49.837  1.00  0.00    -0.387 N 
HETATM   15  C14 UNL     1      23.087   2.816  50.282  1.00  0.00     0.041 C 
HETATM   16  C15 UNL     1      23.485   2.133  51.298  1.00  0.00     0.127 C 
HETATM   17  N2  UNL     1      24.861   2.004  51.759  1.00  0.00    -0.288 N 
HETATM   18  C16 UNL     1      25.746   2.807  50.839  1.00  0.00     0.249 C 
HETATM   19  N3  UNL     1      25.399   3.482  49.856  1.00  0.00    -0.244 NA
HETATM   20  C17 UNL     1      24.002   3.822  49.702  1.00  0.00     0.211 C 
HETATM   21  O2  UNL     1      27.204   2.695  51.241  1.00  0.00    -0.299 OA
HETATM   22  H13 UNL     1      21.885   2.475  48.804  1.00  0.00     0.159 HD
ENDROOT
BRANCH   1  23
HETATM   23  O1  UNL     1      28.217  -0.876  54.284  1.00  0.00    -0.359 OA
HETATM   24  C1  UNL     1      29.566  -1.044  53.877  1.00  0.00     0.209 C 
ENDBRANCH   1  23
TORSDOF 1
ENDMDL
MODEL 4
REMARK VINA RESULT:      -7.8      3.104      5.558
REMARK  1 active torsions:
REMARK  status: ('A' for Active; 'I' for Inactive)
REMARK    1  A    between atoms: O1_2  and  C2_3 
ROOT
HETATM    1  C2  UNL     1      24.478   4.404  50.684  1.00  0.00     0.060 C 
HETATM    2  C3  UNL     1      23.699   3.556  50.091  1.00  0.00     0.050 C 
HETATM    3  C4  UNL     1      22.493   3.922  50.959  1.00  0.00     0.123 A 
HETATM    4  C5  UNL     1      22.594   4.876  51.866  1.00  0.00     0.010 A 
HETATM    5  C6  UNL     1      23.865   4.186  52.040  1.00  0.00     0.137 A 
HETATM    6  C7  UNL     1      23.688   2.784  52.530  1.00  0.00     0.036 C 
HETATM    7  C8  UNL     1      24.684   2.158  53.092  1.00  0.00     0.028 C 
HETATM    8  C9  UNL     1      25.879   1.519  53.718  1.00  0.00     0.026 C 
HETATM    9  C10 UNL     1      26.023   0.321  54.335  1.00  0.00     0.033 C 
HETATM   10 CL1  UNL     1      27.746   0.178  54.823  1.00  0.00    -0.084 Cl
HETATM   11  C11 UNL     1      25.335  -0.881  54.943  1.00  0.00     0.021 C 
HETATM   12  C12 UNL     1      23.954  -1.062  55.059  1.00  0.00    -0.006 C 
HETATM   13  C13 UNL     1      22.581  -1.342  55.223  1.00  0.00     0.147 C 
HETATM   14  N1  UNL     1      21.729  -1.384  54.050  1.00  0.00    -0.387 N 
HETATM   15  C14 UNL     1      21.414  -0.105  53.463  1.00  0.00     0.041 C 
HETATM   16  C15 UNL     1      22.416   0.696  53.368  1.00  0.00     0.127 C 
HETATM   17  N2  UNL     1      22.479   1.898  52.546  1.00  0.00    -0.288 N 
HETATM   18  C16 UNL     1      21.165   2.043  51.819  1.00  0.00     0.249 C 
HETATM   19  N3  UNL     1      20.175   1.296  51.891  1.00  0.00    -0.244 NA
HETATM   20  C17 UNL     1      20.092   0.352  52.982  1.00  0.00     0.211 C 
HETATM   21  O2  UNL     1      21.166   3.262  50.917  1.00  0.00    -0.299 OA
HETATM   22  H13 UNL     1      21.206  -2.029  53.424  1.00  0.00     0.159 HD
ENDROOT
BRANCH   1  23
HETATM   23  O1  UNL     1      25.491   5.151  50.042  1.00  0.00    -0.359 OA
HETATM   24  C1  UNL     1      26.467   4.408  49.327  1.00  0.00     0.209 C 
ENDBRANCH   1  23
TORSDOF 1
ENDMDL
MODEL 5
REMARK VINA RESULT:      -7.8      2.707      4.364
REMARK  1 active torsions:
REMARK  status: ('A' for Active; 'I' for Inactive)
REMARK    1  A    between atoms: O1_2  and  C2_3 
ROOT
HETATM    1  C2  UNL     1      24.925   1.695  52.304  1.00  0.00     0.060 C 
HETATM    2  C3  UNL     1      24.437   2.694  52.969  1.00  0.00     0.050 C 
HETATM    3  C4  UNL     1      23.137   2.711  52.163  1.00  0.00     0.123 A 
HETATM    4  C5  UNL     1      22.929   1.808  51.221  1.00  0.00     0.010 A 
HETATM    5  C6  UNL     1      24.330   2.135  50.994  1.00  0.00     0.137 A 
HETATM    6  C7  UNL     1      24.519   3.554  50.561  1.00  0.00     0.036 C 
HETATM    7  C8  UNL     1      25.621   3.911  49.961  1.00  0.00     0.028 C 
HETATM    8  C9  UNL     1      26.914   4.231  49.286  1.00  0.00     0.026 C 
HETATM    9  C10 UNL     1      27.349   5.373  48.701  1.00  0.00     0.033 C 
HETATM   10 CL1  UNL     1      29.019   5.065  48.115  1.00  0.00    -0.084 Cl
HETATM   11  C11 UNL     1      26.988   6.743  48.173  1.00  0.00     0.021 C 
HETATM   12  C12 UNL     1      25.706   7.298  48.146  1.00  0.00    -0.006 C 
HETATM   13  C13 UNL     1      24.456   7.948  48.073  1.00  0.00     0.147 C 
HETATM   14  N1  UNL     1      23.706   8.163  49.295  1.00  0.00    -0.387 N 
HETATM   15  C14 UNL     1      23.081   6.992  49.858  1.00  0.00     0.041 C 
HETATM   16  C15 UNL     1      23.829   5.946  49.868  1.00  0.00     0.127 C 
HETATM   17  N2  UNL     1      23.600   4.734  50.646  1.00  0.00    -0.288 N 
HETATM   18  C16 UNL     1      22.333   4.917  51.444  1.00  0.00     0.249 C 
HETATM   19  N3  UNL     1      21.584   5.908  51.456  1.00  0.00    -0.244 NA
HETATM   20  C17 UNL     1      21.710   6.890  50.402  1.00  0.00     0.211 C 
HETATM   21  O2  UNL     1      22.045   3.703  52.305  1.00  0.00    -0.299 OA
HETATM   22  H13 UNL     1      23.410   8.897  49.972  1.00  0.00     0.159 HD
ENDROOT
BRANCH   1  23
HETATM   23  O1  UNL     1      25.725   0.672  52.860  1.00  0.00    -0.359 OA
HETATM   24  C1  UNL     1      26.648   0.044  51.983  1.00  0.00     0.209 C 
ENDBRANCH   1  23
TORSDOF 1
ENDMDL
MODEL 6
REMARK VINA RESULT:      -7.8      3.492      6.966
REMARK  1 active torsions:
REMARK  status: ('A' for Active; 'I' for Inactive)
REMARK    1  A    between atoms: O1_2  and  C2_3 
ROOT
HETATM    1  C2  UNL     1      20.144   3.241  51.603  1.00  0.00     0.060 C 
HETATM    2  C3  UNL     1      21.063   4.146  51.723  1.00  0.00     0.050 C 
HETATM    3  C4  UNL     1      21.683   3.825  50.362  1.00  0.00     0.123 A 
HETATM    4  C5  UNL     1      21.141   2.903  49.588  1.00  0.00     0.010 A 
HETATM    5  C6  UNL     1      21.045   2.266  50.894  1.00  0.00     0.137 A 
HETATM    6  C7  UNL     1      22.387   1.971  51.483  1.00  0.00     0.036 C 
HETATM    7  C8  UNL     1      22.502   1.089  52.437  1.00  0.00     0.028 C 
HETATM    8  C9  UNL     1      22.538   0.068  53.526  1.00  0.00     0.026 C 
HETATM    9  C10 UNL     1      23.583  -0.485  54.188  1.00  0.00     0.033 C 
HETATM   10 CL1  UNL     1      22.901  -1.623  55.399  1.00  0.00    -0.084 Cl
HETATM   11  C11 UNL     1      25.080  -0.692  54.245  1.00  0.00     0.021 C 
HETATM   12  C12 UNL     1      26.007  -0.225  53.310  1.00  0.00    -0.006 C 
HETATM   13  C13 UNL     1      27.021   0.200  52.426  1.00  0.00     0.147 C 
HETATM   14  N1  UNL     1      27.175   1.618  52.166  1.00  0.00    -0.387 N 
HETATM   15  C14 UNL     1      26.169   2.209  51.319  1.00  0.00     0.041 C 
HETATM   16  C15 UNL     1      24.966   1.843  51.590  1.00  0.00     0.127 C 
HETATM   17  N2  UNL     1      23.746   2.499  51.135  1.00  0.00    -0.288 N 
HETATM   18  C16 UNL     1      24.134   3.687  50.292  1.00  0.00     0.249 C 
HETATM   19  N3  UNL     1      25.281   4.067  50.004  1.00  0.00    -0.244 NA
HETATM   20  C17 UNL     1      26.388   3.159  50.207  1.00  0.00     0.211 C 
HETATM   21  O2  UNL     1      22.911   4.441  49.806  1.00  0.00    -0.299 OA
HETATM   22  H13 UNL     1      27.785   2.439  52.360  1.00  0.00     0.159 HD
ENDROOT
BRANCH   1  23
HETATM   23  O1  UNL     1      18.819   3.372  52.074  1.00  0.00    -0.359 OA
HETATM   24  C1  UNL     1      17.901   4.019  51.206  1.00  0.00     0.209 C 
ENDBRANCH   1  23
TORSDOF 1
ENDMDL
MODEL 7
REMARK VINA RESULT:      -7.5      3.198      6.210
REMARK  1 active torsions:
REMARK  status: ('A' for Active; 'I' for Inactive)
REMARK    1  A    between atoms: O1_2  and  C2_3 
ROOT
HETATM    1  C2  UNL     1      24.174   3.992  50.066  1.00  0.00     0.060 C 
HETATM    2  C3  UNL     1      24.971   4.315  51.034  1.00  0.00     0.050 C 
HETATM    3  C4  UNL     1      26.021   3.276  50.636  1.00  0.00     0.123 A 
HETATM    4  C5  UNL     1      25.838   2.525  49.566  1.00  0.00     0.010 A 
HETATM    5  C6  UNL     1      24.501   2.525  50.143  1.00  0.00     0.137 A 
HETATM    6  C7  UNL     1      24.457   1.849  51.476  1.00  0.00     0.036 C 
HETATM    7  C8  UNL     1      23.321   1.425  51.956  1.00  0.00     0.028 C 
HETATM    8  C9  UNL     1      21.977   0.976  52.428  1.00  0.00     0.026 C 
HETATM    9  C10 UNL     1      21.615   0.264  53.523  1.00  0.00     0.033 C 
HETATM   10 CL1  UNL     1      19.825   0.111  53.486  1.00  0.00    -0.084 Cl
HETATM   11  C11 UNL     1      22.066  -0.604  54.675  1.00  0.00     0.021 C 
HETATM   12  C12 UNL     1      23.379  -1.010  54.930  1.00  0.00    -0.006 C 
HETATM   13  C13 UNL     1      24.666  -1.472  55.274  1.00  0.00     0.147 C 
HETATM   14  N1  UNL     1      25.715  -0.504  55.525  1.00  0.00    -0.387 N 
HETATM   15  C14 UNL     1      26.248   0.155  54.359  1.00  0.00     0.041 C 
HETATM   16  C15 UNL     1      25.357   0.539  53.514  1.00  0.00     0.127 C 
HETATM   17  N2  UNL     1      25.557   1.492  52.429  1.00  0.00    -0.288 N 
HETATM   18  C16 UNL     1      26.992   1.957  52.467  1.00  0.00     0.249 C 
HETATM   19  N3  UNL     1      27.879   1.606  53.261  1.00  0.00    -0.244 NA
HETATM   20  C17 UNL     1      27.672   0.416  54.057  1.00  0.00     0.211 C 
HETATM   21  O2  UNL     1      27.268   2.979  51.381  1.00  0.00    -0.299 OA
HETATM   22  H13 UNL     1      26.287  -0.072  56.281  1.00  0.00     0.159 HD
ENDROOT
BRANCH   1  23
HETATM   23  O1  UNL     1      23.370   4.903  49.347  1.00  0.00    -0.359 OA
HETATM   24  C1  UNL     1      22.640   4.373  48.250  1.00  0.00     0.209 C 
ENDBRANCH   1  23
TORSDOF 1
ENDMDL
MODEL 8
REMARK VINA RESULT:      -7.5      7.246      9.341
REMARK  1 active torsions:
REMARK  status: ('A' for Active; 'I' for Inactive)
REMARK    1  A    between atoms: O1_2  and  C2_3 
ROOT
HETATM    1  C2  UNL     1      32.077   4.654  46.840  1.00  0.00     0.060 C 
HETATM    2  C3  UNL     1      32.059   5.812  46.259  1.00  0.00     0.050 C 
HETATM    3  C4  UNL     1      32.700   6.520  47.454  1.00  0.00     0.123 A 
HETATM    4  C5  UNL     1      33.062   5.828  48.519  1.00  0.00     0.010 A 
HETATM    5  C6  UNL     1      31.780   5.213  48.205  1.00  0.00     0.137 A 
HETATM    6  C7  UNL     1      30.639   6.167  48.357  1.00  0.00     0.036 C 
HETATM    7  C8  UNL     1      29.423   5.714  48.488  1.00  0.00     0.028 C 
HETATM    8  C9  UNL     1      28.065   5.108  48.628  1.00  0.00     0.026 C 
HETATM    9  C10 UNL     1      26.861   5.678  48.873  1.00  0.00     0.033 C 
HETATM   10 CL1  UNL     1      25.642   4.358  48.882  1.00  0.00    -0.084 Cl
HETATM   11  C11 UNL     1      26.111   6.916  49.309  1.00  0.00     0.021 C 
HETATM   12  C12 UNL     1      26.688   8.127  49.703  1.00  0.00    -0.006 C 
HETATM   13  C13 UNL     1      27.169   9.387  50.116  1.00  0.00     0.147 C 
HETATM   14  N1  UNL     1      28.006  10.149  49.211  1.00  0.00    -0.387 N 
HETATM   15  C14 UNL     1      29.356   9.668  49.055  1.00  0.00     0.041 C 
HETATM   16  C15 UNL     1      29.452   8.391  48.926  1.00  0.00     0.127 C 
HETATM   17  N2  UNL     1      30.618   7.663  48.440  1.00  0.00    -0.288 N 
HETATM   18  C16 UNL     1      31.697   8.664  48.111  1.00  0.00     0.249 C 
HETATM   19  N3  UNL     1      31.644   9.900  48.228  1.00  0.00    -0.244 NA
HETATM   20  C17 UNL     1      30.593  10.478  49.036  1.00  0.00     0.211 C 
HETATM   21  O2  UNL     1      32.937   7.979  47.568  1.00  0.00    -0.299 OA
HETATM   22  H13 UNL     1      28.015  10.982  48.587  1.00  0.00     0.159 HD
ENDROOT
BRANCH   1  23
HETATM   23  O1  UNL     1      32.313   3.427  46.181  1.00  0.00    -0.359 OA
HETATM   24  C1  UNL     1      33.214   2.532  46.816  1.00  0.00     0.209 C 
ENDBRANCH   1  23
TORSDOF 1
ENDMDL
MODEL 9
REMARK VINA RESULT:      -7.4      3.549      5.789
REMARK  1 active torsions:
REMARK  status: ('A' for Active; 'I' for Inactive)
REMARK    1  A    between atoms: O1_2  and  C2_3 
ROOT
HETATM    1  C2  UNL     1      24.669   4.713  50.298  1.00  0.00     0.060 C 
HETATM    2  C3  UNL     1      23.710   4.295  49.533  1.00  0.00     0.050 C 
HETATM    3  C4  UNL     1      22.631   5.021  50.339  1.00  0.00     0.123 A 
HETATM    4  C5  UNL     1      22.967   5.772  51.372  1.00  0.00     0.010 A 
HETATM    5  C6  UNL     1      23.848   4.627  51.556  1.00  0.00     0.137 A 
HETATM    6  C7  UNL     1      23.093   3.367  51.836  1.00  0.00     0.036 C 
HETATM    7  C8  UNL     1      23.697   2.353  52.389  1.00  0.00     0.028 C 
HETATM    8  C9  UNL     1      24.470   1.242  53.020  1.00  0.00     0.026 C 
HETATM    9  C10 UNL     1      24.068   0.032  53.479  1.00  0.00     0.033 C 
HETATM   10 CL1  UNL     1      25.531  -0.817  54.086  1.00  0.00    -0.084 Cl
HETATM   11  C11 UNL     1      22.905  -0.856  53.860  1.00  0.00     0.021 C 
HETATM   12  C12 UNL     1      21.556  -0.494  53.833  1.00  0.00    -0.006 C 
HETATM   13  C13 UNL     1      20.170  -0.229  53.843  1.00  0.00     0.147 C 
HETATM   14  N1  UNL     1      19.525   0.175  52.608  1.00  0.00    -0.387 N 
HETATM   15  C14 UNL     1      19.796   1.523  52.176  1.00  0.00     0.041 C 
HETATM   16  C15 UNL     1      21.029   1.874  52.274  1.00  0.00     0.127 C 
HETATM   17  N2  UNL     1      21.648   3.027  51.630  1.00  0.00    -0.288 N 
HETATM   18  C16 UNL     1      20.592   3.740  50.823  1.00  0.00     0.249 C 
HETATM   19  N3  UNL     1      19.393   3.436  50.709  1.00  0.00    -0.244 NA
HETATM   20  C17 UNL     1      18.819   2.502  51.652  1.00  0.00     0.211 C 
HETATM   21  O2  UNL     1      21.171   4.939  50.097  1.00  0.00    -0.299 OA
HETATM   22  H13 UNL     1      18.883  -0.154  51.858  1.00  0.00     0.159 HD
ENDROOT
BRANCH   1  23
HETATM   23  O1  UNL     1      25.963   5.060  49.850  1.00  0.00    -0.359 OA
HETATM   24  C1  UNL     1      26.771   3.998  49.366  1.00  0.00     0.209 C 
ENDBRANCH   1  23
TORSDOF 1
ENDMDL
