MODEL 1
REMARK VINA RESULT:      -8.5      0.000      0.000
REMARK  8 active torsions:
REMARK  status: ('A' for Active; 'I' for Inactive)
REMARK    1  A    between atoms: N1_2  and  C2_3 
REMARK    2  A    between atoms: C2_3  and  C3_4 
REMARK    3  A    between atoms: C2_3  and  N2_10 
REMARK    4  A    between atoms: C4_5  and  C5_7 
REMARK    5  A    between atoms: N2_10  and  C7_11 
REMARK    6  A    between atoms: C11_18  and  C12_19 
REMARK    7  A    between atoms: C12_19  and  N6_20 
REMARK    8  A    between atoms: N6_20  and  C13_21 
ROOT
HETATM    1  C7  UNL     1      26.306   3.012  50.599  1.00  0.00     0.156 A 
HETATM    2  N3  UNL     1      27.145   3.482  49.678  1.00  0.00    -0.221 NA
HETATM    3  C8  UNL     1      26.965   4.592  49.011  1.00  0.00     0.258 A 
HETATM    4  N4  UNL     1      25.869   5.316  49.261  1.00  0.00    -0.161 NA
HETATM    5  N5  UNL     1      25.000   4.891  50.172  1.00  0.00    -0.240 N 
HETATM    6  C9  UNL     1      23.874   5.482  50.541  1.00  0.00     0.119 A 
HETATM    7  C10 UNL     1      23.331   4.668  51.508  1.00  0.00     0.030 A 
HETATM    8  C11 UNL     1      24.144   3.546  51.741  1.00  0.00     0.004 A 
HETATM    9  C19 UNL     1      25.189   3.738  50.864  1.00  0.00     0.111 A 
ENDROOT
BRANCH   1  10
HETATM   10  N2  UNL     1      26.519   1.793  51.296  1.00  0.00    -0.349 N 
HETATM   11  H7  UNL     1      26.205   0.902  50.902  1.00  0.00     0.163 HD
BRANCH  10  12
HETATM   12  C2  UNL     1      27.186   1.452  52.564  1.00  0.00     0.224 C 
BRANCH  12  13
HETATM   13  N1  UNL     1      28.173   2.434  52.800  1.00  0.00    -0.285 NA
HETATM   14  C1  UNL     1      28.947   2.503  53.790  1.00  0.00     0.145 C 
ENDBRANCH  12  13
BRANCH  12  15
HETATM   15  C3  UNL     1      27.555   0.058  52.712  1.00  0.00     0.139 A 
HETATM   16  C4  UNL     1      27.779  -1.301  52.762  1.00  0.00     0.105 A 
HETATM   17 CL1  UNL     1      26.500  -0.462  51.936  1.00  0.00    -0.195 Cl
BRANCH  16  18
HETATM   18  C5  UNL     1      29.001  -1.732  53.503  1.00  0.00     0.147 A 
HETATM   19  C6  UNL     1      29.983  -0.928  53.504  1.00  0.00     0.223 A 
HETATM   20  F1  UNL     1      28.874  -0.525  52.823  1.00  0.00    -0.389 F 
ENDBRANCH  16  18
ENDBRANCH  12  15
ENDBRANCH  10  12
ENDBRANCH   1  10
BRANCH   8  21
HETATM   21  C12 UNL     1      23.790   2.556  52.755  1.00  0.00     0.311 C 
BRANCH  21  22
HETATM   22  N6  UNL     1      22.457   2.030  52.649  1.00  0.00     0.092 N 
HETATM   23  H13 UNL     1      21.900   2.204  53.486  1.00  0.00     0.316 HD
BRANCH  22  24
HETATM   24  C13 UNL     1      22.467   0.627  52.335  1.00  0.00     0.220 C 
HETATM   25  C14 UNL     1      23.344  -0.161  53.286  1.00  0.00     0.035 C 
HETATM   26  C15 UNL     1      22.609  -1.022  54.254  1.00  0.00     0.002 C 
HETATM   27  C16 UNL     1      21.393  -0.409  54.874  1.00  0.00     0.000 C 
HETATM   28  C17 UNL     1      20.600   0.431  53.867  1.00  0.00     0.002 C 
HETATM   29  C18 UNL     1      21.068   0.020  52.502  1.00  0.00     0.035 C 
ENDBRANCH  22  24
ENDBRANCH  21  22
ENDBRANCH   8  21
TORSDOF 8
ENDMDL
MODEL 2
REMARK VINA RESULT:      -8.2      2.402      6.132
REMARK  8 active torsions:
REMARK  status: ('A' for Active; 'I' for Inactive)
REMARK    1  A    between atoms: N1_2  and  C2_3 
REMARK    2  A    between atoms: C2_3  and  C3_4 
REMARK    3  A    between atoms: C2_3  and  N2_10 
REMARK    4  A    between atoms: C4_5  and  C5_7 
REMARK    5  A    between atoms: N2_10  and  C7_11 
REMARK    6  A    between atoms: C11_18  and  C12_19 
REMARK    7  A    between atoms: C12_19  and  N6_20 
REMARK    8  A    between atoms: N6_20  and  C13_21 
ROOT
HETATM    1  C7  UNL     1      23.460   1.862  50.694  1.00  0.00     0.156 A 
HETATM    2  N3  UNL     1      22.470   1.864  49.803  1.00  0.00    -0.221 NA
HETATM    3  C8  UNL     1      21.360   1.185  49.929  1.00  0.00     0.258 A 
HETATM    4  N4  UNL     1      21.193   0.434  51.022  1.00  0.00    -0.161 NA
HETATM    5  N5  UNL     1      22.150   0.398  51.942  1.00  0.00    -0.240 N 
HETATM    6  C9  UNL     1      22.145  -0.286  53.076  1.00  0.00     0.119 A 
HETATM    7  C10 UNL     1      23.344   0.003  53.685  1.00  0.00     0.030 A 
HETATM    8  C11 UNL     1      24.107   0.889  52.907  1.00  0.00     0.004 A 
HETATM    9  C19 UNL     1      23.302   1.104  51.810  1.00  0.00     0.111 A 
ENDROOT
BRANCH   1  10
HETATM   10  N2  UNL     1      24.662   2.597  50.522  1.00  0.00    -0.349 N 
HETATM   11  H7  UNL     1      25.507   2.145  50.161  1.00  0.00     0.163 HD
BRANCH  10  12
HETATM   12  C2  UNL     1      25.025   4.011  50.719  1.00  0.00     0.224 C 
BRANCH  12  13
HETATM   13  N1  UNL     1      23.825   4.735  50.898  1.00  0.00    -0.285 NA
HETATM   14  C1  UNL     1      23.716   5.954  51.189  1.00  0.00     0.145 C 
ENDBRANCH  12  13
BRANCH  12  15
HETATM   15  C3  UNL     1      26.010   4.532  49.792  1.00  0.00     0.139 A 
HETATM   16  C4  UNL     1      26.992   4.876  48.888  1.00  0.00     0.105 A 
HETATM   17 CL1  UNL     1      26.575   3.285  49.454  1.00  0.00    -0.195 Cl
BRANCH  16  18
HETATM   18  C5  UNL     1      27.081   6.325  48.544  1.00  0.00     0.147 A 
HETATM   19  C6  UNL     1      25.997   6.906  48.230  1.00  0.00     0.223 A 
HETATM   20  F1  UNL     1      25.904   5.582  48.540  1.00  0.00    -0.389 F 
ENDBRANCH  16  18
ENDBRANCH  12  15
ENDBRANCH  10  12
ENDBRANCH   1  10
BRANCH   8  21
HETATM   21  C12 UNL     1      25.407   1.371  53.369  1.00  0.00     0.311 C 
BRANCH  21  22
HETATM   22  N6  UNL     1      26.539   0.661  52.841  1.00  0.00     0.092 N 
HETATM   23  H13 UNL     1      26.373   0.305  51.899  1.00  0.00     0.316 HD
BRANCH  22  24
HETATM   24  C13 UNL     1      26.948  -0.405  53.714  1.00  0.00     0.220 C 
HETATM   25  C14 UNL     1      27.798  -1.433  52.994  1.00  0.00     0.035 C 
HETATM   26  C15 UNL     1      29.242  -1.421  53.358  1.00  0.00     0.002 C 
HETATM   27  C16 UNL     1      29.866  -0.069  53.497  1.00  0.00     0.000 C 
HETATM   28  C17 UNL     1      28.918   0.931  54.168  1.00  0.00     0.002 C 
HETATM   29  C18 UNL     1      27.847   0.124  54.838  1.00  0.00     0.035 C 
ENDBRANCH  22  24
ENDBRANCH  21  22
ENDBRANCH   8  21
TORSDOF 8
ENDMDL
MODEL 3
REMARK VINA RESULT:      -8.2      2.240      5.240
REMARK  8 active torsions:
REMARK  status: ('A' for Active; 'I' for Inactive)
REMARK    1  A    between atoms: N1_2  and  C2_3 
REMARK    2  A    between atoms: C2_3  and  C3_4 
REMARK    3  A    between atoms: C2_3  and  N2_10 
REMARK    4  A    between atoms: C4_5  and  C5_7 
REMARK    5  A    between atoms: N2_10  and  C7_11 
REMARK    6  A    between atoms: C11_18  and  C12_19 
REMARK    7  A    between atoms: C12_19  and  N6_20 
REMARK    8  A    between atoms: N6_20  and  C13_21 
ROOT
HETATM    1  C7  UNL     1      23.276   4.246  51.406  1.00  0.00     0.156 A 
HETATM    2  N3  UNL     1      22.775   5.420  51.025  1.00  0.00    -0.221 NA
HETATM    3  C8  UNL     1      23.379   6.256  50.222  1.00  0.00     0.258 A 
HETATM    4  N4  UNL     1      24.582   5.924  49.743  1.00  0.00    -0.161 NA
HETATM    5  N5  UNL     1      25.126   4.763  50.092  1.00  0.00    -0.240 N 
HETATM    6  C9  UNL     1      26.299   4.282  49.710  1.00  0.00     0.119 A 
HETATM    7  C10 UNL     1      26.414   3.058  50.327  1.00  0.00     0.030 A 
HETATM    8  C11 UNL     1      25.281   2.778  51.109  1.00  0.00     0.004 A 
HETATM    9  C19 UNL     1      24.497   3.896  50.925  1.00  0.00     0.111 A 
ENDROOT
BRANCH   1  10
HETATM   10  N2  UNL     1      22.604   3.364  52.294  1.00  0.00    -0.349 N 
HETATM   11  H7  UNL     1      22.898   3.278  53.271  1.00  0.00     0.163 HD
BRANCH  10  12
HETATM   12  C2  UNL     1      21.439   2.475  52.152  1.00  0.00     0.224 C 
BRANCH  12  13
HETATM   13  N1  UNL     1      20.291   3.223  52.498  1.00  0.00    -0.285 NA
HETATM   14  C1  UNL     1      19.371   3.593  51.724  1.00  0.00     0.145 C 
ENDBRANCH  12  13
BRANCH  12  15
HETATM   15  C3  UNL     1      21.596   1.153  52.727  1.00  0.00     0.139 A 
HETATM   16  C4  UNL     1      21.766  -0.156  53.123  1.00  0.00     0.105 A 
HETATM   17 CL1  UNL     1      21.798   0.480  51.505  1.00  0.00    -0.195 Cl
BRANCH  16  18
HETATM   18  C5  UNL     1      21.748  -0.396  54.596  1.00  0.00     0.147 A 
HETATM   19  C6  UNL     1      22.459  -1.354  55.028  1.00  0.00     0.223 A 
HETATM   20  F1  UNL     1      22.481  -1.146  53.682  1.00  0.00    -0.389 F 
ENDBRANCH  16  18
ENDBRANCH  12  15
ENDBRANCH  10  12
ENDBRANCH   1  10
BRANCH   8  21
HETATM   21  C12 UNL     1      25.158   1.513  51.831  1.00  0.00     0.311 C 
BRANCH  21  22
HETATM   22  N6  UNL     1      25.454   1.587  53.235  1.00  0.00     0.092 N 
HETATM   23  H13 UNL     1      26.317   2.096  53.426  1.00  0.00     0.316 HD
BRANCH  22  24
HETATM   24  C13 UNL     1      25.498   0.281  53.835  1.00  0.00     0.220 C 
HETATM   25  C14 UNL     1      25.852  -0.794  52.827  1.00  0.00     0.035 C 
HETATM   26  C15 UNL     1      27.219  -1.368  52.972  1.00  0.00     0.002 C 
HETATM   27  C16 UNL     1      28.309  -0.384  53.258  1.00  0.00     0.000 C 
HETATM   28  C17 UNL     1      27.851   0.711  54.227  1.00  0.00     0.002 C 
HETATM   29  C18 UNL     1      26.606   0.203  54.892  1.00  0.00     0.035 C 
ENDBRANCH  22  24
ENDBRANCH  21  22
ENDBRANCH   8  21
TORSDOF 8
ENDMDL
MODEL 4
REMARK VINA RESULT:      -8.1      2.379      4.664
REMARK  8 active torsions:
REMARK  status: ('A' for Active; 'I' for Inactive)
REMARK    1  A    between atoms: N1_2  and  C2_3 
REMARK    2  A    between atoms: C2_3  and  C3_4 
REMARK    3  A    between atoms: C2_3  and  N2_10 
REMARK    4  A    between atoms: C4_5  and  C5_7 
REMARK    5  A    between atoms: N2_10  and  C7_11 
REMARK    6  A    between atoms: C11_18  and  C12_19 
REMARK    7  A    between atoms: C12_19  and  N6_20 
REMARK    8  A    between atoms: N6_20  and  C13_21 
ROOT
HETATM    1  C7  UNL     1      25.037  -0.014  53.623  1.00  0.00     0.156 A 
HETATM    2  N3  UNL     1      25.633  -0.607  54.657  1.00  0.00    -0.221 NA
HETATM    3  C8  UNL     1      25.003  -1.255  55.601  1.00  0.00     0.258 A 
HETATM    4  N4  UNL     1      23.671  -1.337  55.538  1.00  0.00    -0.161 NA
HETATM    5  N5  UNL     1      23.028  -0.764  54.527  1.00  0.00    -0.240 N 
HETATM    6  C9  UNL     1      21.721  -0.751  54.314  1.00  0.00     0.119 A 
HETATM    7  C10 UNL     1      21.546  -0.043  53.147  1.00  0.00     0.030 A 
HETATM    8  C11 UNL     1      22.777   0.392  52.629  1.00  0.00     0.004 A 
HETATM    9  C19 UNL     1      23.683  -0.091  53.547  1.00  0.00     0.111 A 
ENDROOT
BRANCH   1  10
HETATM   10  N2  UNL     1      25.747   0.698  52.620  1.00  0.00    -0.349 N 
HETATM   11  H7  UNL     1      25.495   0.604  51.632  1.00  0.00     0.163 HD
BRANCH  10  12
HETATM   12  C2  UNL     1      26.850   1.673  52.655  1.00  0.00     0.224 C 
BRANCH  12  13
HETATM   13  N1  UNL     1      26.926   2.272  51.378  1.00  0.00    -0.285 NA
HETATM   14  C1  UNL     1      26.070   3.025  50.846  1.00  0.00     0.145 C 
ENDBRANCH  12  13
BRANCH  12  15
HETATM   15  C3  UNL     1      28.076   1.197  53.265  1.00  0.00     0.139 A 
HETATM   16  C4  UNL     1      29.279   0.899  53.867  1.00  0.00     0.105 A 
HETATM   17 CL1  UNL     1      28.599   2.471  53.569  1.00  0.00    -0.195 Cl
BRANCH  16  18
HETATM   18  C5  UNL     1      29.575  -0.553  54.045  1.00  0.00     0.147 A 
HETATM   19  C6  UNL     1      28.980  -1.358  53.265  1.00  0.00     0.223 A 
HETATM   20  F1  UNL     1      28.700  -0.035  53.096  1.00  0.00    -0.389 F 
ENDBRANCH  16  18
ENDBRANCH  12  15
ENDBRANCH  10  12
ENDBRANCH   1  10
BRANCH   8  21
HETATM   21  C12 UNL     1      22.846   1.133  51.372  1.00  0.00     0.311 C 
BRANCH  21  22
HETATM   22  N6  UNL     1      22.213   2.423  51.394  1.00  0.00     0.092 N 
HETATM   23  H13 UNL     1      21.677   2.581  52.248  1.00  0.00     0.316 HD
BRANCH  22  24
HETATM   24  C13 UNL     1      21.384   2.626  50.237  1.00  0.00     0.220 C 
HETATM   25  C14 UNL     1      20.801   1.325  49.723  1.00  0.00     0.035 C 
HETATM   26  C15 UNL     1      19.341   1.151  49.963  1.00  0.00     0.002 C 
HETATM   27  C16 UNL     1      18.849   1.577  51.310  1.00  0.00     0.000 C 
HETATM   28  C17 UNL     1      19.539   2.859  51.791  1.00  0.00     0.002 C 
HETATM   29  C18 UNL     1      20.165   3.489  50.583  1.00  0.00     0.035 C 
ENDBRANCH  22  24
ENDBRANCH  21  22
ENDBRANCH   8  21
TORSDOF 8
ENDMDL
MODEL 5
REMARK VINA RESULT:      -8.0      1.692      4.972
REMARK  8 active torsions:
REMARK  status: ('A' for Active; 'I' for Inactive)
REMARK    1  A    between atoms: N1_2  and  C2_3 
REMARK    2  A    between atoms: C2_3  and  C3_4 
REMARK    3  A    between atoms: C2_3  and  N2_10 
REMARK    4  A    between atoms: C4_5  and  C5_7 
REMARK    5  A    between atoms: N2_10  and  C7_11 
REMARK    6  A    between atoms: C11_18  and  C12_19 
REMARK    7  A    between atoms: C12_19  and  N6_20 
REMARK    8  A    between atoms: N6_20  and  C13_21 
ROOT
HETATM    1  C7  UNL     1      23.494  -0.128  53.573  1.00  0.00     0.156 A 
HETATM    2  N3  UNL     1      22.943  -0.953  54.462  1.00  0.00    -0.221 NA
HETATM    3  C8  UNL     1      21.692  -0.906  54.840  1.00  0.00     0.258 A 
HETATM    4  N4  UNL     1      20.900   0.028  54.305  1.00  0.00    -0.161 NA
HETATM    5  N5  UNL     1      21.400   0.875  53.412  1.00  0.00    -0.240 N 
HETATM    6  C9  UNL     1      20.758   1.851  52.788  1.00  0.00     0.119 A 
HETATM    7  C10 UNL     1      21.692   2.439  51.966  1.00  0.00     0.030 A 
HETATM    8  C11 UNL     1      22.941   1.809  52.088  1.00  0.00     0.004 A 
HETATM    9  C19 UNL     1      22.698   0.825  53.021  1.00  0.00     0.111 A 
ENDROOT
BRANCH   1  10
HETATM   10  N2  UNL     1      24.861  -0.192  53.195  1.00  0.00    -0.349 N 
HETATM   11  H7  UNL     1      25.131  -0.486  52.252  1.00  0.00     0.163 HD
BRANCH  10  12
HETATM   12  C2  UNL     1      26.121   0.129  53.885  1.00  0.00     0.224 C 
BRANCH  12  13
HETATM   13  N1  UNL     1      26.255   1.536  53.887  1.00  0.00    -0.285 NA
HETATM   14  C1  UNL     1      27.271   2.197  53.548  1.00  0.00     0.145 C 
ENDBRANCH  12  13
BRANCH  12  15
HETATM   15  C3  UNL     1      27.265  -0.668  53.487  1.00  0.00     0.139 A 
HETATM   16  C4  UNL     1      28.257  -1.490  52.997  1.00  0.00     0.105 A 
HETATM   17 CL1  UNL     1      26.617  -1.348  52.435  1.00  0.00    -0.195 Cl
BRANCH  16  18
HETATM   18  C5  UNL     1      29.594  -1.351  53.644  1.00  0.00     0.147 A 
HETATM   19  C6  UNL     1      30.152  -0.214  53.567  1.00  0.00     0.223 A 
HETATM   20  F1  UNL     1      28.932  -0.329  52.971  1.00  0.00    -0.389 F 
ENDBRANCH  16  18
ENDBRANCH  12  15
ENDBRANCH  10  12
ENDBRANCH   1  10
BRANCH   8  21
HETATM   21  C12 UNL     1      24.083   2.236  51.282  1.00  0.00     0.311 C 
BRANCH  21  22
HETATM   22  N6  UNL     1      24.644   3.506  51.653  1.00  0.00     0.092 N 
HETATM   23  H13 UNL     1      24.012   4.058  52.233  1.00  0.00     0.316 HD
BRANCH  22  24
HETATM   24  C13 UNL     1      25.054   4.260  50.500  1.00  0.00     0.220 C 
HETATM   25  C14 UNL     1      24.353   3.795  49.240  1.00  0.00     0.035 C 
HETATM   26  C15 UNL     1      23.324   4.732  48.709  1.00  0.00     0.002 C 
HETATM   27  C16 UNL     1      22.435   5.367  49.731  1.00  0.00     0.000 C 
HETATM   28  C17 UNL     1      23.203   5.741  51.003  1.00  0.00     0.002 C 
HETATM   29  C18 UNL     1      24.659   5.735  50.643  1.00  0.00     0.035 C 
ENDBRANCH  22  24
ENDBRANCH  21  22
ENDBRANCH   8  21
TORSDOF 8
ENDMDL
MODEL 6
REMARK VINA RESULT:      -8.0      2.497      5.158
REMARK  8 active torsions:
REMARK  status: ('A' for Active; 'I' for Inactive)
REMARK    1  A    between atoms: N1_2  and  C2_3 
REMARK    2  A    between atoms: C2_3  and  C3_4 
REMARK    3  A    between atoms: C2_3  and  N2_10 
REMARK    4  A    between atoms: C4_5  and  C5_7 
REMARK    5  A    between atoms: N2_10  and  C7_11 
REMARK    6  A    between atoms: C11_18  and  C12_19 
REMARK    7  A    between atoms: C12_19  and  N6_20 
REMARK    8  A    between atoms: N6_20  and  C13_21 
ROOT
HETATM    1  C7  UNL     1      26.814   2.123  52.501  1.00  0.00     0.156 A 
HETATM    2  N3  UNL     1      28.120   2.239  52.738  1.00  0.00    -0.221 NA
HETATM    3  C8  UNL     1      28.796   1.466  53.547  1.00  0.00     0.258 A 
HETATM    4  N4  UNL     1      28.147   0.488  54.185  1.00  0.00    -0.161 NA
HETATM    5  N5  UNL     1      26.843   0.328  53.983  1.00  0.00    -0.240 N 
HETATM    6  C9  UNL     1      26.054  -0.585  54.529  1.00  0.00     0.119 A 
HETATM    7  C10 UNL     1      24.803  -0.348  54.008  1.00  0.00     0.030 A 
HETATM    8  C11 UNL     1      24.822   0.739  53.118  1.00  0.00     0.004 A 
HETATM    9  C19 UNL     1      26.142   1.131  53.142  1.00  0.00     0.111 A 
ENDROOT
BRANCH   1  10
HETATM   10  N2  UNL     1      26.102   2.989  51.629  1.00  0.00    -0.349 N 
HETATM   11  H7  UNL     1      25.585   3.793  51.995  1.00  0.00     0.163 HD
BRANCH  10  12
HETATM   12  C2  UNL     1      25.934   3.044  50.167  1.00  0.00     0.224 C 
BRANCH  12  13
HETATM   13  N1  UNL     1      27.028   3.767  49.643  1.00  0.00    -0.285 NA
HETATM   14  C1  UNL     1      26.975   4.792  48.914  1.00  0.00     0.145 C 
ENDBRANCH  12  13
BRANCH  12  15
HETATM   15  C3  UNL     1      24.602   3.387  49.710  1.00  0.00     0.139 A 
HETATM   16  C4  UNL     1      23.321   3.798  49.411  1.00  0.00     0.105 A 
HETATM   17 CL1  UNL     1      24.259   4.180  50.824  1.00  0.00    -0.195 Cl
BRANCH  16  18
HETATM   18  C5  UNL     1      22.790   3.359  48.087  1.00  0.00     0.147 A 
HETATM   19  C6  UNL     1      22.508   2.129  47.963  1.00  0.00     0.223 A 
HETATM   20  F1  UNL     1      22.994   2.516  49.175  1.00  0.00    -0.389 F 
ENDBRANCH  16  18
ENDBRANCH  12  15
ENDBRANCH  10  12
ENDBRANCH   1  10
BRANCH   8  21
HETATM   21  C12 UNL     1      23.614   1.155  52.410  1.00  0.00     0.311 C 
BRANCH  21  22
HETATM   22  N6  UNL     1      22.525   0.220  52.470  1.00  0.00     0.092 N 
HETATM   23  H13 UNL     1      22.318  -0.199  51.563  1.00  0.00     0.316 HD
BRANCH  22  24
HETATM   24  C13 UNL     1      21.343   0.819  53.027  1.00  0.00     0.220 C 
HETATM   25  C14 UNL     1      20.089   0.390  52.292  1.00  0.00     0.035 C 
HETATM   26  C15 UNL     1      19.209  -0.548  53.044  1.00  0.00     0.002 C 
HETATM   27  C16 UNL     1      19.909  -1.637  53.792  1.00  0.00     0.000 C 
HETATM   28  C17 UNL     1      21.204  -1.141  54.445  1.00  0.00     0.002 C 
HETATM   29  C18 UNL     1      21.124   0.357  54.472  1.00  0.00     0.035 C 
ENDBRANCH  22  24
ENDBRANCH  21  22
ENDBRANCH   8  21
TORSDOF 8
ENDMDL
MODEL 7
REMARK VINA RESULT:      -7.9      2.884      6.679
REMARK  8 active torsions:
REMARK  status: ('A' for Active; 'I' for Inactive)
REMARK    1  A    between atoms: N1_2  and  C2_3 
REMARK    2  A    between atoms: C2_3  and  C3_4 
REMARK    3  A    between atoms: C2_3  and  N2_10 
REMARK    4  A    between atoms: C4_5  and  C5_7 
REMARK    5  A    between atoms: N2_10  and  C7_11 
REMARK    6  A    between atoms: C11_18  and  C12_19 
REMARK    7  A    between atoms: C12_19  and  N6_20 
REMARK    8  A    between atoms: N6_20  and  C13_21 
ROOT
HETATM    1  C7  UNL     1      21.275   2.354  52.324  1.00  0.00     0.156 A 
HETATM    2  N3  UNL     1      19.990   2.067  52.122  1.00  0.00    -0.221 NA
HETATM    3  C8  UNL     1      19.466   0.879  52.269  1.00  0.00     0.258 A 
HETATM    4  N4  UNL     1      20.262  -0.126  52.648  1.00  0.00    -0.161 NA
HETATM    5  N5  UNL     1      21.551   0.107  52.863  1.00  0.00    -0.240 N 
HETATM    6  C9  UNL     1      22.471  -0.767  53.242  1.00  0.00     0.119 A 
HETATM    7  C10 UNL     1      23.643  -0.052  53.334  1.00  0.00     0.030 A 
HETATM    8  C11 UNL     1      23.439   1.298  53.004  1.00  0.00     0.004 A 
HETATM    9  C19 UNL     1      22.094   1.342  52.711  1.00  0.00     0.111 A 
ENDROOT
BRANCH   1  10
HETATM   10  N2  UNL     1      21.820   3.653  52.140  1.00  0.00    -0.349 N 
HETATM   11  H7  UNL     1      21.983   4.272  52.939  1.00  0.00     0.163 HD
BRANCH  10  12
HETATM   12  C2  UNL     1      22.293   4.398  50.961  1.00  0.00     0.224 C 
BRANCH  12  13
HETATM   13  N1  UNL     1      21.430   5.501  50.783  1.00  0.00    -0.285 NA
HETATM   14  C1  UNL     1      21.736   6.719  50.863  1.00  0.00     0.145 C 
ENDBRANCH  12  13
BRANCH  12  15
HETATM   15  C3  UNL     1      22.616   3.585  49.805  1.00  0.00     0.139 A 
HETATM   16  C4  UNL     1      23.073   2.868  48.720  1.00  0.00     0.105 A 
HETATM   17 CL1  UNL     1      23.977   3.947  49.741  1.00  0.00    -0.195 Cl
BRANCH  16  18
HETATM   18  C5  UNL     1      22.075   1.970  48.068  1.00  0.00     0.147 A 
HETATM   19  C6  UNL     1      21.553   1.071  48.796  1.00  0.00     0.223 A 
HETATM   20  F1  UNL     1      22.464   1.883  49.401  1.00  0.00    -0.389 F 
ENDBRANCH  16  18
ENDBRANCH  12  15
ENDBRANCH  10  12
ENDBRANCH   1  10
BRANCH   8  21
HETATM   21  C12 UNL     1      24.534   2.263  53.068  1.00  0.00     0.311 C 
BRANCH  21  22
HETATM   22  N6  UNL     1      25.743   1.768  53.666  1.00  0.00     0.092 N 
HETATM   23  H13 UNL     1      25.953   2.222  54.556  1.00  0.00     0.316 HD
BRANCH  22  24
HETATM   24  C13 UNL     1      26.861   1.880  52.770  1.00  0.00     0.220 C 
HETATM   25  C14 UNL     1      28.149   2.192  53.506  1.00  0.00     0.035 C 
HETATM   26  C15 UNL     1      29.121   1.066  53.579  1.00  0.00     0.002 C 
HETATM   27  C16 UNL     1      28.536  -0.280  53.869  1.00  0.00     0.000 C 
HETATM   28  C17 UNL     1      27.200  -0.490  53.146  1.00  0.00     0.002 C 
HETATM   29  C18 UNL     1      27.131   0.546  52.064  1.00  0.00     0.035 C 
ENDBRANCH  22  24
ENDBRANCH  21  22
ENDBRANCH   8  21
TORSDOF 8
ENDMDL
MODEL 8
REMARK VINA RESULT:      -7.8      2.765      6.610
REMARK  8 active torsions:
REMARK  status: ('A' for Active; 'I' for Inactive)
REMARK    1  A    between atoms: N1_2  and  C2_3 
REMARK    2  A    between atoms: C2_3  and  C3_4 
REMARK    3  A    between atoms: C2_3  and  N2_10 
REMARK    4  A    between atoms: C4_5  and  C5_7 
REMARK    5  A    between atoms: N2_10  and  C7_11 
REMARK    6  A    between atoms: C11_18  and  C12_19 
REMARK    7  A    between atoms: C12_19  and  N6_20 
REMARK    8  A    between atoms: N6_20  and  C13_21 
ROOT
HETATM    1  C7  UNL     1      21.087   0.710  52.010  1.00  0.00     0.156 A 
HETATM    2  N3  UNL     1      19.790   0.655  51.710  1.00  0.00    -0.221 NA
HETATM    3  C8  UNL     1      18.920  -0.102  52.325  1.00  0.00     0.258 A 
HETATM    4  N4  UNL     1      19.347  -0.880  53.325  1.00  0.00    -0.161 NA
HETATM    5  N5  UNL     1      20.631  -0.862  53.664  1.00  0.00    -0.240 N 
HETATM    6  C9  UNL     1      21.215  -1.563  54.624  1.00  0.00     0.119 A 
HETATM    7  C10 UNL     1      22.542  -1.199  54.589  1.00  0.00     0.030 A 
HETATM    8  C11 UNL     1      22.780  -0.249  53.582  1.00  0.00     0.004 A 
HETATM    9  C19 UNL     1      21.533  -0.074  53.025  1.00  0.00     0.111 A 
ENDROOT
BRANCH   1  10
HETATM   10  N2  UNL     1      22.012   1.532  51.312  1.00  0.00    -0.349 N 
HETATM   11  H7  UNL     1      22.700   1.123  50.675  1.00  0.00     0.163 HD
BRANCH  10  12
HETATM   12  C2  UNL     1      22.225   2.987  51.243  1.00  0.00     0.224 C 
BRANCH  12  13
HETATM   13  N1  UNL     1      21.177   3.532  50.468  1.00  0.00    -0.285 NA
HETATM   14  C1  UNL     1      21.284   4.379  49.544  1.00  0.00     0.145 C 
ENDBRANCH  12  13
BRANCH  12  15
HETATM   15  C3  UNL     1      23.583   3.399  50.947  1.00  0.00     0.139 A 
HETATM   16  C4  UNL     1      24.878   3.852  50.814  1.00  0.00     0.105 A 
HETATM   17 CL1  UNL     1      23.838   3.992  52.200  1.00  0.00    -0.195 Cl
BRANCH  16  18
HETATM   18  C5  UNL     1      25.549   3.531  49.520  1.00  0.00     0.147 A 
HETATM   19  C6  UNL     1      26.685   4.059  49.318  1.00  0.00     0.223 A 
HETATM   20  F1  UNL     1      26.081   4.361  50.502  1.00  0.00    -0.389 F 
ENDBRANCH  16  18
ENDBRANCH  12  15
ENDBRANCH  10  12
ENDBRANCH   1  10
BRANCH   8  21
HETATM   21  C12 UNL     1      24.112   0.317  53.380  1.00  0.00     0.311 C 
BRANCH  21  22
HETATM   22  N6  UNL     1      25.199  -0.554  53.732  1.00  0.00     0.092 N 
HETATM   23  H13 UNL     1      25.586  -0.344  54.653  1.00  0.00     0.316 HD
BRANCH  22  24
HETATM   24  C13 UNL     1      26.236  -0.534  52.737  1.00  0.00     0.220 C 
HETATM   25  C14 UNL     1      26.255   0.769  51.964  1.00  0.00     0.035 C 
HETATM   26  C15 UNL     1      27.401   1.669  52.275  1.00  0.00     0.002 C 
HETATM   27  C16 UNL     1      27.762   1.785  53.722  1.00  0.00     0.000 C 
HETATM   28  C17 UNL     1      27.647   0.441  54.449  1.00  0.00     0.002 C 
HETATM   29  C18 UNL     1      27.622  -0.620  53.389  1.00  0.00     0.035 C 
ENDBRANCH  22  24
ENDBRANCH  21  22
ENDBRANCH   8  21
TORSDOF 8
ENDMDL
MODEL 9
REMARK VINA RESULT:      -7.8      1.997      5.136
REMARK  8 active torsions:
REMARK  status: ('A' for Active; 'I' for Inactive)
REMARK    1  A    between atoms: N1_2  and  C2_3 
REMARK    2  A    between atoms: C2_3  and  C3_4 
REMARK    3  A    between atoms: C2_3  and  N2_10 
REMARK    4  A    between atoms: C4_5  and  C5_7 
REMARK    5  A    between atoms: N2_10  and  C7_11 
REMARK    6  A    between atoms: C11_18  and  C12_19 
REMARK    7  A    between atoms: C12_19  and  N6_20 
REMARK    8  A    between atoms: N6_20  and  C13_21 
ROOT
HETATM    1  C7  UNL     1      24.688  -0.380  53.691  1.00  0.00     0.156 A 
HETATM    2  N3  UNL     1      25.202  -0.998  54.754  1.00  0.00    -0.221 NA
HETATM    3  C8  UNL     1      24.495  -1.478  55.743  1.00  0.00     0.258 A 
HETATM    4  N4  UNL     1      23.165  -1.349  55.698  1.00  0.00    -0.161 NA
HETATM    5  N5  UNL     1      22.603  -0.741  54.659  1.00  0.00    -0.240 N 
HETATM    6  C9  UNL     1      21.311  -0.532  54.458  1.00  0.00     0.119 A 
HETATM    7  C10 UNL     1      21.229   0.124  53.251  1.00  0.00     0.030 A 
HETATM    8  C11 UNL     1      22.503   0.324  52.695  1.00  0.00     0.004 A 
HETATM    9  C19 UNL     1      23.338  -0.243  53.633  1.00  0.00     0.111 A 
ENDROOT
BRANCH   1  10
HETATM   10  N2  UNL     1      25.483   0.148  52.639  1.00  0.00    -0.349 N 
HETATM   11  H7  UNL     1      25.468  -0.275  51.707  1.00  0.00     0.163 HD
BRANCH  10  12
HETATM   12  C2  UNL     1      26.394   1.300  52.535  1.00  0.00     0.224 C 
BRANCH  12  13
HETATM   13  N1  UNL     1      26.303   1.793  51.214  1.00  0.00    -0.285 NA
HETATM   14  C1  UNL     1      26.597   2.952  50.820  1.00  0.00     0.145 C 
ENDBRANCH  12  13
BRANCH  12  15
HETATM   15  C3  UNL     1      27.713   1.099  53.103  1.00  0.00     0.139 A 
HETATM   16  C4  UNL     1      28.942   1.043  53.724  1.00  0.00     0.105 A 
HETATM   17 CL1  UNL     1      27.706   2.251  53.915  1.00  0.00    -0.195 Cl
BRANCH  16  18
HETATM   18  C5  UNL     1      29.776  -0.154  53.410  1.00  0.00     0.147 A 
HETATM   19  C6  UNL     1      29.215  -1.287  53.517  1.00  0.00     0.223 A 
HETATM   20  F1  UNL     1      28.444  -0.202  53.809  1.00  0.00    -0.389 F 
ENDBRANCH  16  18
ENDBRANCH  12  15
ENDBRANCH  10  12
ENDBRANCH   1  10
BRANCH   8  21
HETATM   21  C12 UNL     1      22.666   0.968  51.394  1.00  0.00     0.311 C 
BRANCH  21  22
HETATM   22  N6  UNL     1      23.052   2.351  51.447  1.00  0.00     0.092 N 
HETATM   23  H13 UNL     1      23.523   2.592  52.320  1.00  0.00     0.316 HD
BRANCH  22  24
HETATM   24  C13 UNL     1      21.931   3.222  51.225  1.00  0.00     0.220 C 
HETATM   25  C14 UNL     1      22.007   4.473  52.076  1.00  0.00     0.035 C 
HETATM   26  C15 UNL     1      22.327   5.723  51.332  1.00  0.00     0.002 C 
HETATM   27  C16 UNL     1      23.390   5.602  50.286  1.00  0.00     0.000 C 
HETATM   28  C17 UNL     1      23.288   4.279  49.519  1.00  0.00     0.002 C 
HETATM   29  C18 UNL     1      21.915   3.735  49.780  1.00  0.00     0.035 C 
ENDBRANCH  22  24
ENDBRANCH  21  22
ENDBRANCH   8  21
TORSDOF 8
ENDMDL
