MODEL 1
REMARK VINA RESULT:      -7.1      0.000      0.000
REMARK  7 active torsions:
REMARK  status: ('A' for Active; 'I' for Inactive)
REMARK    1  A    between atoms: C1_2  and  C2_3 
REMARK    2  A    between atoms: C2_3  and  C3_4 
REMARK    3  A    between atoms: C3_4  and  S1_5 
REMARK    4  A    between atoms: S1_5  and  C4_6 
REMARK    5  A    between atoms: C5_7  and  C6_8 
REMARK    6  A    between atoms: C9_13  and  N3_14 
REMARK    7  A    between atoms: N3_14  and  C10_15 
ROOT
HETATM    1  C6  UNL     1      24.422   2.732  51.546  1.00  0.00     0.028 A 
HETATM    2  C7  UNL     1      24.244   3.168  50.249  1.00  0.00     0.133 A 
HETATM    3  N1  UNL     1      25.299   3.390  49.452  1.00  0.00    -0.253 NA
HETATM    4  C8  UNL     1      26.524   3.178  49.947  1.00  0.00     0.234 A 
HETATM    5  N2  UNL     1      26.729   2.750  51.219  1.00  0.00    -0.224 NA
HETATM    6  C9  UNL     1      25.682   2.508  52.070  1.00  0.00     0.141 A 
ENDROOT
BRANCH   6   7
HETATM    7  N3  UNL     1      25.810   2.061  53.435  1.00  0.00    -0.340 N 
HETATM    8  H10 UNL     1      25.507   2.644  54.247  1.00  0.00     0.167 HD
BRANCH   7   9
HETATM    9  C10 UNL     1      26.413   0.759  53.270  1.00  0.00     0.035 A 
HETATM   10  C11 UNL     1      25.712  -0.363  52.849  1.00  0.00     0.032 A 
HETATM   11  C12 UNL     1      26.419  -1.551  52.695  1.00  0.00     0.046 A 
HETATM   12  C13 UNL     1      27.766  -1.586  52.958  1.00  0.00     0.138 A 
HETATM   13  F1  UNL     1      28.435  -2.771  52.792  1.00  0.00    -0.204 F 
HETATM   14  C14 UNL     1      28.454  -0.470  53.378  1.00  0.00     0.074 A 
HETATM   15 CL1  UNL     1      30.192  -0.521  53.719  1.00  0.00    -0.081 Cl
HETATM   16  C15 UNL     1      27.767   0.710  53.534  1.00  0.00     0.056 A 
ENDBRANCH   7   9
ENDBRANCH   6   7
BRANCH   1  17
HETATM   17  C5  UNL     1      23.223   2.482  52.353  1.00  0.00     0.023 C 
HETATM   18  C4  UNL     1      22.137   1.879  51.912  1.00  0.00     0.046 C 
BRANCH  18  19
HETATM   19  S1  UNL     1      20.671   1.558  52.847  1.00  0.00    -0.141 SA
BRANCH  19  20
HETATM   20  C3  UNL     1      20.921   0.381  54.204  1.00  0.00     0.085 C 
BRANCH  20  21
HETATM   21  C2  UNL     1      21.821  -0.759  53.790  1.00  0.00     0.080 C 
BRANCH  21  22
HETATM   22  C1  UNL     1      22.771  -1.062  54.874  1.00  0.00     0.231 C 
HETATM   23  O1  UNL     1      22.668  -1.967  55.678  1.00  0.00    -0.307 OA
ENDBRANCH  21  22
ENDBRANCH  20  21
ENDBRANCH  19  20
ENDBRANCH  18  19
ENDBRANCH   1  17
TORSDOF 7
ENDMDL
MODEL 2
REMARK VINA RESULT:      -6.6      3.750      5.342
REMARK  7 active torsions:
REMARK  status: ('A' for Active; 'I' for Inactive)
REMARK    1  A    between atoms: C1_2  and  C2_3 
REMARK    2  A    between atoms: C2_3  and  C3_4 
REMARK    3  A    between atoms: C3_4  and  S1_5 
REMARK    4  A    between atoms: S1_5  and  C4_6 
REMARK    5  A    between atoms: C5_7  and  C6_8 
REMARK    6  A    between atoms: C9_13  and  N3_14 
REMARK    7  A    between atoms: N3_14  and  C10_15 
ROOT
HETATM    1  C6  UNL     1      25.204   2.425  52.667  1.00  0.00     0.028 A 
HETATM    2  C7  UNL     1      25.779   2.220  53.905  1.00  0.00     0.133 A 
HETATM    3  N1  UNL     1      27.112   2.150  54.036  1.00  0.00    -0.253 NA
HETATM    4  C8  UNL     1      27.865   2.282  52.937  1.00  0.00     0.234 A 
HETATM    5  N2  UNL     1      27.326   2.483  51.708  1.00  0.00    -0.224 NA
HETATM    6  C9  UNL     1      25.970   2.563  51.524  1.00  0.00     0.141 A 
ENDROOT
BRANCH   6   7
HETATM    7  N3  UNL     1      25.316   2.766  50.256  1.00  0.00    -0.340 N 
HETATM    8  H10 UNL     1      24.648   2.073  49.853  1.00  0.00     0.167 HD
BRANCH   7   9
HETATM    9  C10 UNL     1      25.853   4.042  49.841  1.00  0.00     0.035 A 
HETATM   10  C11 UNL     1      26.979   4.175  49.040  1.00  0.00     0.032 A 
HETATM   11  C12 UNL     1      27.373   5.460  48.681  1.00  0.00     0.046 A 
HETATM   12  C13 UNL     1      26.653   6.545  49.118  1.00  0.00     0.138 A 
HETATM   13  F1  UNL     1      27.064   7.797  48.742  1.00  0.00    -0.204 F 
HETATM   14  C14 UNL     1      25.539   6.404  49.914  1.00  0.00     0.074 A 
HETATM   15 CL1  UNL     1      24.616   7.807  50.478  1.00  0.00    -0.081 Cl
HETATM   16  C15 UNL     1      25.139   5.140  50.276  1.00  0.00     0.056 A 
ENDBRANCH   7   9
ENDBRANCH   6   7
BRANCH   1  17
HETATM   17  C5  UNL     1      23.742   2.520  52.601  1.00  0.00     0.023 C 
HETATM   18  C4  UNL     1      22.926   1.486  52.556  1.00  0.00     0.046 C 
BRANCH  18  19
HETATM   19  S1  UNL     1      21.161   1.553  52.476  1.00  0.00    -0.141 SA
BRANCH  19  20
HETATM   20  C3  UNL     1      20.343   0.283  53.478  1.00  0.00     0.085 C 
BRANCH  20  21
HETATM   21  C2  UNL     1      21.139  -0.043  54.719  1.00  0.00     0.080 C 
BRANCH  21  22
HETATM   22  C1  UNL     1      21.659  -1.418  54.630  1.00  0.00     0.231 C 
HETATM   23  O1  UNL     1      22.383  -1.960  55.441  1.00  0.00    -0.307 OA
ENDBRANCH  21  22
ENDBRANCH  20  21
ENDBRANCH  19  20
ENDBRANCH  18  19
ENDBRANCH   1  17
TORSDOF 7
ENDMDL
MODEL 3
REMARK VINA RESULT:      -6.6      2.089      2.645
REMARK  7 active torsions:
REMARK  status: ('A' for Active; 'I' for Inactive)
REMARK    1  A    between atoms: C1_2  and  C2_3 
REMARK    2  A    between atoms: C2_3  and  C3_4 
REMARK    3  A    between atoms: C3_4  and  S1_5 
REMARK    4  A    between atoms: S1_5  and  C4_6 
REMARK    5  A    between atoms: C5_7  and  C6_8 
REMARK    6  A    between atoms: C9_13  and  N3_14 
REMARK    7  A    between atoms: N3_14  and  C10_15 
ROOT
HETATM    1  C6  UNL     1      24.628   2.590  51.567  1.00  0.00     0.028 A 
HETATM    2  C7  UNL     1      24.339   2.827  50.238  1.00  0.00     0.133 A 
HETATM    3  N1  UNL     1      25.312   3.149  49.374  1.00  0.00    -0.253 NA
HETATM    4  C8  UNL     1      26.566   3.235  49.834  1.00  0.00     0.234 A 
HETATM    5  N2  UNL     1      26.879   3.007  51.135  1.00  0.00    -0.224 NA
HETATM    6  C9  UNL     1      25.919   2.674  52.055  1.00  0.00     0.141 A 
ENDROOT
BRANCH   6   7
HETATM    7  N3  UNL     1      26.163   2.424  53.454  1.00  0.00    -0.340 N 
HETATM    8  H10 UNL     1      25.656   2.935  54.211  1.00  0.00     0.167 HD
BRANCH   7   9
HETATM    9  C10 UNL     1      27.187   1.406  53.405  1.00  0.00     0.035 A 
HETATM   10  C11 UNL     1      28.510   1.633  53.758  1.00  0.00     0.032 A 
HETATM   11  C12 UNL     1      29.391   0.558  53.701  1.00  0.00     0.046 A 
HETATM   12  C13 UNL     1      28.942  -0.676  53.303  1.00  0.00     0.138 A 
HETATM   13  F1  UNL     1      29.834  -1.716  53.262  1.00  0.00    -0.204 F 
HETATM   14  C14 UNL     1      27.628  -0.893  52.951  1.00  0.00     0.074 A 
HETATM   15 CL1  UNL     1      27.053  -2.487  52.435  1.00  0.00    -0.081 Cl
HETATM   16  C15 UNL     1      26.747   0.161  53.004  1.00  0.00     0.056 A 
ENDBRANCH   7   9
ENDBRANCH   6   7
BRANCH   1  17
HETATM   17  C5  UNL     1      23.519   2.214  52.451  1.00  0.00     0.023 C 
HETATM   18  C4  UNL     1      22.962   1.021  52.486  1.00  0.00     0.046 C 
BRANCH  18  19
HETATM   19  S1  UNL     1      21.625   0.525  53.533  1.00  0.00    -0.141 SA
BRANCH  19  20
HETATM   20  C3  UNL     1      20.082   0.211  52.634  1.00  0.00     0.085 C 
BRANCH  20  21
HETATM   21  C2  UNL     1      19.911   1.163  51.475  1.00  0.00     0.080 C 
BRANCH  21  22
HETATM   22  C1  UNL     1      19.226   2.384  51.930  1.00  0.00     0.231 C 
HETATM   23  O1  UNL     1      19.764   3.388  52.352  1.00  0.00    -0.307 OA
ENDBRANCH  21  22
ENDBRANCH  20  21
ENDBRANCH  19  20
ENDBRANCH  18  19
ENDBRANCH   1  17
TORSDOF 7
ENDMDL
MODEL 4
REMARK VINA RESULT:      -6.6      2.431      4.330
REMARK  7 active torsions:
REMARK  status: ('A' for Active; 'I' for Inactive)
REMARK    1  A    between atoms: C1_2  and  C2_3 
REMARK    2  A    between atoms: C2_3  and  C3_4 
REMARK    3  A    between atoms: C3_4  and  S1_5 
REMARK    4  A    between atoms: S1_5  and  C4_6 
REMARK    5  A    between atoms: C5_7  and  C6_8 
REMARK    6  A    between atoms: C9_13  and  N3_14 
REMARK    7  A    between atoms: N3_14  and  C10_15 
ROOT
HETATM    1  C6  UNL     1      22.767  -0.204  53.362  1.00  0.00     0.028 A 
HETATM    2  C7  UNL     1      21.954  -0.841  54.277  1.00  0.00     0.133 A 
HETATM    3  N1  UNL     1      22.477  -1.426  55.364  1.00  0.00    -0.253 NA
HETATM    4  C8  UNL     1      23.803  -1.375  55.537  1.00  0.00     0.234 A 
HETATM    5  N2  UNL     1      24.626  -0.756  54.653  1.00  0.00    -0.224 NA
HETATM    6  C9  UNL     1      24.138  -0.143  53.528  1.00  0.00     0.141 A 
ENDROOT
BRANCH   6   7
HETATM    7  N3  UNL     1      24.941   0.528  52.535  1.00  0.00    -0.340 N 
HETATM    8  H10 UNL     1      24.527   1.160  51.814  1.00  0.00     0.167 HD
BRANCH   7   9
HETATM    9  C10 UNL     1      26.270   0.064  52.858  1.00  0.00     0.035 A 
HETATM   10  C11 UNL     1      26.722  -1.218  52.580  1.00  0.00     0.032 A 
HETATM   11  C12 UNL     1      28.038  -1.530  52.909  1.00  0.00     0.046 A 
HETATM   12  C13 UNL     1      28.841  -0.581  53.491  1.00  0.00     0.138 A 
HETATM   13  F1  UNL     1      30.134  -0.917  53.799  1.00  0.00    -0.204 F 
HETATM   14  C14 UNL     1      28.384   0.689  53.767  1.00  0.00     0.074 A 
HETATM   15 CL1  UNL     1      29.424   1.909  54.521  1.00  0.00    -0.081 Cl
HETATM   16  C15 UNL     1      27.087   1.009  53.446  1.00  0.00     0.056 A 
ENDBRANCH   7   9
ENDBRANCH   6   7
BRANCH   1  17
HETATM   17  C5  UNL     1      22.125   0.438  52.210  1.00  0.00     0.023 C 
HETATM   18  C4  UNL     1      21.562   1.630  52.234  1.00  0.00     0.046 C 
BRANCH  18  19
HETATM   19  S1  UNL     1      20.778   2.441  50.873  1.00  0.00    -0.141 SA
BRANCH  19  20
HETATM   20  C3  UNL     1      21.907   3.473  49.899  1.00  0.00     0.085 C 
BRANCH  20  21
HETATM   21  C2  UNL     1      23.090   2.680  49.396  1.00  0.00     0.080 C 
BRANCH  21  22
HETATM   22  C1  UNL     1      24.326   3.182  50.018  1.00  0.00     0.231 C 
HETATM   23  O1  UNL     1      24.573   3.191  51.208  1.00  0.00    -0.307 OA
ENDBRANCH  21  22
ENDBRANCH  20  21
ENDBRANCH  19  20
ENDBRANCH  18  19
ENDBRANCH   1  17
TORSDOF 7
ENDMDL
MODEL 5
REMARK VINA RESULT:      -6.6      4.206      6.100
REMARK  7 active torsions:
REMARK  status: ('A' for Active; 'I' for Inactive)
REMARK    1  A    between atoms: C1_2  and  C2_3 
REMARK    2  A    between atoms: C2_3  and  C3_4 
REMARK    3  A    between atoms: C3_4  and  S1_5 
REMARK    4  A    between atoms: S1_5  and  C4_6 
REMARK    5  A    between atoms: C5_7  and  C6_8 
REMARK    6  A    between atoms: C9_13  and  N3_14 
REMARK    7  A    between atoms: N3_14  and  C10_15 
ROOT
HETATM    1  C6  UNL     1      27.465   1.416  52.772  1.00  0.00     0.028 A 
HETATM    2  C7  UNL     1      28.316   2.233  53.490  1.00  0.00     0.133 A 
HETATM    3  N1  UNL     1      28.948   1.772  54.578  1.00  0.00    -0.253 NA
HETATM    4  C8  UNL     1      28.732   0.504  54.948  1.00  0.00     0.234 A 
HETATM    5  N2  UNL     1      27.901  -0.321  54.262  1.00  0.00    -0.224 NA
HETATM    6  C9  UNL     1      27.234   0.104  53.143  1.00  0.00     0.141 A 
ENDROOT
BRANCH   6   7
HETATM    7  N3  UNL     1      26.328  -0.701  52.362  1.00  0.00    -0.340 N 
HETATM    8  H10 UNL     1      26.598  -1.117  51.443  1.00  0.00     0.167 HD
BRANCH   7   9
HETATM    9  C10 UNL     1      25.137  -0.694  53.180  1.00  0.00     0.035 A 
HETATM   10  C11 UNL     1      25.122  -1.072  54.515  1.00  0.00     0.032 A 
HETATM   11  C12 UNL     1      23.915  -0.985  55.202  1.00  0.00     0.046 A 
HETATM   12  C13 UNL     1      22.790  -0.537  54.556  1.00  0.00     0.138 A 
HETATM   13  F1  UNL     1      21.617  -0.459  55.261  1.00  0.00    -0.204 F 
HETATM   14  C14 UNL     1      22.812  -0.166  53.230  1.00  0.00     0.074 A 
HETATM   15 CL1  UNL     1      21.356   0.408  52.400  1.00  0.00    -0.081 Cl
HETATM   16  C15 UNL     1      23.998  -0.247  52.540  1.00  0.00     0.056 A 
ENDBRANCH   7   9
ENDBRANCH   6   7
BRANCH   1  17
HETATM   17  C5  UNL     1      26.828   1.977  51.576  1.00  0.00     0.023 C 
HETATM   18  C4  UNL     1      25.861   2.873  51.593  1.00  0.00     0.046 C 
BRANCH  18  19
HETATM   19  S1  UNL     1      25.066   3.575  50.178  1.00  0.00    -0.141 SA
BRANCH  19  20
HETATM   20  C3  UNL     1      25.262   5.374  50.057  1.00  0.00     0.085 C 
BRANCH  20  21
HETATM   21  C2  UNL     1      26.288   5.751  49.015  1.00  0.00     0.080 C 
BRANCH  21  22
HETATM   22  C1  UNL     1      27.265   4.661  48.861  1.00  0.00     0.231 C 
HETATM   23  O1  UNL     1      28.404   4.777  48.455  1.00  0.00    -0.307 OA
ENDBRANCH  21  22
ENDBRANCH  20  21
ENDBRANCH  19  20
ENDBRANCH  18  19
ENDBRANCH   1  17
TORSDOF 7
ENDMDL
MODEL 6
REMARK VINA RESULT:      -6.4      2.545      4.125
REMARK  7 active torsions:
REMARK  status: ('A' for Active; 'I' for Inactive)
REMARK    1  A    between atoms: C1_2  and  C2_3 
REMARK    2  A    between atoms: C2_3  and  C3_4 
REMARK    3  A    between atoms: C3_4  and  S1_5 
REMARK    4  A    between atoms: S1_5  and  C4_6 
REMARK    5  A    between atoms: C5_7  and  C6_8 
REMARK    6  A    between atoms: C9_13  and  N3_14 
REMARK    7  A    between atoms: N3_14  and  C10_15 
ROOT
HETATM    1  C6  UNL     1      22.811  -0.498  53.569  1.00  0.00     0.028 A 
HETATM    2  C7  UNL     1      22.174  -1.159  54.599  1.00  0.00     0.133 A 
HETATM    3  N1  UNL     1      22.866  -1.598  55.660  1.00  0.00    -0.253 NA
HETATM    4  C8  UNL     1      24.186  -1.379  55.692  1.00  0.00     0.234 A 
HETATM    5  N2  UNL     1      24.838  -0.732  54.693  1.00  0.00    -0.224 NA
HETATM    6  C9  UNL     1      24.174  -0.265  53.589  1.00  0.00     0.141 A 
ENDROOT
BRANCH   6   7
HETATM    7  N3  UNL     1      24.789   0.423  52.480  1.00  0.00    -0.340 N 
HETATM    8  H10 UNL     1      24.238   0.789  51.673  1.00  0.00     0.167 HD
BRANCH   7   9
HETATM    9  C10 UNL     1      26.186   0.396  52.848  1.00  0.00     0.035 A 
HETATM   10  C11 UNL     1      26.881   1.510  53.297  1.00  0.00     0.032 A 
HETATM   11  C12 UNL     1      28.216   1.344  53.653  1.00  0.00     0.046 A 
HETATM   12  C13 UNL     1      28.802   0.107  53.554  1.00  0.00     0.138 A 
HETATM   13  F1  UNL     1      30.117  -0.026  53.917  1.00  0.00    -0.204 F 
HETATM   14  C14 UNL     1      28.106  -0.994  53.105  1.00  0.00     0.074 A 
HETATM   15 CL1  UNL     1      28.869  -2.587  52.974  1.00  0.00    -0.081 Cl
HETATM   16  C15 UNL     1      26.788  -0.842  52.749  1.00  0.00     0.056 A 
ENDBRANCH   7   9
ENDBRANCH   6   7
BRANCH   1  17
HETATM   17  C5  UNL     1      21.988  -0.021  52.452  1.00  0.00     0.023 C 
HETATM   18  C4  UNL     1      21.226   1.053  52.490  1.00  0.00     0.046 C 
BRANCH  18  19
HETATM   19  S1  UNL     1      20.219   1.664  51.171  1.00  0.00    -0.141 SA
BRANCH  19  20
HETATM   20  C3  UNL     1      18.460   1.267  51.361  1.00  0.00     0.085 C 
BRANCH  20  21
HETATM   21  C2  UNL     1      18.217  -0.222  51.301  1.00  0.00     0.080 C 
BRANCH  21  22
HETATM   22  C1  UNL     1      17.914  -0.731  52.649  1.00  0.00     0.231 C 
HETATM   23  O1  UNL     1      18.699  -1.279  53.397  1.00  0.00    -0.307 OA
ENDBRANCH  21  22
ENDBRANCH  20  21
ENDBRANCH  19  20
ENDBRANCH  18  19
ENDBRANCH   1  17
TORSDOF 7
ENDMDL
MODEL 7
REMARK VINA RESULT:      -6.3      4.925      7.505
REMARK  7 active torsions:
REMARK  status: ('A' for Active; 'I' for Inactive)
REMARK    1  A    between atoms: C1_2  and  C2_3 
REMARK    2  A    between atoms: C2_3  and  C3_4 
REMARK    3  A    between atoms: C3_4  and  S1_5 
REMARK    4  A    between atoms: S1_5  and  C4_6 
REMARK    5  A    between atoms: C5_7  and  C6_8 
REMARK    6  A    between atoms: C9_13  and  N3_14 
REMARK    7  A    between atoms: N3_14  and  C10_15 
ROOT
HETATM    1  C6  UNL     1      23.535  -0.328  53.821  1.00  0.00     0.028 A 
HETATM    2  C7  UNL     1      23.393  -1.012  55.012  1.00  0.00     0.133 A 
HETATM    3  N1  UNL     1      22.248  -1.644  55.305  1.00  0.00    -0.253 NA
HETATM    4  C8  UNL     1      21.249  -1.592  54.415  1.00  0.00     0.234 A 
HETATM    5  N2  UNL     1      21.361  -0.928  53.238  1.00  0.00    -0.224 NA
HETATM    6  C9  UNL     1      22.512  -0.268  52.893  1.00  0.00     0.141 A 
ENDROOT
BRANCH   6   7
HETATM    7  N3  UNL     1      22.712   0.468  51.669  1.00  0.00    -0.340 N 
HETATM    8  H10 UNL     1      23.518   0.286  51.031  1.00  0.00     0.167 HD
BRANCH   7   9
HETATM    9  C10 UNL     1      21.592   1.381  51.681  1.00  0.00     0.035 A 
HETATM   10  C11 UNL     1      21.584   2.575  52.388  1.00  0.00     0.032 A 
HETATM   11  C12 UNL     1      20.456   3.383  52.287  1.00  0.00     0.046 A 
HETATM   12  C13 UNL     1      19.398   2.988  51.506  1.00  0.00     0.138 A 
HETATM   13  F1  UNL     1      18.304   3.809  51.423  1.00  0.00    -0.204 F 
HETATM   14  C14 UNL     1      19.413   1.801  50.809  1.00  0.00     0.074 A 
HETATM   15 CL1  UNL     1      18.043   1.294  49.806  1.00  0.00    -0.081 Cl
HETATM   16  C15 UNL     1      20.521   0.993  50.901  1.00  0.00     0.056 A 
ENDBRANCH   7   9
ENDBRANCH   6   7
BRANCH   1  17
HETATM   17  C5  UNL     1      24.825   0.316  53.554  1.00  0.00     0.023 C 
HETATM   18  C4  UNL     1      25.926  -0.325  53.216  1.00  0.00     0.046 C 
BRANCH  18  19
HETATM   19  S1  UNL     1      27.501   0.409  52.885  1.00  0.00    -0.141 SA
BRANCH  19  20
HETATM   20  C3  UNL     1      28.727   0.107  54.186  1.00  0.00     0.085 C 
BRANCH  20  21
HETATM   21  C2  UNL     1      29.765  -0.898  53.748  1.00  0.00     0.080 C 
BRANCH  21  22
HETATM   22  C1  UNL     1      29.104  -2.049  53.108  1.00  0.00     0.231 C 
HETATM   23  O1  UNL     1      28.956  -3.150  53.601  1.00  0.00    -0.307 OA
ENDBRANCH  21  22
ENDBRANCH  20  21
ENDBRANCH  19  20
ENDBRANCH  18  19
ENDBRANCH   1  17
TORSDOF 7
ENDMDL
MODEL 8
REMARK VINA RESULT:      -6.3      3.617      5.067
REMARK  7 active torsions:
REMARK  status: ('A' for Active; 'I' for Inactive)
REMARK    1  A    between atoms: C1_2  and  C2_3 
REMARK    2  A    between atoms: C2_3  and  C3_4 
REMARK    3  A    between atoms: C3_4  and  S1_5 
REMARK    4  A    between atoms: S1_5  and  C4_6 
REMARK    5  A    between atoms: C5_7  and  C6_8 
REMARK    6  A    between atoms: C9_13  and  N3_14 
REMARK    7  A    between atoms: N3_14  and  C10_15 
ROOT
HETATM    1  C6  UNL     1      27.291   1.355  52.695  1.00  0.00     0.028 A 
HETATM    2  C7  UNL     1      28.107   2.271  53.328  1.00  0.00     0.133 A 
HETATM    3  N1  UNL     1      28.821   1.919  54.406  1.00  0.00    -0.253 NA
HETATM    4  C8  UNL     1      28.720   0.660  54.851  1.00  0.00     0.234 A 
HETATM    5  N2  UNL     1      27.926  -0.260  54.248  1.00  0.00    -0.224 NA
HETATM    6  C9  UNL     1      27.178   0.052  53.142  1.00  0.00     0.141 A 
ENDROOT
BRANCH   6   7
HETATM    7  N3  UNL     1      26.304  -0.860  52.448  1.00  0.00    -0.340 N 
HETATM    8  H10 UNL     1      26.585  -1.344  51.566  1.00  0.00     0.167 HD
BRANCH   7   9
HETATM    9  C10 UNL     1      25.121  -0.833  53.277  1.00  0.00     0.035 A 
HETATM   10  C11 UNL     1      25.140  -1.053  54.647  1.00  0.00     0.032 A 
HETATM   11  C12 UNL     1      23.935  -0.963  55.337  1.00  0.00     0.046 A 
HETATM   12  C13 UNL     1      22.778  -0.666  54.660  1.00  0.00     0.138 A 
HETATM   13  F1  UNL     1      21.609  -0.580  55.369  1.00  0.00    -0.204 F 
HETATM   14  C14 UNL     1      22.767  -0.452  53.300  1.00  0.00     0.074 A 
HETATM   15 CL1  UNL     1      21.271  -0.073  52.430  1.00  0.00    -0.081 Cl
HETATM   16  C15 UNL     1      23.950  -0.538  52.607  1.00  0.00     0.056 A 
ENDBRANCH   7   9
ENDBRANCH   6   7
BRANCH   1  17
HETATM   17  C5  UNL     1      26.560   1.802  51.504  1.00  0.00     0.023 C 
HETATM   18  C4  UNL     1      25.624   2.729  51.504  1.00  0.00     0.046 C 
BRANCH  18  19
HETATM   19  S1  UNL     1      24.719   3.297  50.095  1.00  0.00    -0.141 SA
BRANCH  19  20
HETATM   20  C3  UNL     1      22.984   3.681  50.457  1.00  0.00     0.085 C 
BRANCH  20  21
HETATM   21  C2  UNL     1      22.547   3.086  51.774  1.00  0.00     0.080 C 
BRANCH  21  22
HETATM   22  C1  UNL     1      21.380   3.821  52.289  1.00  0.00     0.231 C 
HETATM   23  O1  UNL     1      20.343   3.325  52.683  1.00  0.00    -0.307 OA
ENDBRANCH  21  22
ENDBRANCH  20  21
ENDBRANCH  19  20
ENDBRANCH  18  19
ENDBRANCH   1  17
TORSDOF 7
ENDMDL
MODEL 9
REMARK VINA RESULT:      -6.3      2.886      4.746
REMARK  7 active torsions:
REMARK  status: ('A' for Active; 'I' for Inactive)
REMARK    1  A    between atoms: C1_2  and  C2_3 
REMARK    2  A    between atoms: C2_3  and  C3_4 
REMARK    3  A    between atoms: C3_4  and  S1_5 
REMARK    4  A    between atoms: S1_5  and  C4_6 
REMARK    5  A    between atoms: C5_7  and  C6_8 
REMARK    6  A    between atoms: C9_13  and  N3_14 
REMARK    7  A    between atoms: N3_14  and  C10_15 
ROOT
HETATM    1  C6  UNL     1      23.158   1.770  52.160  1.00  0.00     0.028 A 
HETATM    2  C7  UNL     1      21.984   1.673  52.880  1.00  0.00     0.133 A 
HETATM    3  N1  UNL     1      21.767   0.632  53.696  1.00  0.00    -0.253 NA
HETATM    4  C8  UNL     1      22.716  -0.307  53.793  1.00  0.00     0.234 A 
HETATM    5  N2  UNL     1      23.879  -0.238  53.097  1.00  0.00    -0.224 NA
HETATM    6  C9  UNL     1      24.147   0.807  52.251  1.00  0.00     0.141 A 
ENDROOT
BRANCH   6   7
HETATM    7  N3  UNL     1      25.349   0.955  51.470  1.00  0.00    -0.340 N 
HETATM    8  H10 UNL     1      25.332   1.196  50.454  1.00  0.00     0.167 HD
BRANCH   7   9
HETATM    9  C10 UNL     1      26.378   0.678  52.446  1.00  0.00     0.035 A 
HETATM   10  C11 UNL     1      26.710   1.546  53.477  1.00  0.00     0.032 A 
HETATM   11  C12 UNL     1      27.696   1.144  54.373  1.00  0.00     0.046 A 
HETATM   12  C13 UNL     1      28.305  -0.076  54.219  1.00  0.00     0.138 A 
HETATM   13  F1  UNL     1      29.269  -0.445  55.122  1.00  0.00    -0.204 F 
HETATM   14  C14 UNL     1      27.972  -0.931  53.193  1.00  0.00     0.074 A 
HETATM   15 CL1  UNL     1      28.764  -2.504  52.997  1.00  0.00    -0.081 Cl
HETATM   16  C15 UNL     1      27.000  -0.546  52.301  1.00  0.00     0.056 A 
ENDBRANCH   7   9
ENDBRANCH   6   7
BRANCH   1  17
HETATM   17  C5  UNL     1      23.341   2.950  51.308  1.00  0.00     0.023 C 
HETATM   18  C4  UNL     1      23.618   4.159  51.753  1.00  0.00     0.046 C 
BRANCH  18  19
HETATM   19  S1  UNL     1      23.846   5.607  50.765  1.00  0.00    -0.141 SA
BRANCH  19  20
HETATM   20  C3  UNL     1      24.627   5.273  49.162  1.00  0.00     0.085 C 
BRANCH  20  21
HETATM   21  C2  UNL     1      26.133   5.319  49.258  1.00  0.00     0.080 C 
BRANCH  21  22
HETATM   22  C1  UNL     1      26.668   3.950  49.344  1.00  0.00     0.231 C 
HETATM   23  O1  UNL     1      26.899   3.338  50.368  1.00  0.00    -0.307 OA
ENDBRANCH  21  22
ENDBRANCH  20  21
ENDBRANCH  19  20
ENDBRANCH  18  19
ENDBRANCH   1  17
TORSDOF 7
ENDMDL
