MODEL 1
REMARK VINA RESULT:      -7.7      0.000      0.000
REMARK  7 active torsions:
REMARK  status: ('A' for Active; 'I' for Inactive)
REMARK    1  A    between atoms: N1_2  and  C2_3 
REMARK    2  A    between atoms: C5_6  and  N2_7 
REMARK       I    between atoms: N2_7  and  C6_8 
REMARK    3  A    between atoms: C6_8  and  C7_10 
REMARK    4  A    between atoms: C10_13  and  C11_14 
REMARK    5  A    between atoms: C11_14  and  C12_16 
REMARK    6  A    between atoms: C12_16  and  N4_17 
REMARK    7  A    between atoms: N4_17  and  C13_18 
ROOT
HETATM    1  C2  UNL     1      23.066   1.524  52.757  1.00  0.00     0.068 A 
HETATM    2  C3  UNL     1      23.413   0.219  53.028  1.00  0.00     0.035 A 
HETATM    3  C4  UNL     1      24.745  -0.115  53.095  1.00  0.00     0.032 A 
HETATM    4  C5  UNL     1      25.683   0.873  52.888  1.00  0.00     0.035 A 
HETATM    5  C9  UNL     1      25.262   2.158  52.622  1.00  0.00     0.045 A 
HETATM    6  C10 UNL     1      23.949   2.557  52.542  1.00  0.00     0.020 A 
ENDROOT
BRANCH   6   7
HETATM    7  C11 UNL     1      23.553   3.931  52.266  1.00  0.00     0.056 C 
HETATM    8  N3  UNL     1      23.788   4.844  53.140  1.00  0.00    -0.302 NA
HETATM    9  H12 UNL     1      24.240   4.725  54.055  1.00  0.00     0.186 HD
BRANCH   7  10
HETATM   10  C12 UNL     1      22.907   4.352  51.025  1.00  0.00     0.179 C 
BRANCH  10  11
HETATM   11  N4  UNL     1      23.646   3.822  49.867  1.00  0.00    -0.384 N 
HETATM   12  H15 UNL     1      23.350   2.975  49.305  1.00  0.00     0.160 HD
BRANCH  11  13
HETATM   13  C13 UNL     1      24.855   4.452  49.424  1.00  0.00     0.029 A 
HETATM   14  C14 UNL     1      26.091   3.838  49.459  1.00  0.00     0.029 A 
HETATM   15  C15 UNL     1      27.249   4.436  49.037  1.00  0.00     0.004 A 
HETATM   16  C16 UNL     1      27.205   5.730  48.541  1.00  0.00     0.019 A 
HETATM   17  C17 UNL     1      25.977   6.357  48.498  1.00  0.00     0.013 A 
HETATM   18 BR1  UNL     1      25.967   8.125  47.812  1.00  0.00    -0.051 Br
HETATM   19  C18 UNL     1      24.824   5.731  48.931  1.00  0.00     0.048 A 
ENDBRANCH  11  13
ENDBRANCH  10  11
ENDBRANCH   7  10
ENDBRANCH   6   7
BRANCH   1  20
HETATM   20  N1  UNL     1      21.666   1.751  52.722  1.00  0.00    -0.271 NA
HETATM   21  C1  UNL     1      20.882   0.972  53.413  1.00  0.00     0.149 C 
ENDBRANCH   1  20
BRANCH   4  22
HETATM   22  N2  UNL     1      27.050   0.491  52.965  1.00  0.00    -0.327 N 
HETATM   23  C6  UNL     1      27.710   0.465  54.221  1.00  0.00     0.221 C 
HETATM   24  O1  UNL     1      26.971   0.805  55.200  1.00  0.00    -0.273 OA
HETATM   25  H5  UNL     1      27.454   0.252  52.039  1.00  0.00     0.169 HD
BRANCH  23  26
HETATM   26  C7  UNL     1      29.118   0.057  54.196  1.00  0.00     0.098 C 
HETATM   27  C8  UNL     1      29.404  -1.209  53.468  1.00  0.00     0.014 C 
ENDBRANCH  23  26
ENDBRANCH   4  22
TORSDOF 7
ENDMDL
MODEL 2
REMARK VINA RESULT:      -7.6      3.800      6.651
REMARK  7 active torsions:
REMARK  status: ('A' for Active; 'I' for Inactive)
REMARK    1  A    between atoms: N1_2  and  C2_3 
REMARK    2  A    between atoms: C5_6  and  N2_7 
REMARK       I    between atoms: N2_7  and  C6_8 
REMARK    3  A    between atoms: C6_8  and  C7_10 
REMARK    4  A    between atoms: C10_13  and  C11_14 
REMARK    5  A    between atoms: C11_14  and  C12_16 
REMARK    6  A    between atoms: C12_16  and  N4_17 
REMARK    7  A    between atoms: N4_17  and  C13_18 
ROOT
HETATM    1  C2  UNL     1      23.303   0.941  53.008  1.00  0.00     0.068 A 
HETATM    2  C3  UNL     1      24.237   1.717  52.355  1.00  0.00     0.035 A 
HETATM    3  C4  UNL     1      25.547   1.301  52.329  1.00  0.00     0.032 A 
HETATM    4  C5  UNL     1      25.876   0.120  52.958  1.00  0.00     0.035 A 
HETATM    5  C9  UNL     1      24.889  -0.605  53.591  1.00  0.00     0.045 A 
HETATM    6  C10 UNL     1      23.563  -0.245  53.654  1.00  0.00     0.020 A 
ENDROOT
BRANCH   6   7
HETATM    7  C11 UNL     1      22.554  -1.050  54.329  1.00  0.00     0.056 C 
HETATM    8  N3  UNL     1      22.679  -1.299  55.583  1.00  0.00    -0.302 NA
HETATM    9  H12 UNL     1      23.436  -0.989  56.204  1.00  0.00     0.186 HD
BRANCH   7  10
HETATM   10  C12 UNL     1      21.374  -1.592  53.659  1.00  0.00     0.179 C 
BRANCH  10  11
HETATM   11  N4  UNL     1      20.181  -0.811  54.029  1.00  0.00    -0.384 N 
HETATM   12  H15 UNL     1      20.134  -0.145  54.852  1.00  0.00     0.160 HD
BRANCH  11  13
HETATM   13  C13 UNL     1      18.975  -0.916  53.264  1.00  0.00     0.029 A 
HETATM   14  C14 UNL     1      17.967  -1.815  53.550  1.00  0.00     0.029 A 
HETATM   15  C15 UNL     1      16.811  -1.919  52.821  1.00  0.00     0.004 A 
HETATM   16  C16 UNL     1      16.617  -1.087  51.730  1.00  0.00     0.019 A 
HETATM   17  C17 UNL     1      17.615  -0.182  51.431  1.00  0.00     0.013 A 
HETATM   18 BR1  UNL     1      17.305   0.936  49.930  1.00  0.00    -0.051 Br
HETATM   19  C18 UNL     1      18.772  -0.097  52.182  1.00  0.00     0.048 A 
ENDBRANCH  11  13
ENDBRANCH  10  11
ENDBRANCH   7  10
ENDBRANCH   6   7
BRANCH   1  20
HETATM   20  N1  UNL     1      21.986   1.466  52.960  1.00  0.00    -0.271 NA
HETATM   21  C1  UNL     1      21.581   2.061  51.873  1.00  0.00     0.149 C 
ENDBRANCH   1  20
BRANCH   4  22
HETATM   22  N2  UNL     1      27.239  -0.279  52.910  1.00  0.00    -0.327 N 
HETATM   23  C6  UNL     1      28.125   0.098  53.950  1.00  0.00     0.221 C 
HETATM   24  O1  UNL     1      27.580   0.791  54.868  1.00  0.00    -0.273 OA
HETATM   25  H5  UNL     1      27.464  -0.842  52.067  1.00  0.00     0.169 HD
BRANCH  23  26
HETATM   26  C7  UNL     1      29.510  -0.362  53.810  1.00  0.00     0.098 C 
HETATM   27  C8  UNL     1      29.674  -1.778  53.384  1.00  0.00     0.014 C 
ENDBRANCH  23  26
ENDBRANCH   4  22
TORSDOF 7
ENDMDL
MODEL 3
REMARK VINA RESULT:      -7.5      3.044      5.734
REMARK  7 active torsions:
REMARK  status: ('A' for Active; 'I' for Inactive)
REMARK    1  A    between atoms: N1_2  and  C2_3 
REMARK    2  A    between atoms: C5_6  and  N2_7 
REMARK       I    between atoms: N2_7  and  C6_8 
REMARK    3  A    between atoms: C6_8  and  C7_10 
REMARK    4  A    between atoms: C10_13  and  C11_14 
REMARK    5  A    between atoms: C11_14  and  C12_16 
REMARK    6  A    between atoms: C12_16  and  N4_17 
REMARK    7  A    between atoms: N4_17  and  C13_18 
ROOT
HETATM    1  C2  UNL     1      24.928   3.785  50.731  1.00  0.00     0.068 A 
HETATM    2  C3  UNL     1      26.097   3.234  50.252  1.00  0.00     0.035 A 
HETATM    3  C4  UNL     1      26.733   2.271  50.999  1.00  0.00     0.032 A 
HETATM    4  C5  UNL     1      26.174   1.894  52.201  1.00  0.00     0.035 A 
HETATM    5  C9  UNL     1      25.002   2.488  52.617  1.00  0.00     0.045 A 
HETATM    6  C10 UNL     1      24.317   3.455  51.919  1.00  0.00     0.020 A 
ENDROOT
BRANCH   6   7
HETATM    7  C11 UNL     1      23.076   4.048  52.396  1.00  0.00     0.056 C 
HETATM    8  N3  UNL     1      23.106   5.187  52.989  1.00  0.00    -0.302 NA
HETATM    9  H12 UNL     1      23.934   5.765  53.181  1.00  0.00     0.186 HD
BRANCH   7  10
HETATM   10  C12 UNL     1      21.766   3.423  52.226  1.00  0.00     0.179 C 
BRANCH  10  11
HETATM   11  N4  UNL     1      21.926   2.036  51.758  1.00  0.00    -0.384 N 
HETATM   12  H15 UNL     1      22.339   1.765  50.820  1.00  0.00     0.160 HD
BRANCH  11  13
HETATM   13  C13 UNL     1      21.514   0.937  52.579  1.00  0.00     0.029 A 
HETATM   14  C14 UNL     1      22.349   0.302  53.477  1.00  0.00     0.029 A 
HETATM   15  C15 UNL     1      21.960  -0.749  54.264  1.00  0.00     0.004 A 
HETATM   16  C16 UNL     1      20.660  -1.222  54.175  1.00  0.00     0.019 A 
HETATM   17  C17 UNL     1      19.812  -0.598  53.282  1.00  0.00     0.013 A 
HETATM   18 BR1  UNL     1      18.044  -1.279  53.195  1.00  0.00    -0.051 Br
HETATM   19  C18 UNL     1      20.230   0.461  52.499  1.00  0.00     0.048 A 
ENDBRANCH  11  13
ENDBRANCH  10  11
ENDBRANCH   7  10
ENDBRANCH   6   7
BRANCH   1  20
HETATM   20  N1  UNL     1      24.358   4.760  49.871  1.00  0.00    -0.271 NA
HETATM   21  C1  UNL     1      25.123   5.364  49.006  1.00  0.00     0.149 C 
ENDBRANCH   1  20
BRANCH   4  22
HETATM   22  N2  UNL     1      26.860   0.896  52.945  1.00  0.00    -0.327 N 
HETATM   23  C6  UNL     1      27.833   1.270  53.906  1.00  0.00     0.221 C 
HETATM   24  O1  UNL     1      28.002   2.528  54.008  1.00  0.00    -0.273 OA
HETATM   25  H5  UNL     1      26.561  -0.067  52.697  1.00  0.00     0.169 HD
BRANCH  23  26
HETATM   26  C7  UNL     1      28.484   0.169  54.622  1.00  0.00     0.098 C 
HETATM   27  C8  UNL     1      29.388  -0.682  53.801  1.00  0.00     0.014 C 
ENDBRANCH  23  26
ENDBRANCH   4  22
TORSDOF 7
ENDMDL
MODEL 4
REMARK VINA RESULT:      -7.3      2.774      5.217
REMARK  7 active torsions:
REMARK  status: ('A' for Active; 'I' for Inactive)
REMARK    1  A    between atoms: N1_2  and  C2_3 
REMARK    2  A    between atoms: C5_6  and  N2_7 
REMARK       I    between atoms: N2_7  and  C6_8 
REMARK    3  A    between atoms: C6_8  and  C7_10 
REMARK    4  A    between atoms: C10_13  and  C11_14 
REMARK    5  A    between atoms: C11_14  and  C12_16 
REMARK    6  A    between atoms: C12_16  and  N4_17 
REMARK    7  A    between atoms: N4_17  and  C13_18 
ROOT
HETATM    1  C2  UNL     1      25.636  -0.045  53.879  1.00  0.00     0.068 A 
HETATM    2  C3  UNL     1      24.674  -0.956  54.256  1.00  0.00     0.035 A 
HETATM    3  C4  UNL     1      23.351  -0.660  54.028  1.00  0.00     0.032 A 
HETATM    4  C5  UNL     1      23.038   0.541  53.429  1.00  0.00     0.035 A 
HETATM    5  C9  UNL     1      24.054   1.405  53.078  1.00  0.00     0.045 A 
HETATM    6  C10 UNL     1      25.394   1.169  53.278  1.00  0.00     0.020 A 
ENDROOT
BRANCH   6   7
HETATM    7  C11 UNL     1      26.431   2.110  52.881  1.00  0.00     0.056 C 
HETATM    8  N3  UNL     1      27.102   2.730  53.784  1.00  0.00    -0.302 NA
HETATM    9  H12 UNL     1      26.996   2.645  54.803  1.00  0.00     0.186 HD
BRANCH   7  10
HETATM   10  C12 UNL     1      26.778   2.389  51.489  1.00  0.00     0.179 C 
BRANCH  10  11
HETATM   11  N4  UNL     1      26.212   3.685  51.079  1.00  0.00    -0.384 N 
HETATM   12  H15 UNL     1      26.764   4.587  51.019  1.00  0.00     0.160 HD
BRANCH  11  13
HETATM   13  C13 UNL     1      24.828   3.797  50.725  1.00  0.00     0.029 A 
HETATM   14  C14 UNL     1      23.937   4.617  51.387  1.00  0.00     0.029 A 
HETATM   15  C15 UNL     1      22.612   4.728  51.053  1.00  0.00     0.004 A 
HETATM   16  C16 UNL     1      22.113   3.984  49.995  1.00  0.00     0.019 A 
HETATM   17  C17 UNL     1      22.992   3.160  49.323  1.00  0.00     0.013 A 
HETATM   18 BR1  UNL     1      22.264   2.163  47.882  1.00  0.00    -0.051 Br
HETATM   19  C18 UNL     1      24.323   3.067  49.680  1.00  0.00     0.048 A 
ENDBRANCH  11  13
ENDBRANCH  10  11
ENDBRANCH   7  10
ENDBRANCH   6   7
BRANCH   1  20
HETATM   20  N1  UNL     1      26.963  -0.462  54.155  1.00  0.00    -0.271 NA
HETATM   21  C1  UNL     1      27.650  -1.049  53.215  1.00  0.00     0.149 C 
ENDBRANCH   1  20
BRANCH   4  22
HETATM   22  N2  UNL     1      21.660   0.812  53.209  1.00  0.00    -0.327 N 
HETATM   23  C6  UNL     1      21.103   0.649  51.915  1.00  0.00     0.221 C 
HETATM   24  O1  UNL     1      21.937   0.256  51.038  1.00  0.00    -0.273 OA
HETATM   25  H5  UNL     1      21.169   1.121  54.070  1.00  0.00     0.169 HD
BRANCH  23  26
HETATM   26  C7  UNL     1      19.674   0.953  51.791  1.00  0.00     0.098 C 
HETATM   27  C8  UNL     1      19.140   0.958  50.402  1.00  0.00     0.014 C 
ENDBRANCH  23  26
ENDBRANCH   4  22
TORSDOF 7
ENDMDL
MODEL 5
REMARK VINA RESULT:      -7.1      2.209      4.651
REMARK  7 active torsions:
REMARK  status: ('A' for Active; 'I' for Inactive)
REMARK    1  A    between atoms: N1_2  and  C2_3 
REMARK    2  A    between atoms: C5_6  and  N2_7 
REMARK       I    between atoms: N2_7  and  C6_8 
REMARK    3  A    between atoms: C6_8  and  C7_10 
REMARK    4  A    between atoms: C10_13  and  C11_14 
REMARK    5  A    between atoms: C11_14  and  C12_16 
REMARK    6  A    between atoms: C12_16  and  N4_17 
REMARK    7  A    between atoms: N4_17  and  C13_18 
ROOT
HETATM    1  C2  UNL     1      25.873   0.418  52.728  1.00  0.00     0.068 A 
HETATM    2  C3  UNL     1      25.126  -0.571  53.332  1.00  0.00     0.035 A 
HETATM    3  C4  UNL     1      23.763  -0.415  53.421  1.00  0.00     0.032 A 
HETATM    4  C5  UNL     1      23.195   0.727  52.900  1.00  0.00     0.035 A 
HETATM    5  C9  UNL     1      24.004   1.675  52.310  1.00  0.00     0.045 A 
HETATM    6  C10 UNL     1      25.371   1.580  52.189  1.00  0.00     0.020 A 
ENDROOT
BRANCH   6   7
HETATM    7  C11 UNL     1      26.182   2.605  51.548  1.00  0.00     0.056 C 
HETATM    8  N3  UNL     1      27.420   2.726  51.871  1.00  0.00    -0.302 NA
HETATM    9  H12 UNL     1      27.939   2.165  52.559  1.00  0.00     0.186 HD
BRANCH   7  10
HETATM   10  C12 UNL     1      25.672   3.516  50.525  1.00  0.00     0.179 C 
BRANCH  10  11
HETATM   11  N4  UNL     1      26.600   3.560  49.382  1.00  0.00    -0.384 N 
HETATM   12  H15 UNL     1      26.994   2.704  48.898  1.00  0.00     0.160 HD
BRANCH  11  13
HETATM   13  C13 UNL     1      27.035   4.815  48.844  1.00  0.00     0.029 A 
HETATM   14  C14 UNL     1      28.345   5.084  48.503  1.00  0.00     0.029 A 
HETATM   15  C15 UNL     1      28.766   6.282  47.989  1.00  0.00     0.004 A 
HETATM   16  C16 UNL     1      27.845   7.299  47.790  1.00  0.00     0.019 A 
HETATM   17  C17 UNL     1      26.531   7.045  48.125  1.00  0.00     0.013 A 
HETATM   18 BR1  UNL     1      25.307   8.465  47.835  1.00  0.00    -0.051 Br
HETATM   19  C18 UNL     1      26.132   5.827  48.643  1.00  0.00     0.048 A 
ENDBRANCH  11  13
ENDBRANCH  10  11
ENDBRANCH   7  10
ENDBRANCH   6   7
BRANCH   1  20
HETATM   20  N1  UNL     1      27.264   0.144  52.686  1.00  0.00    -0.271 NA
HETATM   21  C1  UNL     1      27.679  -1.060  52.966  1.00  0.00     0.149 C 
ENDBRANCH   1  20
BRANCH   4  22
HETATM   22  N2  UNL     1      21.784   0.853  53.010  1.00  0.00    -0.327 N 
HETATM   23  C6  UNL     1      20.960   0.614  51.881  1.00  0.00     0.221 C 
HETATM   24  O1  UNL     1      21.603   0.294  50.830  1.00  0.00    -0.273 OA
HETATM   25  H5  UNL     1      21.477   1.124  53.964  1.00  0.00     0.169 HD
BRANCH  23  26
HETATM   26  C7  UNL     1      19.518   0.768  52.095  1.00  0.00     0.098 C 
HETATM   27  C8  UNL     1      18.833  -0.402  52.708  1.00  0.00     0.014 C 
ENDBRANCH  23  26
ENDBRANCH   4  22
TORSDOF 7
ENDMDL
MODEL 6
REMARK VINA RESULT:      -7.1      3.000      5.253
REMARK  7 active torsions:
REMARK  status: ('A' for Active; 'I' for Inactive)
REMARK    1  A    between atoms: N1_2  and  C2_3 
REMARK    2  A    between atoms: C5_6  and  N2_7 
REMARK       I    between atoms: N2_7  and  C6_8 
REMARK    3  A    between atoms: C6_8  and  C7_10 
REMARK    4  A    between atoms: C10_13  and  C11_14 
REMARK    5  A    between atoms: C11_14  and  C12_16 
REMARK    6  A    between atoms: C12_16  and  N4_17 
REMARK    7  A    between atoms: N4_17  and  C13_18 
ROOT
HETATM    1  C2  UNL     1      25.417   5.078  49.839  1.00  0.00     0.068 A 
HETATM    2  C3  UNL     1      26.348   4.270  49.223  1.00  0.00     0.035 A 
HETATM    3  C4  UNL     1      26.634   3.044  49.776  1.00  0.00     0.032 A 
HETATM    4  C5  UNL     1      25.976   2.671  50.927  1.00  0.00     0.035 A 
HETATM    5  C9  UNL     1      25.056   3.531  51.488  1.00  0.00     0.045 A 
HETATM    6  C10 UNL     1      24.725   4.768  50.986  1.00  0.00     0.020 A 
ENDROOT
BRANCH   6   7
HETATM    7  C11 UNL     1      23.738   5.638  51.611  1.00  0.00     0.056 C 
HETATM    8  N3  UNL     1      24.084   6.815  51.992  1.00  0.00    -0.302 NA
HETATM    9  H12 UNL     1      25.014   7.245  51.910  1.00  0.00     0.186 HD
BRANCH   7  10
HETATM   10  C12 UNL     1      22.344   5.255  51.822  1.00  0.00     0.179 C 
BRANCH  10  11
HETATM   11  N4  UNL     1      21.857   4.468  50.676  1.00  0.00    -0.384 N 
HETATM   12  H15 UNL     1      21.646   4.872  49.720  1.00  0.00     0.160 HD
BRANCH  11  13
HETATM   13  C13 UNL     1      21.636   3.058  50.802  1.00  0.00     0.029 A 
HETATM   14  C14 UNL     1      21.686   2.182  49.736  1.00  0.00     0.029 A 
HETATM   15  C15 UNL     1      21.475   0.833  49.851  1.00  0.00     0.004 A 
HETATM   16  C16 UNL     1      21.193   0.292  51.096  1.00  0.00     0.019 A 
HETATM   17  C17 UNL     1      21.139   1.155  52.171  1.00  0.00     0.013 A 
HETATM   18 BR1  UNL     1      20.750   0.369  53.853  1.00  0.00    -0.051 Br
HETATM   19  C18 UNL     1      21.356   2.512  52.028  1.00  0.00     0.048 A 
ENDBRANCH  11  13
ENDBRANCH  10  11
ENDBRANCH   7  10
ENDBRANCH   6   7
BRANCH   1  20
HETATM   20  N1  UNL     1      25.197   6.312  49.174  1.00  0.00    -0.271 NA
HETATM   21  C1  UNL     1      26.123   6.777  48.382  1.00  0.00     0.149 C 
ENDBRANCH   1  20
BRANCH   4  22
HETATM   22  N2  UNL     1      26.297   1.397  51.470  1.00  0.00    -0.327 N 
HETATM   23  C6  UNL     1      27.371   1.267  52.387  1.00  0.00     0.221 C 
HETATM   24  O1  UNL     1      27.967   2.361  52.643  1.00  0.00    -0.273 OA
HETATM   25  H5  UNL     1      25.676   0.642  51.120  1.00  0.00     0.169 HD
BRANCH  23  26
HETATM   26  C7  UNL     1      27.623  -0.087  52.890  1.00  0.00     0.098 C 
HETATM   27  C8  UNL     1      26.476  -1.030  52.791  1.00  0.00     0.014 C 
ENDBRANCH  23  26
ENDBRANCH   4  22
TORSDOF 7
ENDMDL
MODEL 7
REMARK VINA RESULT:      -7.1      3.677      5.987
REMARK  7 active torsions:
REMARK  status: ('A' for Active; 'I' for Inactive)
REMARK    1  A    between atoms: N1_2  and  C2_3 
REMARK    2  A    between atoms: C5_6  and  N2_7 
REMARK       I    between atoms: N2_7  and  C6_8 
REMARK    3  A    between atoms: C6_8  and  C7_10 
REMARK    4  A    between atoms: C10_13  and  C11_14 
REMARK    5  A    between atoms: C11_14  and  C12_16 
REMARK    6  A    between atoms: C12_16  and  N4_17 
REMARK    7  A    between atoms: N4_17  and  C13_18 
ROOT
HETATM    1  C2  UNL     1      22.664   3.667  51.437  1.00  0.00     0.068 A 
HETATM    2  C3  UNL     1      23.188   4.103  52.634  1.00  0.00     0.035 A 
HETATM    3  C4  UNL     1      24.266   3.439  53.170  1.00  0.00     0.032 A 
HETATM    4  C5  UNL     1      24.782   2.360  52.486  1.00  0.00     0.035 A 
HETATM    5  C9  UNL     1      24.206   1.980  51.292  1.00  0.00     0.045 A 
HETATM    6  C10 UNL     1      23.129   2.599  50.703  1.00  0.00     0.020 A 
ENDROOT
BRANCH   6   7
HETATM    7  C11 UNL     1      22.561   2.165  49.435  1.00  0.00     0.056 C 
HETATM    8  N3  UNL     1      22.895   2.769  48.352  1.00  0.00    -0.302 NA
HETATM    9  H12 UNL     1      23.544   3.560  48.259  1.00  0.00     0.186 HD
BRANCH   7  10
HETATM   10  C12 UNL     1      21.624   1.049  49.310  1.00  0.00     0.179 C 
BRANCH  10  11
HETATM   11  N4  UNL     1      20.354   1.380  49.978  1.00  0.00    -0.384 N 
HETATM   12  H15 UNL     1      19.712   2.170  49.685  1.00  0.00     0.160 HD
BRANCH  11  13
HETATM   13  C13 UNL     1      19.904   0.619  51.105  1.00  0.00     0.029 A 
HETATM   14  C14 UNL     1      18.609   0.160  51.246  1.00  0.00     0.029 A 
HETATM   15  C15 UNL     1      18.173  -0.568  52.322  1.00  0.00     0.004 A 
HETATM   16  C16 UNL     1      19.062  -0.875  53.341  1.00  0.00     0.019 A 
HETATM   17  C17 UNL     1      20.360  -0.424  53.214  1.00  0.00     0.013 A 
HETATM   18 BR1  UNL     1      21.539  -0.869  54.632  1.00  0.00    -0.051 Br
HETATM   19  C18 UNL     1      20.774   0.309  52.119  1.00  0.00     0.048 A 
ENDBRANCH  11  13
ENDBRANCH  10  11
ENDBRANCH   7  10
ENDBRANCH   6   7
BRANCH   1  20
HETATM   20  N1  UNL     1      21.562   4.433  50.978  1.00  0.00    -0.271 NA
HETATM   21  C1  UNL     1      21.757   5.674  50.628  1.00  0.00     0.149 C 
ENDBRANCH   1  20
BRANCH   4  22
HETATM   22  N2  UNL     1      25.896   1.699  53.070  1.00  0.00    -0.327 N 
HETATM   23  C6  UNL     1      27.197   1.902  52.544  1.00  0.00     0.221 C 
HETATM   24  O1  UNL     1      27.235   2.697  51.550  1.00  0.00    -0.273 OA
HETATM   25  H5  UNL     1      25.631   1.097  53.873  1.00  0.00     0.169 HD
BRANCH  23  26
HETATM   26  C7  UNL     1      28.280   1.177  53.215  1.00  0.00     0.098 C 
HETATM   27  C8  UNL     1      27.872   0.366  54.394  1.00  0.00     0.014 C 
ENDBRANCH  23  26
ENDBRANCH   4  22
TORSDOF 7
ENDMDL
MODEL 8
REMARK VINA RESULT:      -7.0      3.029      5.928
REMARK  7 active torsions:
REMARK  status: ('A' for Active; 'I' for Inactive)
REMARK    1  A    between atoms: N1_2  and  C2_3 
REMARK    2  A    between atoms: C5_6  and  N2_7 
REMARK       I    between atoms: N2_7  and  C6_8 
REMARK    3  A    between atoms: C6_8  and  C7_10 
REMARK    4  A    between atoms: C10_13  and  C11_14 
REMARK    5  A    between atoms: C11_14  and  C12_16 
REMARK    6  A    between atoms: C12_16  and  N4_17 
REMARK    7  A    between atoms: N4_17  and  C13_18 
ROOT
HETATM    1  C2  UNL     1      24.481   3.388  49.839  1.00  0.00     0.068 A 
HETATM    2  C3  UNL     1      25.846   3.514  49.698  1.00  0.00     0.035 A 
HETATM    3  C4  UNL     1      26.667   2.948  50.644  1.00  0.00     0.032 A 
HETATM    4  C5  UNL     1      26.091   2.274  51.699  1.00  0.00     0.035 A 
HETATM    5  C9  UNL     1      24.717   2.187  51.775  1.00  0.00     0.045 A 
HETATM    6  C10 UNL     1      23.841   2.730  50.864  1.00  0.00     0.020 A 
ENDROOT
BRANCH   6   7
HETATM    7  C11 UNL     1      22.396   2.604  50.983  1.00  0.00     0.056 C 
HETATM    8  N3  UNL     1      21.706   2.244  49.961  1.00  0.00    -0.302 NA
HETATM    9  H12 UNL     1      22.059   2.023  49.021  1.00  0.00     0.186 HD
BRANCH   7  10
HETATM   10  C12 UNL     1      21.663   2.850  52.224  1.00  0.00     0.179 C 
BRANCH  10  11
HETATM   11  N4  UNL     1      20.675   1.781  52.446  1.00  0.00    -0.384 N 
HETATM   12  H15 UNL     1      19.671   1.815  52.109  1.00  0.00     0.160 HD
BRANCH  11  13
HETATM   13  C13 UNL     1      21.035   0.592  53.160  1.00  0.00     0.029 A 
HETATM   14  C14 UNL     1      20.148  -0.429  53.435  1.00  0.00     0.029 A 
HETATM   15  C15 UNL     1      20.487  -1.569  54.117  1.00  0.00     0.004 A 
HETATM   16  C16 UNL     1      21.789  -1.730  54.567  1.00  0.00     0.019 A 
HETATM   17  C17 UNL     1      22.688  -0.718  54.300  1.00  0.00     0.013 A 
HETATM   18 BR1  UNL     1      24.455  -0.983  54.935  1.00  0.00    -0.051 Br
HETATM   19  C18 UNL     1      22.319   0.421  53.610  1.00  0.00     0.048 A 
ENDBRANCH  11  13
ENDBRANCH  10  11
ENDBRANCH   7  10
ENDBRANCH   6   7
BRANCH   1  20
HETATM   20  N1  UNL     1      23.736   4.003  48.800  1.00  0.00    -0.271 NA
HETATM   21  C1  UNL     1      23.716   5.304  48.721  1.00  0.00     0.149 C 
ENDBRANCH   1  20
BRANCH   4  22
HETATM   22  N2  UNL     1      26.972   1.702  52.656  1.00  0.00    -0.327 N 
HETATM   23  C6  UNL     1      27.241   0.310  52.630  1.00  0.00     0.221 C 
HETATM   24  O1  UNL     1      26.633  -0.317  51.704  1.00  0.00    -0.273 OA
HETATM   25  H5  UNL     1      27.355   2.403  53.320  1.00  0.00     0.169 HD
BRANCH  23  26
HETATM   26  C7  UNL     1      28.162  -0.184  53.659  1.00  0.00     0.098 C 
HETATM   27  C8  UNL     1      29.489   0.488  53.704  1.00  0.00     0.014 C 
ENDBRANCH  23  26
ENDBRANCH   4  22
TORSDOF 7
ENDMDL
MODEL 9
REMARK VINA RESULT:      -6.9      4.064      7.229
REMARK  7 active torsions:
REMARK  status: ('A' for Active; 'I' for Inactive)
REMARK    1  A    between atoms: N1_2  and  C2_3 
REMARK    2  A    between atoms: C5_6  and  N2_7 
REMARK       I    between atoms: N2_7  and  C6_8 
REMARK    3  A    between atoms: C6_8  and  C7_10 
REMARK    4  A    between atoms: C10_13  and  C11_14 
REMARK    5  A    between atoms: C11_14  and  C12_16 
REMARK    6  A    between atoms: C12_16  and  N4_17 
REMARK    7  A    between atoms: N4_17  and  C13_18 
ROOT
HETATM    1  C2  UNL     1      26.828   6.926  48.466  1.00  0.00     0.068 A 
HETATM    2  C3  UNL     1      27.776   7.600  47.727  1.00  0.00     0.035 A 
HETATM    3  C4  UNL     1      28.959   6.967  47.428  1.00  0.00     0.032 A 
HETATM    4  C5  UNL     1      29.152   5.680  47.880  1.00  0.00     0.035 A 
HETATM    5  C9  UNL     1      28.159   5.067  48.614  1.00  0.00     0.045 A 
HETATM    6  C10 UNL     1      26.955   5.643  48.948  1.00  0.00     0.020 A 
ENDROOT
BRANCH   6   7
HETATM    7  C11 UNL     1      25.933   4.951  49.719  1.00  0.00     0.056 C 
HETATM    8  N3  UNL     1      25.344   5.564  50.683  1.00  0.00    -0.302 NA
HETATM    9  H12 UNL     1      25.509   6.529  50.996  1.00  0.00     0.186 HD
BRANCH   7  10
HETATM   10  C12 UNL     1      25.512   3.577  49.452  1.00  0.00     0.179 C 
BRANCH  10  11
HETATM   11  N4  UNL     1      24.636   3.099  50.535  1.00  0.00    -0.384 N 
HETATM   12  H15 UNL     1      23.688   3.512  50.764  1.00  0.00     0.160 HD
BRANCH  11  13
HETATM   13  C13 UNL     1      25.039   2.006  51.370  1.00  0.00     0.029 A 
HETATM   14  C14 UNL     1      26.345   1.571  51.477  1.00  0.00     0.029 A 
HETATM   15  C15 UNL     1      26.735   0.526  52.273  1.00  0.00     0.004 A 
HETATM   16  C16 UNL     1      25.785  -0.149  53.024  1.00  0.00     0.019 A 
HETATM   17  C17 UNL     1      24.475   0.274  52.928  1.00  0.00     0.013 A 
HETATM   18 BR1  UNL     1      23.212  -0.680  53.973  1.00  0.00    -0.051 Br
HETATM   19  C18 UNL     1      24.108   1.331  52.117  1.00  0.00     0.048 A 
ENDBRANCH  11  13
ENDBRANCH  10  11
ENDBRANCH   7  10
ENDBRANCH   6   7
BRANCH   1  20
HETATM   20  N1  UNL     1      25.647   7.673  48.705  1.00  0.00    -0.271 NA
HETATM   21  C1  UNL     1      25.746   8.864  49.227  1.00  0.00     0.149 C 
ENDBRANCH   1  20
BRANCH   4  22
HETATM   22  N2  UNL     1      30.387   5.059  47.551  1.00  0.00    -0.327 N 
HETATM   23  C6  UNL     1      31.479   5.130  48.452  1.00  0.00     0.221 C 
HETATM   24  O1  UNL     1      31.228   5.777  49.519  1.00  0.00    -0.273 OA
HETATM   25  H5  UNL     1      30.366   4.585  46.627  1.00  0.00     0.169 HD
BRANCH  23  26
HETATM   26  C7  UNL     1      32.709   4.457  48.023  1.00  0.00     0.098 C 
HETATM   27  C8  UNL     1      32.526   3.360  47.035  1.00  0.00     0.014 C 
ENDBRANCH  23  26
ENDBRANCH   4  22
TORSDOF 7
ENDMDL
