MODEL 1
REMARK VINA RESULT:      -8.3      0.000      0.000
REMARK  5 active torsions:
REMARK  status: ('A' for Active; 'I' for Inactive)
REMARK    1  A    between atoms: O1_2  and  C2_3 
REMARK    2  A    between atoms: C5_6  and  N1_7 
REMARK    3  A    between atoms: N1_7  and  C6_8 
REMARK    4  A    between atoms: C10_14  and  O2_15 
REMARK    5  A    between atoms: C15_20  and  O3_21 
ROOT
HETATM    1  N1  UNL     1      25.812   2.873  52.739  1.00  0.00    -0.367 N 
HETATM    2  H8  UNL     1      25.749   3.799  53.235  1.00  0.00     0.157 HD
ENDROOT
BRANCH   1   3
HETATM    3  C5  UNL     1      25.320   2.682  51.367  1.00  0.00     0.109 C 
HETATM    4  C4  UNL     1      23.945   3.252  51.298  1.00  0.00     0.058 C 
HETATM    5  C3  UNL     1      23.592   3.867  50.001  1.00  0.00     0.008 C 
HETATM    6  C2  UNL     1      24.179   4.759  49.224  1.00  0.00     0.048 C 
HETATM    7  C16 UNL     1      25.501   5.364  49.623  1.00  0.00     0.128 C 
HETATM    8  C15 UNL     1      26.446   4.202  49.609  1.00  0.00     0.047 C 
HETATM    9  C14 UNL     1      26.273   3.148  50.371  1.00  0.00     0.030 C 
BRANCH   6  10
HETATM   10  O1  UNL     1      23.530   5.110  48.037  1.00  0.00    -0.360 OA
HETATM   11  C1  UNL     1      22.333   4.492  47.613  1.00  0.00     0.209 C 
ENDBRANCH   6  10
BRANCH   8  12
HETATM   12  O3  UNL     1      27.541   4.253  48.757  1.00  0.00    -0.365 OA
HETATM   13  H19 UNL     1      27.481   4.723  47.870  1.00  0.00     0.217 HD
ENDBRANCH   8  12
ENDBRANCH   1   3
BRANCH   1  14
HETATM   14  C6  UNL     1      26.376   1.765  53.372  1.00  0.00     0.315 A 
HETATM   15  N2  UNL     1      27.440   1.712  54.143  1.00  0.00    -0.031 NA
HETATM   16  C7  UNL     1      28.540   0.862  53.864  1.00  0.00     0.291 A 
HETATM   17  N3  UNL     1      27.541   0.811  53.003  1.00  0.00     0.101 N 
HETATM   18  C12 UNL     1      29.671   0.006  53.602  1.00  0.00     0.068 C 
HETATM   19  C11 UNL     1      29.514  -1.451  53.674  1.00  0.00     0.040 C 
HETATM   20  C10 UNL     1      28.543  -2.160  52.824  1.00  0.00     0.143 C 
HETATM   21  C9  UNL     1      27.111  -1.833  53.020  1.00  0.00     0.040 C 
HETATM   22  C8  UNL     1      26.964  -0.531  53.060  1.00  0.00     0.145 C 
HETATM   23  C13 UNL     1      25.799   0.367  53.245  1.00  0.00     0.151 C 
BRANCH  20  24
HETATM   24  O2  UNL     1      28.611  -3.544  52.999  1.00  0.00    -0.392 OA
HETATM   25  H11 UNL     1      28.772  -4.007  52.126  1.00  0.00     0.210 HD
ENDBRANCH  20  24
ENDBRANCH   1  14
TORSDOF 5
ENDMDL
MODEL 2
REMARK VINA RESULT:      -8.0      1.481      1.852
REMARK  5 active torsions:
REMARK  status: ('A' for Active; 'I' for Inactive)
REMARK    1  A    between atoms: O1_2  and  C2_3 
REMARK    2  A    between atoms: C5_6  and  N1_7 
REMARK    3  A    between atoms: N1_7  and  C6_8 
REMARK    4  A    between atoms: C10_14  and  O2_15 
REMARK    5  A    between atoms: C15_20  and  O3_21 
ROOT
HETATM    1  N1  UNL     1      26.232   2.934  51.974  1.00  0.00    -0.367 N 
HETATM    2  H8  UNL     1      26.879   3.726  51.726  1.00  0.00     0.157 HD
ENDROOT
BRANCH   1   3
HETATM    3  C5  UNL     1      24.848   2.869  51.483  1.00  0.00     0.109 C 
HETATM    4  C4  UNL     1      23.950   3.224  52.617  1.00  0.00     0.058 C 
HETATM    5  C3  UNL     1      22.725   3.957  52.233  1.00  0.00     0.008 C 
HETATM    6  C2  UNL     1      22.497   5.031  51.499  1.00  0.00     0.048 C 
HETATM    7  C16 UNL     1      23.640   5.768  50.851  1.00  0.00     0.128 C 
HETATM    8  C15 UNL     1      24.196   4.780  49.873  1.00  0.00     0.047 C 
HETATM    9  C14 UNL     1      24.668   3.614  50.246  1.00  0.00     0.030 C 
BRANCH   6  10
HETATM   10  O1  UNL     1      21.170   5.444  51.354  1.00  0.00    -0.360 OA
HETATM   11  C1  UNL     1      20.163   4.601  50.836  1.00  0.00     0.209 C 
ENDBRANCH   6  10
BRANCH   8  12
HETATM   12  O3  UNL     1      24.209   5.120  48.527  1.00  0.00    -0.365 OA
HETATM   13  H19 UNL     1      24.661   5.963  48.213  1.00  0.00     0.217 HD
ENDBRANCH   8  12
ENDBRANCH   1   3
BRANCH   1  14
HETATM   14  C6  UNL     1      26.666   1.891  52.793  1.00  0.00     0.315 A 
HETATM   15  N2  UNL     1      27.615   1.901  53.703  1.00  0.00    -0.031 NA
HETATM   16  C7  UNL     1      28.710   1.000  53.669  1.00  0.00     0.291 A 
HETATM   17  N3  UNL     1      27.832   0.875  52.691  1.00  0.00     0.101 N 
HETATM   18  C12 UNL     1      29.832   0.094  53.658  1.00  0.00     0.068 C 
HETATM   19  C11 UNL     1      29.612  -1.342  53.865  1.00  0.00     0.040 C 
HETATM   20  C10 UNL     1      28.736  -2.119  52.972  1.00  0.00     0.143 C 
HETATM   21  C9  UNL     1      27.304  -1.740  52.935  1.00  0.00     0.040 C 
HETATM   22  C8  UNL     1      27.203  -0.439  52.814  1.00  0.00     0.145 C 
HETATM   23  C13 UNL     1      26.058   0.501  52.742  1.00  0.00     0.151 C 
BRANCH  20  24
HETATM   24  O2  UNL     1      28.729  -3.476  53.304  1.00  0.00    -0.392 OA
HETATM   25  H11 UNL     1      28.794  -3.602  54.295  1.00  0.00     0.210 HD
ENDBRANCH  20  24
ENDBRANCH   1  14
TORSDOF 5
ENDMDL
MODEL 3
REMARK VINA RESULT:      -7.6      4.305      5.555
REMARK  5 active torsions:
REMARK  status: ('A' for Active; 'I' for Inactive)
REMARK    1  A    between atoms: O1_2  and  C2_3 
REMARK    2  A    between atoms: C5_6  and  N1_7 
REMARK    3  A    between atoms: N1_7  and  C6_8 
REMARK    4  A    between atoms: C10_14  and  O2_15 
REMARK    5  A    between atoms: C15_20  and  O3_21 
ROOT
HETATM    1  N1  UNL     1      23.461  -0.496  54.240  1.00  0.00    -0.367 N 
HETATM    2  H8  UNL     1      23.369  -0.258  55.260  1.00  0.00     0.157 HD
ENDROOT
BRANCH   1   3
HETATM    3  C5  UNL     1      22.398  -1.189  53.496  1.00  0.00     0.109 C 
HETATM    4  C4  UNL     1      21.282  -1.452  54.446  1.00  0.00     0.058 C 
HETATM    5  C3  UNL     1      19.931  -1.390  53.848  1.00  0.00     0.008 C 
HETATM    6  C2  UNL     1      19.304  -0.500  53.100  1.00  0.00     0.048 C 
HETATM    7  C16 UNL     1      19.997   0.774  52.690  1.00  0.00     0.128 C 
HETATM    8  C15 UNL     1      21.123   0.305  51.820  1.00  0.00     0.047 C 
HETATM    9  C14 UNL     1      22.058  -0.504  52.258  1.00  0.00     0.030 C 
BRANCH   6  10
HETATM   10  O1  UNL     1      17.993  -0.789  52.714  1.00  0.00    -0.360 OA
HETATM   11  C1  UNL     1      17.290  -0.013  51.766  1.00  0.00     0.209 C 
ENDBRANCH   6  10
BRANCH   8  12
HETATM   12  O3  UNL     1      21.169   0.750  50.505  1.00  0.00    -0.365 OA
HETATM   13  H19 UNL     1      21.228   0.096  49.743  1.00  0.00     0.217 HD
ENDBRANCH   8  12
ENDBRANCH   1   3
BRANCH   1  14
HETATM   14  C6  UNL     1      24.615  -0.159  53.532  1.00  0.00     0.315 A 
HETATM   15  N2  UNL     1      25.593  -0.942  53.133  1.00  0.00    -0.031 NA
HETATM   16  C7  UNL     1      26.946  -0.713  53.491  1.00  0.00     0.291 A 
HETATM   17  N3  UNL     1      26.071   0.156  53.964  1.00  0.00     0.101 N 
HETATM   18  C12 UNL     1      28.329  -0.499  53.841  1.00  0.00     0.068 C 
HETATM   19  C11 UNL     1      29.035   0.683  53.334  1.00  0.00     0.040 C 
HETATM   20  C10 UNL     1      28.557   2.044  53.628  1.00  0.00     0.143 C 
HETATM   21  C9  UNL     1      27.221   2.417  53.105  1.00  0.00     0.040 C 
HETATM   22  C8  UNL     1      26.367   1.461  53.375  1.00  0.00     0.145 C 
HETATM   23  C13 UNL     1      24.924   1.262  53.097  1.00  0.00     0.151 C 
BRANCH  20  24
HETATM   24  O2  UNL     1      29.416   3.019  53.115  1.00  0.00    -0.392 OA
HETATM   25  H11 UNL     1      30.169   2.599  52.606  1.00  0.00     0.210 HD
ENDBRANCH  20  24
ENDBRANCH   1  14
TORSDOF 5
ENDMDL
MODEL 4
REMARK VINA RESULT:      -7.4      2.673      4.276
REMARK  5 active torsions:
REMARK  status: ('A' for Active; 'I' for Inactive)
REMARK    1  A    between atoms: O1_2  and  C2_3 
REMARK    2  A    between atoms: C5_6  and  N1_7 
REMARK    3  A    between atoms: N1_7  and  C6_8 
REMARK    4  A    between atoms: C10_14  and  O2_15 
REMARK    5  A    between atoms: C15_20  and  O3_21 
ROOT
HETATM    1  N1  UNL     1      26.024   4.625  50.425  1.00  0.00    -0.367 N 
HETATM    2  H8  UNL     1      26.146   5.319  51.207  1.00  0.00     0.157 HD
ENDROOT
BRANCH   1   3
HETATM    3  C5  UNL     1      26.210   4.994  49.014  1.00  0.00     0.109 C 
HETATM    4  C4  UNL     1      25.588   6.332  48.812  1.00  0.00     0.058 C 
HETATM    5  C3  UNL     1      26.275   7.193  47.826  1.00  0.00     0.008 C 
HETATM    6  C2  UNL     1      27.531   7.568  47.660  1.00  0.00     0.048 C 
HETATM    7  C16 UNL     1      28.601   7.088  48.606  1.00  0.00     0.128 C 
HETATM    8  C15 UNL     1      28.638   5.607  48.384  1.00  0.00     0.047 C 
HETATM    9  C14 UNL     1      27.592   4.841  48.584  1.00  0.00     0.030 C 
BRANCH   6  10
HETATM   10  O1  UNL     1      27.816   8.415  46.585  1.00  0.00    -0.360 OA
HETATM   11  C1  UNL     1      28.841   8.143  45.654  1.00  0.00     0.209 C 
ENDBRANCH   6  10
BRANCH   8  12
HETATM   12  O3  UNL     1      29.827   5.035  47.951  1.00  0.00    -0.365 OA
HETATM   13  H19 UNL     1      30.460   4.606  48.606  1.00  0.00     0.217 HD
ENDBRANCH   8  12
ENDBRANCH   1   3
BRANCH   1  14
HETATM   14  C6  UNL     1      25.675   3.302  50.695  1.00  0.00     0.315 A 
HETATM   15  N2  UNL     1      24.481   2.753  50.707  1.00  0.00    -0.031 NA
HETATM   16  C7  UNL     1      23.967   2.072  51.840  1.00  0.00     0.291 A 
HETATM   17  N3  UNL     1      25.182   2.574  51.971  1.00  0.00     0.101 N 
HETATM   18  C12 UNL     1      23.424   1.374  52.979  1.00  0.00     0.068 C 
HETATM   19  C11 UNL     1      24.035   0.116  53.423  1.00  0.00     0.040 C 
HETATM   20  C10 UNL     1      25.451   0.052  53.823  1.00  0.00     0.143 C 
HETATM   21  C9  UNL     1      26.460   0.364  52.784  1.00  0.00     0.040 C 
HETATM   22  C8  UNL     1      26.112   1.461  52.157  1.00  0.00     0.145 C 
HETATM   23  C13 UNL     1      26.701   2.238  51.040  1.00  0.00     0.151 C 
BRANCH  20  24
HETATM   24  O2  UNL     1      25.804  -1.220  54.281  1.00  0.00    -0.392 OA
HETATM   25  H11 UNL     1      25.983  -1.838  53.515  1.00  0.00     0.210 HD
ENDBRANCH  20  24
ENDBRANCH   1  14
TORSDOF 5
ENDMDL
MODEL 5
REMARK VINA RESULT:      -7.3      2.999      4.152
REMARK  5 active torsions:
REMARK  status: ('A' for Active; 'I' for Inactive)
REMARK    1  A    between atoms: O1_2  and  C2_3 
REMARK    2  A    between atoms: C5_6  and  N1_7 
REMARK    3  A    between atoms: N1_7  and  C6_8 
REMARK    4  A    between atoms: C10_14  and  O2_15 
REMARK    5  A    between atoms: C15_20  and  O3_21 
ROOT
HETATM    1  N1  UNL     1      24.906   2.949  51.341  1.00  0.00    -0.367 N 
HETATM    2  H8  UNL     1      25.364   3.557  52.067  1.00  0.00     0.157 HD
ENDROOT
BRANCH   1   3
HETATM    3  C5  UNL     1      24.821   3.343  49.927  1.00  0.00     0.109 C 
HETATM    4  C4  UNL     1      23.743   4.363  49.807  1.00  0.00     0.058 C 
HETATM    5  C3  UNL     1      23.983   5.403  48.783  1.00  0.00     0.008 C 
HETATM    6  C2  UNL     1      24.998   6.204  48.517  1.00  0.00     0.048 C 
HETATM    7  C16 UNL     1      26.249   6.154  49.357  1.00  0.00     0.128 C 
HETATM    8  C15 UNL     1      26.798   4.785  49.102  1.00  0.00     0.047 C 
HETATM    9  C14 UNL     1      26.121   3.695  49.375  1.00  0.00     0.030 C 
BRANCH   6  10
HETATM   10  O1  UNL     1      24.862   7.084  47.440  1.00  0.00    -0.360 OA
HETATM   11  C1  UNL     1      25.619   8.271  47.328  1.00  0.00     0.209 C 
ENDBRANCH   6  10
BRANCH   8  12
HETATM   12  O3  UNL     1      28.070   4.675  48.556  1.00  0.00    -0.365 OA
HETATM   13  H19 UNL     1      28.330   5.211  47.745  1.00  0.00     0.217 HD
ENDBRANCH   8  12
ENDBRANCH   1   3
BRANCH   1  14
HETATM   14  C6  UNL     1      24.348   1.719  51.692  1.00  0.00     0.315 A 
HETATM   15  N2  UNL     1      23.152   1.250  51.414  1.00  0.00    -0.031 NA
HETATM   16  C7  UNL     1      22.251   0.819  52.422  1.00  0.00     0.291 A 
HETATM   17  N3  UNL     1      23.418   1.267  52.847  1.00  0.00     0.101 N 
HETATM   18  C12 UNL     1      21.318   0.374  53.428  1.00  0.00     0.068 C 
HETATM   19  C11 UNL     1      21.626  -0.814  54.232  1.00  0.00     0.040 C 
HETATM   20  C10 UNL     1      22.841  -0.884  55.061  1.00  0.00     0.143 C 
HETATM   21  C9  UNL     1      24.143  -0.825  54.356  1.00  0.00     0.040 C 
HETATM   22  C8  UNL     1      24.121   0.156  53.487  1.00  0.00     0.145 C 
HETATM   23  C13 UNL     1      25.100   0.680  52.504  1.00  0.00     0.151 C 
BRANCH  20  24
HETATM   24  O2  UNL     1      22.898  -2.068  55.801  1.00  0.00    -0.392 OA
HETATM   25  H11 UNL     1      22.134  -2.671  55.569  1.00  0.00     0.210 HD
ENDBRANCH  20  24
ENDBRANCH   1  14
TORSDOF 5
ENDMDL
MODEL 6
REMARK VINA RESULT:      -7.3      3.355      7.868
REMARK  5 active torsions:
REMARK  status: ('A' for Active; 'I' for Inactive)
REMARK    1  A    between atoms: O1_2  and  C2_3 
REMARK    2  A    between atoms: C5_6  and  N1_7 
REMARK    3  A    between atoms: N1_7  and  C6_8 
REMARK    4  A    between atoms: C10_14  and  O2_15 
REMARK    5  A    between atoms: C15_20  and  O3_21 
ROOT
HETATM    1  N1  UNL     1      24.010   1.904  52.875  1.00  0.00    -0.367 N 
HETATM    2  H8  UNL     1      24.271   2.530  53.680  1.00  0.00     0.157 HD
ENDROOT
BRANCH   1   3
HETATM    3  C5  UNL     1      24.639   0.591  52.666  1.00  0.00     0.109 C 
HETATM    4  C4  UNL     1      25.940   0.820  51.979  1.00  0.00     0.058 C 
HETATM    5  C3  UNL     1      27.015  -0.125  52.353  1.00  0.00     0.008 C 
HETATM    6  C2  UNL     1      27.508  -0.534  53.508  1.00  0.00     0.048 C 
HETATM    7  C16 UNL     1      26.948  -0.008  54.805  1.00  0.00     0.128 C 
HETATM    8  C15 UNL     1      25.539  -0.515  54.819  1.00  0.00     0.047 C 
HETATM    9  C14 UNL     1      24.672  -0.203  53.886  1.00  0.00     0.030 C 
BRANCH   6  10
HETATM   10  O1  UNL     1      28.553  -1.461  53.472  1.00  0.00    -0.360 OA
HETATM   11  C1  UNL     1      29.876  -1.130  53.840  1.00  0.00     0.209 C 
ENDBRANCH   6  10
BRANCH   8  12
HETATM   12  O3  UNL     1      25.146  -1.342  55.863  1.00  0.00    -0.365 OA
HETATM   13  H19 UNL     1      24.171  -1.505  56.052  1.00  0.00     0.217 HD
ENDBRANCH   8  12
ENDBRANCH   1   3
BRANCH   1  14
HETATM   14  C6  UNL     1      23.039   2.297  51.954  1.00  0.00     0.315 A 
HETATM   15  N2  UNL     1      22.322   3.399  51.936  1.00  0.00    -0.031 NA
HETATM   16  C7  UNL     1      20.904   3.384  51.920  1.00  0.00     0.291 A 
HETATM   17  N3  UNL     1      21.491   2.202  51.938  1.00  0.00     0.101 N 
HETATM   18  C12 UNL     1      19.462   3.395  51.903  1.00  0.00     0.068 C 
HETATM   19  C11 UNL     1      18.743   2.876  50.734  1.00  0.00     0.040 C 
HETATM   20  C10 UNL     1      18.924   1.488  50.277  1.00  0.00     0.143 C 
HETATM   21  C9  UNL     1      20.279   1.101  49.818  1.00  0.00     0.040 C 
HETATM   22  C8  UNL     1      21.166   1.517  50.688  1.00  0.00     0.145 C 
HETATM   23  C13 UNL     1      22.646   1.442  50.763  1.00  0.00     0.151 C 
BRANCH  20  24
HETATM   24  O2  UNL     1      18.090   1.184  49.198  1.00  0.00    -0.392 OA
HETATM   25  H11 UNL     1      18.144   0.211  48.969  1.00  0.00     0.210 HD
ENDBRANCH  20  24
ENDBRANCH   1  14
TORSDOF 5
ENDMDL
MODEL 7
REMARK VINA RESULT:      -7.3      2.500      7.588
REMARK  5 active torsions:
REMARK  status: ('A' for Active; 'I' for Inactive)
REMARK    1  A    between atoms: O1_2  and  C2_3 
REMARK    2  A    between atoms: C5_6  and  N1_7 
REMARK    3  A    between atoms: N1_7  and  C6_8 
REMARK    4  A    between atoms: C10_14  and  O2_15 
REMARK    5  A    between atoms: C15_20  and  O3_21 
ROOT
HETATM    1  N1  UNL     1      23.909   1.861  52.997  1.00  0.00    -0.367 N 
HETATM    2  H8  UNL     1      24.051   2.407  53.886  1.00  0.00     0.157 HD
ENDROOT
BRANCH   1   3
HETATM    3  C5  UNL     1      24.590   0.583  52.744  1.00  0.00     0.109 C 
HETATM    4  C4  UNL     1      25.908   0.890  52.122  1.00  0.00     0.058 C 
HETATM    5  C3  UNL     1      26.999  -0.038  52.488  1.00  0.00     0.008 C 
HETATM    6  C2  UNL     1      27.461  -0.493  53.638  1.00  0.00     0.048 C 
HETATM    7  C16 UNL     1      26.835  -0.057  54.938  1.00  0.00     0.128 C 
HETATM    8  C15 UNL     1      25.445  -0.609  54.869  1.00  0.00     0.047 C 
HETATM    9  C14 UNL     1      24.604  -0.275  53.920  1.00  0.00     0.030 C 
BRANCH   6  10
HETATM   10  O1  UNL     1      28.539  -1.383  53.595  1.00  0.00    -0.360 OA
HETATM   11  C1  UNL     1      29.883  -0.951  53.613  1.00  0.00     0.209 C 
ENDBRANCH   6  10
BRANCH   8  12
HETATM   12  O3  UNL     1      25.041  -1.504  55.851  1.00  0.00    -0.365 OA
HETATM   13  H19 UNL     1      25.717  -1.968  56.433  1.00  0.00     0.217 HD
ENDBRANCH   8  12
ENDBRANCH   1   3
BRANCH   1  14
HETATM   14  C6  UNL     1      23.053   2.333  52.001  1.00  0.00     0.315 A 
HETATM   15  N2  UNL     1      21.834   1.936  51.710  1.00  0.00    -0.031 NA
HETATM   16  C7  UNL     1      21.471   1.485  50.415  1.00  0.00     0.291 A 
HETATM   17  N3  UNL     1      22.730   1.852  50.564  1.00  0.00     0.101 N 
HETATM   18  C12 UNL     1      21.077   1.022  49.107  1.00  0.00     0.068 C 
HETATM   19  C11 UNL     1      21.072   1.955  47.975  1.00  0.00     0.040 C 
HETATM   20  C10 UNL     1      22.295   2.663  47.561  1.00  0.00     0.143 C 
HETATM   21  C9  UNL     1      22.895   3.600  48.540  1.00  0.00     0.040 C 
HETATM   22  C8  UNL     1      22.963   3.018  49.712  1.00  0.00     0.145 C 
HETATM   23  C13 UNL     1      23.441   3.449  51.048  1.00  0.00     0.151 C 
BRANCH  20  24
HETATM   24  O2  UNL     1      22.084   3.440  46.419  1.00  0.00    -0.392 OA
HETATM   25  H11 UNL     1      22.062   4.414  46.649  1.00  0.00     0.210 HD
ENDBRANCH  20  24
ENDBRANCH   1  14
TORSDOF 5
ENDMDL
MODEL 8
REMARK VINA RESULT:      -7.3      1.415      2.207
REMARK  5 active torsions:
REMARK  status: ('A' for Active; 'I' for Inactive)
REMARK    1  A    between atoms: O1_2  and  C2_3 
REMARK    2  A    between atoms: C5_6  and  N1_7 
REMARK    3  A    between atoms: N1_7  and  C6_8 
REMARK    4  A    between atoms: C10_14  and  O2_15 
REMARK    5  A    between atoms: C15_20  and  O3_21 
ROOT
HETATM    1  N1  UNL     1      24.531   1.889  51.863  1.00  0.00    -0.367 N 
HETATM    2  H8  UNL     1      23.622   1.526  51.477  1.00  0.00     0.157 HD
ENDROOT
BRANCH   1   3
HETATM    3  C5  UNL     1      25.034   3.235  51.549  1.00  0.00     0.109 C 
HETATM    4  C4  UNL     1      25.620   3.189  50.181  1.00  0.00     0.058 C 
HETATM    5  C3  UNL     1      25.460   4.431  49.395  1.00  0.00     0.008 C 
HETATM    6  C2  UNL     1      24.426   5.201  49.107  1.00  0.00     0.048 C 
HETATM    7  C16 UNL     1      23.053   4.859  49.625  1.00  0.00     0.128 C 
HETATM    8  C15 UNL     1      23.189   4.987  51.112  1.00  0.00     0.047 C 
HETATM    9  C14 UNL     1      24.039   4.266  51.803  1.00  0.00     0.030 C 
BRANCH   6  10
HETATM   10  O1  UNL     1      24.660   6.327  48.312  1.00  0.00    -0.360 OA
HETATM   11  C1  UNL     1      24.613   7.642  48.824  1.00  0.00     0.209 C 
ENDBRANCH   6  10
BRANCH   8  12
HETATM   12  O3  UNL     1      22.382   5.904  51.771  1.00  0.00    -0.365 OA
HETATM   13  H19 UNL     1      21.591   5.598  52.313  1.00  0.00     0.217 HD
ENDBRANCH   8  12
ENDBRANCH   1   3
BRANCH   1  14
HETATM   14  C6  UNL     1      25.315   1.098  52.703  1.00  0.00     0.315 A 
HETATM   15  N2  UNL     1      26.281   1.467  53.515  1.00  0.00    -0.031 NA
HETATM   16  C7  UNL     1      27.590   0.927  53.436  1.00  0.00     0.291 A 
HETATM   17  N3  UNL     1      26.721   0.462  52.557  1.00  0.00     0.101 N 
HETATM   18  C12 UNL     1      28.927   0.391  53.376  1.00  0.00     0.068 C 
HETATM   19  C11 UNL     1      29.163  -1.021  53.697  1.00  0.00     0.040 C 
HETATM   20  C10 UNL     1      28.497  -2.098  52.946  1.00  0.00     0.143 C 
HETATM   21  C9  UNL     1      27.018  -2.159  53.021  1.00  0.00     0.040 C 
HETATM   22  C8  UNL     1      26.524  -0.961  52.826  1.00  0.00     0.145 C 
HETATM   23  C13 UNL     1      25.148  -0.408  52.802  1.00  0.00     0.151 C 
BRANCH  20  24
HETATM   24  O2  UNL     1      28.920  -3.362  53.365  1.00  0.00    -0.392 OA
HETATM   25  H11 UNL     1      28.137  -3.942  53.594  1.00  0.00     0.210 HD
ENDBRANCH  20  24
ENDBRANCH   1  14
TORSDOF 5
ENDMDL
MODEL 9
REMARK VINA RESULT:      -7.2      4.963      7.740
REMARK  5 active torsions:
REMARK  status: ('A' for Active; 'I' for Inactive)
REMARK    1  A    between atoms: O1_2  and  C2_3 
REMARK    2  A    between atoms: C5_6  and  N1_7 
REMARK    3  A    between atoms: N1_7  and  C6_8 
REMARK    4  A    between atoms: C10_14  and  O2_15 
REMARK    5  A    between atoms: C15_20  and  O3_21 
ROOT
HETATM    1  N1  UNL     1      22.857   1.319  53.321  1.00  0.00    -0.367 N 
HETATM    2  H8  UNL     1      22.594   2.005  54.075  1.00  0.00     0.157 HD
ENDROOT
BRANCH   1   3
HETATM    3  C5  UNL     1      24.212   1.259  52.754  1.00  0.00     0.109 C 
HETATM    4  C4  UNL     1      24.929   2.497  53.168  1.00  0.00     0.058 C 
HETATM    5  C3  UNL     1      26.378   2.324  53.408  1.00  0.00     0.008 C 
HETATM    6  C2  UNL     1      27.088   1.473  54.126  1.00  0.00     0.048 C 
HETATM    7  C16 UNL     1      26.405   0.392  54.923  1.00  0.00     0.128 C 
HETATM    8  C15 UNL     1      25.764  -0.471  53.879  1.00  0.00     0.047 C 
HETATM    9  C14 UNL     1      24.871  -0.007  53.037  1.00  0.00     0.030 C 
BRANCH   6  10
HETATM   10  O1  UNL     1      28.478   1.620  54.114  1.00  0.00    -0.360 OA
HETATM   11  C1  UNL     1      29.345   0.612  53.639  1.00  0.00     0.209 C 
ENDBRANCH   6  10
BRANCH   8  12
HETATM   12  O3  UNL     1      26.134  -1.807  53.810  1.00  0.00    -0.365 OA
HETATM   13  H19 UNL     1      27.023  -2.114  54.166  1.00  0.00     0.217 HD
ENDBRANCH   8  12
ENDBRANCH   1   3
BRANCH   1  14
HETATM   14  C6  UNL     1      21.917   0.420  52.818  1.00  0.00     0.315 A 
HETATM   15  N2  UNL     1      21.468   0.303  51.588  1.00  0.00    -0.031 NA
HETATM   16  C7  UNL     1      20.087   0.381  51.272  1.00  0.00     0.291 A 
HETATM   17  N3  UNL     1      20.394   0.516  52.549  1.00  0.00     0.101 N 
HETATM   18  C12 UNL     1      18.689   0.456  50.926  1.00  0.00     0.068 C 
HETATM   19  C11 UNL     1      17.766  -0.586  51.389  1.00  0.00     0.040 C 
HETATM   20  C10 UNL     1      17.588  -0.868  52.823  1.00  0.00     0.143 C 
HETATM   21  C9  UNL     1      18.773  -1.358  53.567  1.00  0.00     0.040 C 
HETATM   22  C8  UNL     1      19.808  -0.610  53.275  1.00  0.00     0.145 C 
HETATM   23  C13 UNL     1      21.234  -0.622  53.685  1.00  0.00     0.151 C 
BRANCH  20  24
HETATM   24  O2  UNL     1      16.611  -1.841  53.044  1.00  0.00    -0.392 OA
HETATM   25  H11 UNL     1      16.838  -2.690  52.564  1.00  0.00     0.210 HD
ENDBRANCH  20  24
ENDBRANCH   1  14
TORSDOF 5
ENDMDL
