MODEL 1
REMARK VINA RESULT:      -7.9      0.000      0.000
REMARK  6 active torsions:
REMARK  status: ('A' for Active; 'I' for Inactive)
REMARK    1  A    between atoms: C2_3  and  C3_4 
REMARK    2  A    between atoms: C4_6  and  C5_7 
REMARK    3  A    between atoms: C6_8  and  C7_9 
REMARK    4  A    between atoms: C7_9  and  C8_10 
REMARK    5  A    between atoms: C10_14  and  N3_15 
REMARK    6  A    between atoms: N3_15  and  C11_16 
ROOT
HETATM    1  C8  UNL     1      27.412   1.394  53.135  1.00  0.00     0.149 A 
HETATM    2  N1  UNL     1      28.576   1.139  53.755  1.00  0.00    -0.225 NA
HETATM    3  C9  UNL     1      28.690   0.229  54.738  1.00  0.00     0.254 A 
HETATM    4  N2  UNL     1      27.571  -0.417  55.071  1.00  0.00    -0.056 NA
HETATM    5  C10 UNL     1      26.362  -0.241  54.521  1.00  0.00     0.729 A 
HETATM    6  N4  UNL     1      26.367   0.675  53.567  1.00  0.00    -0.047 NA
ENDROOT
BRANCH   1   7
HETATM    7  C7  UNL     1      27.262   2.406  52.035  1.00  0.00     0.108 C 
BRANCH   7   8
HETATM    8  C6  UNL     1      25.950   2.346  51.397  1.00  0.00    -0.019 C 
HETATM    9  C5  UNL     1      25.443   2.894  50.305  1.00  0.00    -0.002 C 
BRANCH   9  10
HETATM   10  C4  UNL     1      26.251   3.762  49.465  1.00  0.00     0.023 C 
HETATM   11  C3  UNL     1      26.076   5.091  49.420  1.00  0.00     0.034 C 
HETATM   12 CL2  UNL     1      27.094   6.055  48.382  1.00  0.00    -0.084 Cl
BRANCH  11  13
HETATM   13  C2  UNL     1      25.053   5.746  50.222  1.00  0.00     0.036 C 
HETATM   14  C1  UNL     1      23.927   6.160  49.661  1.00  0.00     0.086 C 
HETATM   15 CL1  UNL     1      23.546   5.980  47.964  1.00  0.00    -0.097 Cl
ENDBRANCH  11  13
ENDBRANCH   9  10
ENDBRANCH   7   8
ENDBRANCH   1   7
BRANCH   5  16
HETATM   16  N3  UNL     1      25.171  -0.920  54.866  1.00  0.00    -0.188 N 
HETATM   17  H9  UNL     1      25.268  -1.679  55.605  1.00  0.00     0.184 HD
BRANCH  16  18
HETATM   18  C11 UNL     1      23.883  -0.731  54.366  1.00  0.00     0.050 A 
HETATM   19  C12 UNL     1      22.760  -1.207  55.049  1.00  0.00     0.030 A 
HETATM   20  C13 UNL     1      21.477  -1.039  54.585  1.00  0.00     0.004 A 
HETATM   21  C14 UNL     1      21.221  -0.378  53.403  1.00  0.00     0.019 A 
HETATM   22  C15 UNL     1      22.290   0.108  52.698  1.00  0.00     0.013 A 
HETATM   23 BR1  UNL     1      21.924   1.015  51.073  1.00  0.00    -0.051 Br
HETATM   24  C16 UNL     1      23.561  -0.081  53.195  1.00  0.00     0.049 A 
ENDBRANCH  16  18
ENDBRANCH   5  16
TORSDOF 6
ENDMDL
MODEL 2
REMARK VINA RESULT:      -7.6      2.155      2.701
REMARK  6 active torsions:
REMARK  status: ('A' for Active; 'I' for Inactive)
REMARK    1  A    between atoms: C2_3  and  C3_4 
REMARK    2  A    between atoms: C4_6  and  C5_7 
REMARK    3  A    between atoms: C6_8  and  C7_9 
REMARK    4  A    between atoms: C7_9  and  C8_10 
REMARK    5  A    between atoms: C10_14  and  N3_15 
REMARK    6  A    between atoms: N3_15  and  C11_16 
ROOT
HETATM    1  C8  UNL     1      26.715   2.155  51.431  1.00  0.00     0.149 A 
HETATM    2  N1  UNL     1      27.743   2.367  52.271  1.00  0.00    -0.225 NA
HETATM    3  C9  UNL     1      27.887   1.691  53.424  1.00  0.00     0.254 A 
HETATM    4  N2  UNL     1      26.944   0.786  53.695  1.00  0.00    -0.056 NA
HETATM    5  C10 UNL     1      25.882   0.497  52.932  1.00  0.00     0.729 A 
HETATM    6  N4  UNL     1      25.841   1.220  51.825  1.00  0.00    -0.047 NA
ENDROOT
BRANCH   1   7
HETATM    7  C7  UNL     1      26.535   2.899  50.138  1.00  0.00     0.108 C 
BRANCH   7   8
HETATM    8  C6  UNL     1      25.559   3.979  50.249  1.00  0.00    -0.019 C 
HETATM    9  C5  UNL     1      24.248   4.043  50.084  1.00  0.00    -0.002 C 
BRANCH   9  10
HETATM   10  C4  UNL     1      23.488   2.861  49.715  1.00  0.00     0.023 C 
HETATM   11  C3  UNL     1      22.651   2.838  48.667  1.00  0.00     0.034 C 
HETATM   12 CL2  UNL     1      21.779   1.373  48.297  1.00  0.00    -0.084 Cl
BRANCH  11  13
HETATM   13  C2  UNL     1      22.457   4.013  47.830  1.00  0.00     0.036 C 
HETATM   14  C1  UNL     1      21.369   4.755  47.963  1.00  0.00     0.086 C 
HETATM   15 CL1  UNL     1      20.088   4.433  49.108  1.00  0.00    -0.097 Cl
ENDBRANCH  11  13
ENDBRANCH   9  10
ENDBRANCH   7   8
ENDBRANCH   1   7
BRANCH   5  16
HETATM   16  N3  UNL     1      24.878  -0.459  53.210  1.00  0.00    -0.188 N 
HETATM   17  H9  UNL     1      25.185  -1.477  53.172  1.00  0.00     0.184 HD
BRANCH  16  18
HETATM   18  C11 UNL     1      23.538  -0.248  53.528  1.00  0.00     0.050 A 
HETATM   19  C12 UNL     1      22.908  -0.970  54.547  1.00  0.00     0.030 A 
HETATM   20  C13 UNL     1      21.588  -0.788  54.886  1.00  0.00     0.004 A 
HETATM   21  C14 UNL     1      20.799   0.134  54.232  1.00  0.00     0.019 A 
HETATM   22  C15 UNL     1      21.372   0.867  53.226  1.00  0.00     0.013 A 
HETATM   23 BR1  UNL     1      20.274   2.130  52.335  1.00  0.00    -0.051 Br
HETATM   24  C16 UNL     1      22.697   0.655  52.915  1.00  0.00     0.049 A 
ENDBRANCH  16  18
ENDBRANCH   5  16
TORSDOF 6
ENDMDL
MODEL 3
REMARK VINA RESULT:      -7.6      3.974      6.001
REMARK  6 active torsions:
REMARK  status: ('A' for Active; 'I' for Inactive)
REMARK    1  A    between atoms: C2_3  and  C3_4 
REMARK    2  A    between atoms: C4_6  and  C5_7 
REMARK    3  A    between atoms: C6_8  and  C7_9 
REMARK    4  A    between atoms: C7_9  and  C8_10 
REMARK    5  A    between atoms: C10_14  and  N3_15 
REMARK    6  A    between atoms: N3_15  and  C11_16 
ROOT
HETATM    1  C8  UNL     1      22.819   0.017  53.154  1.00  0.00     0.149 A 
HETATM    2  N1  UNL     1      23.581  -0.518  54.123  1.00  0.00    -0.225 NA
HETATM    3  C9  UNL     1      23.073  -1.279  55.107  1.00  0.00     0.254 A 
HETATM    4  N2  UNL     1      21.754  -1.480  55.072  1.00  0.00    -0.056 NA
HETATM    5  C10 UNL     1      20.905  -0.995  54.157  1.00  0.00     0.729 A 
HETATM    6  N4  UNL     1      21.512  -0.263  53.238  1.00  0.00    -0.047 NA
ENDROOT
BRANCH   1   7
HETATM    7  C7  UNL     1      23.366   0.871  52.045  1.00  0.00     0.108 C 
BRANCH   7   8
HETATM    8  C6  UNL     1      24.549   1.623  52.453  1.00  0.00    -0.019 C 
HETATM    9  C5  UNL     1      25.831   1.316  52.561  1.00  0.00    -0.002 C 
BRANCH   9  10
HETATM   10  C4  UNL     1      26.304  -0.019  52.235  1.00  0.00     0.023 C 
HETATM   11  C3  UNL     1      27.047  -0.749  53.080  1.00  0.00     0.034 C 
HETATM   12 CL2  UNL     1      27.571  -2.343  52.604  1.00  0.00    -0.084 Cl
BRANCH  11  13
HETATM   13  C2  UNL     1      27.423  -0.237  54.390  1.00  0.00     0.036 C 
HETATM   14  C1  UNL     1      28.682   0.083  54.645  1.00  0.00     0.086 C 
HETATM   15 CL1  UNL     1      29.991  -0.062  53.495  1.00  0.00    -0.097 Cl
ENDBRANCH  11  13
ENDBRANCH   9  10
ENDBRANCH   7   8
ENDBRANCH   1   7
BRANCH   5  16
HETATM   16  N3  UNL     1      19.507  -1.202  54.110  1.00  0.00    -0.188 N 
HETATM   17  H9  UNL     1      19.075  -1.649  54.975  1.00  0.00     0.184 HD
BRANCH  16  18
HETATM   18  C11 UNL     1      18.614  -0.901  53.083  1.00  0.00     0.050 A 
HETATM   19  C12 UNL     1      17.374  -1.538  52.984  1.00  0.00     0.030 A 
HETATM   20  C13 UNL     1      16.470  -1.266  51.985  1.00  0.00     0.004 A 
HETATM   21  C14 UNL     1      16.741  -0.332  51.008  1.00  0.00     0.019 A 
HETATM   22  C15 UNL     1      17.944   0.320  51.061  1.00  0.00     0.013 A 
HETATM   23 BR1  UNL     1      18.302   1.602  49.711  1.00  0.00    -0.051 Br
HETATM   24  C16 UNL     1      18.823   0.019  52.078  1.00  0.00     0.049 A 
ENDBRANCH  16  18
ENDBRANCH   5  16
TORSDOF 6
ENDMDL
MODEL 4
REMARK VINA RESULT:      -7.5      4.195      7.745
REMARK  6 active torsions:
REMARK  status: ('A' for Active; 'I' for Inactive)
REMARK    1  A    between atoms: C2_3  and  C3_4 
REMARK    2  A    between atoms: C4_6  and  C5_7 
REMARK    3  A    between atoms: C6_8  and  C7_9 
REMARK    4  A    between atoms: C7_9  and  C8_10 
REMARK    5  A    between atoms: C10_14  and  N3_15 
REMARK    6  A    between atoms: N3_15  and  C11_16 
ROOT
HETATM    1  C8  UNL     1      23.145   2.348  51.313  1.00  0.00     0.149 A 
HETATM    2  N1  UNL     1      22.568   1.720  50.274  1.00  0.00    -0.225 NA
HETATM    3  C9  UNL     1      22.565   2.229  49.030  1.00  0.00     0.254 A 
HETATM    4  N2  UNL     1      23.174   3.407  48.878  1.00  0.00    -0.056 NA
HETATM    5  C10 UNL     1      23.778   4.116  49.840  1.00  0.00     0.729 A 
HETATM    6  N4  UNL     1      23.720   3.521  51.020  1.00  0.00    -0.047 NA
ENDROOT
BRANCH   1   7
HETATM    7  C7  UNL     1      23.160   1.797  52.711  1.00  0.00     0.108 C 
BRANCH   7   8
HETATM    8  C6  UNL     1      23.055   0.341  52.737  1.00  0.00    -0.019 C 
HETATM    9  C5  UNL     1      23.724  -0.609  53.369  1.00  0.00    -0.002 C 
BRANCH   9  10
HETATM   10  C4  UNL     1      24.821  -0.276  54.262  1.00  0.00     0.023 C 
HETATM   11  C3  UNL     1      26.101  -0.267  53.861  1.00  0.00     0.034 C 
HETATM   12 CL2  UNL     1      27.354   0.146  55.002  1.00  0.00    -0.084 Cl
BRANCH  11  13
HETATM   13  C2  UNL     1      26.466  -0.594  52.490  1.00  0.00     0.036 C 
HETATM   14  C1  UNL     1      26.768   0.368  51.632  1.00  0.00     0.086 C 
HETATM   15 CL1  UNL     1      26.767   2.073  52.019  1.00  0.00    -0.097 Cl
ENDBRANCH  11  13
ENDBRANCH   9  10
ENDBRANCH   7   8
ENDBRANCH   1   7
BRANCH   5  16
HETATM   16  N3  UNL     1      24.426   5.364  49.689  1.00  0.00    -0.188 N 
HETATM   17  H9  UNL     1      23.867   6.216  49.993  1.00  0.00     0.184 HD
BRANCH  16  18
HETATM   18  C11 UNL     1      25.701   5.629  49.192  1.00  0.00     0.050 A 
HETATM   19  C12 UNL     1      26.663   4.621  49.078  1.00  0.00     0.030 A 
HETATM   20  C13 UNL     1      27.929   4.847  48.593  1.00  0.00     0.004 A 
HETATM   21  C14 UNL     1      28.327   6.101  48.183  1.00  0.00     0.019 A 
HETATM   22  C15 UNL     1      27.419   7.123  48.274  1.00  0.00     0.013 A 
HETATM   23 BR1  UNL     1      27.981   8.842  47.705  1.00  0.00    -0.051 Br
HETATM   24  C16 UNL     1      26.160   6.856  48.765  1.00  0.00     0.049 A 
ENDBRANCH  16  18
ENDBRANCH   5  16
TORSDOF 6
ENDMDL
MODEL 5
REMARK VINA RESULT:      -7.5      3.238      5.440
REMARK  6 active torsions:
REMARK  status: ('A' for Active; 'I' for Inactive)
REMARK    1  A    between atoms: C2_3  and  C3_4 
REMARK    2  A    between atoms: C4_6  and  C5_7 
REMARK    3  A    between atoms: C6_8  and  C7_9 
REMARK    4  A    between atoms: C7_9  and  C8_10 
REMARK    5  A    between atoms: C10_14  and  N3_15 
REMARK    6  A    between atoms: N3_15  and  C11_16 
ROOT
HETATM    1  C8  UNL     1      23.439  -0.601  53.867  1.00  0.00     0.149 A 
HETATM    2  N1  UNL     1      22.503  -1.269  54.562  1.00  0.00    -0.225 NA
HETATM    3  C9  UNL     1      21.191  -1.182  54.280  1.00  0.00     0.254 A 
HETATM    4  N2  UNL     1      20.863  -0.387  53.260  1.00  0.00    -0.056 NA
HETATM    5  C10 UNL     1      21.711   0.322  52.504  1.00  0.00     0.729 A 
HETATM    6  N4  UNL     1      22.972   0.161  52.870  1.00  0.00    -0.047 NA
ENDROOT
BRANCH   1   7
HETATM    7  C7  UNL     1      24.909  -0.683  54.165  1.00  0.00     0.108 C 
BRANCH   7   8
HETATM    8  C6  UNL     1      25.686  -1.141  53.017  1.00  0.00    -0.019 C 
HETATM    9  C5  UNL     1      26.861  -0.797  52.518  1.00  0.00    -0.002 C 
BRANCH   9  10
HETATM   10  C4  UNL     1      27.659   0.243  53.145  1.00  0.00     0.023 C 
HETATM   11  C3  UNL     1      27.635   1.520  52.734  1.00  0.00     0.034 C 
HETATM   12 CL2  UNL     1      28.627   2.701  53.548  1.00  0.00    -0.084 Cl
BRANCH  11  13
HETATM   13  C2  UNL     1      26.794   1.939  51.622  1.00  0.00     0.036 C 
HETATM   14  C1  UNL     1      25.629   2.524  51.849  1.00  0.00     0.086 C 
HETATM   15 CL1  UNL     1      24.982   2.851  53.440  1.00  0.00    -0.097 Cl
ENDBRANCH  11  13
ENDBRANCH   9  10
ENDBRANCH   7   8
ENDBRANCH   1   7
BRANCH   5  16
HETATM   16  N3  UNL     1      21.373   1.166  51.421  1.00  0.00    -0.188 N 
HETATM   17  H9  UNL     1      20.794   0.720  50.648  1.00  0.00     0.184 HD
BRANCH  16  18
HETATM   18  C11 UNL     1      21.698   2.508  51.227  1.00  0.00     0.050 A 
HETATM   19  C12 UNL     1      21.558   3.447  52.253  1.00  0.00     0.030 A 
HETATM   20  C13 UNL     1      21.869   4.777  52.097  1.00  0.00     0.004 A 
HETATM   21  C14 UNL     1      22.346   5.267  50.900  1.00  0.00     0.019 A 
HETATM   22  C15 UNL     1      22.501   4.385  49.864  1.00  0.00     0.013 A 
HETATM   23 BR1  UNL     1      23.158   5.073  48.224  1.00  0.00    -0.051 Br
HETATM   24  C16 UNL     1      22.179   3.060  50.060  1.00  0.00     0.049 A 
ENDBRANCH  16  18
ENDBRANCH   5  16
TORSDOF 6
ENDMDL
MODEL 6
REMARK VINA RESULT:      -7.5      5.695      9.274
REMARK  6 active torsions:
REMARK  status: ('A' for Active; 'I' for Inactive)
REMARK    1  A    between atoms: C2_3  and  C3_4 
REMARK    2  A    between atoms: C4_6  and  C5_7 
REMARK    3  A    between atoms: C6_8  and  C7_9 
REMARK    4  A    between atoms: C7_9  and  C8_10 
REMARK    5  A    between atoms: C10_14  and  N3_15 
REMARK    6  A    between atoms: N3_15  and  C11_16 
ROOT
HETATM    1  C8  UNL     1      26.646   4.304  49.504  1.00  0.00     0.149 A 
HETATM    2  N1  UNL     1      25.756   5.274  49.776  1.00  0.00    -0.225 NA
HETATM    3  C9  UNL     1      25.922   6.544  49.366  1.00  0.00     0.254 A 
HETATM    4  N2  UNL     1      27.030   6.794  48.666  1.00  0.00    -0.056 NA
HETATM    5  C10 UNL     1      27.978   5.906  48.341  1.00  0.00     0.729 A 
HETATM    6  N4  UNL     1      27.713   4.692  48.794  1.00  0.00    -0.047 NA
ENDROOT
BRANCH   1   7
HETATM    7  C7  UNL     1      26.481   2.879  49.952  1.00  0.00     0.108 C 
BRANCH   7   8
HETATM    8  C6  UNL     1      25.881   2.779  51.279  1.00  0.00    -0.019 C 
HETATM    9  C5  UNL     1      25.758   1.791  52.150  1.00  0.00    -0.002 C 
BRANCH   9  10
HETATM   10  C4  UNL     1      26.287   0.470  51.855  1.00  0.00     0.023 C 
HETATM   11  C3  UNL     1      26.245  -0.540  52.737  1.00  0.00     0.034 C 
HETATM   12 CL2  UNL     1      26.905  -2.093  52.295  1.00  0.00    -0.084 Cl
BRANCH  11  13
HETATM   13  C2  UNL     1      25.656  -0.365  54.057  1.00  0.00     0.036 C 
HETATM   14  C1  UNL     1      26.420  -0.055  55.093  1.00  0.00     0.086 C 
HETATM   15 CL1  UNL     1      28.152   0.174  55.010  1.00  0.00    -0.097 Cl
ENDBRANCH  11  13
ENDBRANCH   9  10
ENDBRANCH   7   8
ENDBRANCH   1   7
BRANCH   5  16
HETATM   16  N3  UNL     1      29.155   6.161  47.600  1.00  0.00    -0.188 N 
HETATM   17  H9  UNL     1      29.013   6.604  46.642  1.00  0.00     0.184 HD
BRANCH  16  18
HETATM   18  C11 UNL     1      30.479   5.911  47.954  1.00  0.00     0.050 A 
HETATM   19  C12 UNL     1      31.209   6.813  48.734  1.00  0.00     0.030 A 
HETATM   20  C13 UNL     1      32.516   6.598  49.101  1.00  0.00     0.004 A 
HETATM   21  C14 UNL     1      33.192   5.460  48.715  1.00  0.00     0.019 A 
HETATM   22  C15 UNL     1      32.519   4.545  47.950  1.00  0.00     0.013 A 
HETATM   23 BR1  UNL     1      33.462   2.985  47.428  1.00  0.00    -0.051 Br
HETATM   24  C16 UNL     1      31.210   4.797  47.603  1.00  0.00     0.049 A 
ENDBRANCH  16  18
ENDBRANCH   5  16
TORSDOF 6
ENDMDL
MODEL 7
REMARK VINA RESULT:      -7.5      3.363      6.805
REMARK  6 active torsions:
REMARK  status: ('A' for Active; 'I' for Inactive)
REMARK    1  A    between atoms: C2_3  and  C3_4 
REMARK    2  A    between atoms: C4_6  and  C5_7 
REMARK    3  A    between atoms: C6_8  and  C7_9 
REMARK    4  A    between atoms: C7_9  and  C8_10 
REMARK    5  A    between atoms: C10_14  and  N3_15 
REMARK    6  A    between atoms: N3_15  and  C11_16 
ROOT
HETATM    1  C8  UNL     1      25.013   1.919  52.720  1.00  0.00     0.149 A 
HETATM    2  N1  UNL     1      26.057   1.791  53.558  1.00  0.00    -0.225 NA
HETATM    3  C9  UNL     1      27.321   2.052  53.184  1.00  0.00     0.254 A 
HETATM    4  N2  UNL     1      27.490   2.450  51.922  1.00  0.00    -0.056 NA
HETATM    5  C10 UNL     1      26.524   2.610  51.007  1.00  0.00     0.729 A 
HETATM    6  N4  UNL     1      25.323   2.326  51.483  1.00  0.00    -0.047 NA
ENDROOT
BRANCH   1   7
HETATM    7  C7  UNL     1      23.593   1.632  53.116  1.00  0.00     0.108 C 
BRANCH   7   8
HETATM    8  C6  UNL     1      23.234   0.230  52.928  1.00  0.00    -0.019 C 
HETATM    9  C5  UNL     1      22.104  -0.389  52.630  1.00  0.00    -0.002 C 
BRANCH   9  10
HETATM   10  C4  UNL     1      20.879   0.363  52.416  1.00  0.00     0.023 C 
HETATM   11  C3  UNL     1      20.528   0.846  51.215  1.00  0.00     0.034 C 
HETATM   12 CL2  UNL     1      19.038   1.739  51.051  1.00  0.00    -0.084 Cl
BRANCH  11  13
HETATM   13  C2  UNL     1      21.367   0.639  50.043  1.00  0.00     0.036 C 
HETATM   14  C1  UNL     1      22.092   1.634  49.556  1.00  0.00     0.086 C 
HETATM   15 CL1  UNL     1      22.131   3.248  50.228  1.00  0.00    -0.097 Cl
ENDBRANCH  11  13
ENDBRANCH   9  10
ENDBRANCH   7   8
ENDBRANCH   1   7
BRANCH   5  16
HETATM   16  N3  UNL     1      26.692   3.032  49.668  1.00  0.00    -0.188 N 
HETATM   17  H9  UNL     1      26.798   2.256  48.947  1.00  0.00     0.184 HD
BRANCH  16  18
HETATM   18  C11 UNL     1      26.739   4.330  49.162  1.00  0.00     0.050 A 
HETATM   19  C12 UNL     1      25.598   5.135  49.114  1.00  0.00     0.030 A 
HETATM   20  C13 UNL     1      25.608   6.419  48.622  1.00  0.00     0.004 A 
HETATM   21  C14 UNL     1      26.765   6.994  48.143  1.00  0.00     0.019 A 
HETATM   22  C15 UNL     1      27.912   6.245  48.170  1.00  0.00     0.013 A 
HETATM   23 BR1  UNL     1      29.495   7.050  47.507  1.00  0.00    -0.051 Br
HETATM   24  C16 UNL     1      27.860   4.963  48.670  1.00  0.00     0.049 A 
ENDBRANCH  16  18
ENDBRANCH   5  16
TORSDOF 6
ENDMDL
MODEL 8
REMARK VINA RESULT:      -7.4      3.118      5.277
REMARK  6 active torsions:
REMARK  status: ('A' for Active; 'I' for Inactive)
REMARK    1  A    between atoms: C2_3  and  C3_4 
REMARK    2  A    between atoms: C4_6  and  C5_7 
REMARK    3  A    between atoms: C6_8  and  C7_9 
REMARK    4  A    between atoms: C7_9  and  C8_10 
REMARK    5  A    between atoms: C10_14  and  N3_15 
REMARK    6  A    between atoms: N3_15  and  C11_16 
ROOT
HETATM    1  C8  UNL     1      21.189   0.541  52.312  1.00  0.00     0.149 A 
HETATM    2  N1  UNL     1      20.529   0.463  53.481  1.00  0.00    -0.225 NA
HETATM    3  C9  UNL     1      21.093  -0.025  54.599  1.00  0.00     0.254 A 
HETATM    4  N2  UNL     1      22.358  -0.433  54.488  1.00  0.00    -0.056 NA
HETATM    5  C10 UNL     1      23.106  -0.400  53.377  1.00  0.00     0.729 A 
HETATM    6  N4  UNL     1      22.452   0.098  52.341  1.00  0.00    -0.047 NA
ENDROOT
BRANCH   1   7
HETATM    7  C7  UNL     1      20.579   1.082  51.051  1.00  0.00     0.108 C 
BRANCH   7   8
HETATM    8  C6  UNL     1      21.306   0.664  49.856  1.00  0.00    -0.019 C 
HETATM    9  C5  UNL     1      21.792   1.315  48.812  1.00  0.00    -0.002 C 
BRANCH   9  10
HETATM   10  C4  UNL     1      21.643   2.755  48.699  1.00  0.00     0.023 C 
HETATM   11  C3  UNL     1      22.638   3.610  48.978  1.00  0.00     0.034 C 
HETATM   12 CL2  UNL     1      22.368   5.325  48.813  1.00  0.00    -0.084 Cl
BRANCH  11  13
HETATM   13  C2  UNL     1      23.943   3.133  49.414  1.00  0.00     0.036 C 
HETATM   14  C1  UNL     1      24.249   3.112  50.702  1.00  0.00     0.086 C 
HETATM   15 CL1  UNL     1      23.176   3.632  51.981  1.00  0.00    -0.097 Cl
ENDBRANCH  11  13
ENDBRANCH   9  10
ENDBRANCH   7   8
ENDBRANCH   1   7
BRANCH   5  16
HETATM   16  N3  UNL     1      24.447  -0.829  53.250  1.00  0.00    -0.188 N 
HETATM   17  H9  UNL     1      24.585  -1.857  53.014  1.00  0.00     0.184 HD
BRANCH  16  18
HETATM   18  C11 UNL     1      25.618  -0.086  53.393  1.00  0.00     0.050 A 
HETATM   19  C12 UNL     1      25.584   1.304  53.547  1.00  0.00     0.030 A 
HETATM   20  C13 UNL     1      26.718   2.068  53.690  1.00  0.00     0.004 A 
HETATM   21  C14 UNL     1      27.972   1.497  53.693  1.00  0.00     0.019 A 
HETATM   22  C15 UNL     1      28.057   0.138  53.547  1.00  0.00     0.013 A 
HETATM   23 BR1  UNL     1      29.790  -0.633  53.552  1.00  0.00    -0.051 Br
HETATM   24  C16 UNL     1      26.899  -0.593  53.405  1.00  0.00     0.049 A 
ENDBRANCH  16  18
ENDBRANCH   5  16
TORSDOF 6
ENDMDL
MODEL 9
REMARK VINA RESULT:      -7.3      4.235      6.197
REMARK  6 active torsions:
REMARK  status: ('A' for Active; 'I' for Inactive)
REMARK    1  A    between atoms: C2_3  and  C3_4 
REMARK    2  A    between atoms: C4_6  and  C5_7 
REMARK    3  A    between atoms: C6_8  and  C7_9 
REMARK    4  A    between atoms: C7_9  and  C8_10 
REMARK    5  A    between atoms: C10_14  and  N3_15 
REMARK    6  A    between atoms: N3_15  and  C11_16 
ROOT
HETATM    1  C8  UNL     1      23.136   3.549  50.206  1.00  0.00     0.149 A 
HETATM    2  N1  UNL     1      22.294   4.558  50.490  1.00  0.00    -0.225 NA
HETATM    3  C9  UNL     1      22.243   5.140  51.701  1.00  0.00     0.254 A 
HETATM    4  N2  UNL     1      23.082   4.657  52.619  1.00  0.00    -0.056 NA
HETATM    5  C10 UNL     1      23.957   3.659  52.444  1.00  0.00     0.729 A 
HETATM    6  N4  UNL     1      23.922   3.162  51.219  1.00  0.00    -0.047 NA
ENDROOT
BRANCH   1   7
HETATM    7  C7  UNL     1      23.210   2.885  48.861  1.00  0.00     0.108 C 
BRANCH   7   8
HETATM    8  C6  UNL     1      21.919   2.356  48.429  1.00  0.00    -0.019 C 
HETATM    9  C5  UNL     1      21.138   1.385  48.874  1.00  0.00    -0.002 C 
BRANCH   9  10
HETATM   10  C4  UNL     1      21.522   0.594  50.030  1.00  0.00     0.023 C 
HETATM   11  C3  UNL     1      20.948   0.746  51.233  1.00  0.00     0.034 C 
HETATM   12 CL2  UNL     1      21.472  -0.249  52.566  1.00  0.00    -0.084 Cl
BRANCH  11  13
HETATM   13  C2  UNL     1      19.892   1.726  51.447  1.00  0.00     0.036 C 
HETATM   14  C1  UNL     1      18.632   1.337  51.558  1.00  0.00     0.086 C 
HETATM   15 CL1  UNL     1      18.101  -0.327  51.465  1.00  0.00    -0.097 Cl
ENDBRANCH  11  13
ENDBRANCH   9  10
ENDBRANCH   7   8
ENDBRANCH   1   7
BRANCH   5  16
HETATM   16  N3  UNL     1      24.851   3.141  53.411  1.00  0.00    -0.188 N 
HETATM   17  H9  UNL     1      25.052   3.773  54.242  1.00  0.00     0.184 HD
BRANCH  16  18
HETATM   18  C11 UNL     1      25.507   1.911  53.420  1.00  0.00     0.050 A 
HETATM   19  C12 UNL     1      24.803   0.708  53.296  1.00  0.00     0.030 A 
HETATM   20  C13 UNL     1      25.417  -0.521  53.302  1.00  0.00     0.004 A 
HETATM   21  C14 UNL     1      26.785  -0.640  53.431  1.00  0.00     0.019 A 
HETATM   22  C15 UNL     1      27.518   0.510  53.555  1.00  0.00     0.013 A 
HETATM   23 BR1  UNL     1      29.397   0.331  53.733  1.00  0.00    -0.051 Br
HETATM   24  C16 UNL     1      26.866   1.723  53.545  1.00  0.00     0.049 A 
ENDBRANCH  16  18
ENDBRANCH   5  16
TORSDOF 6
ENDMDL
