MODEL 1
REMARK VINA RESULT:      -7.8      0.000      0.000
REMARK  8 active torsions:
REMARK  status: ('A' for Active; 'I' for Inactive)
REMARK    1  A    between atoms: C2_2  and  O1_3 
REMARK    2  A    between atoms: O1_3  and  C3_4 
REMARK    3  A    between atoms: C5_6  and  C7_9 
REMARK    4  A    between atoms: C7_9  and  C8_10 
REMARK    5  A    between atoms: C10_12  and  N2_13 
REMARK       I    between atoms: N2_13  and  C11_14 
REMARK    6  A    between atoms: C11_14  and  C12_16 
REMARK    7  A    between atoms: C13_17  and  C14_18 
REMARK    8  A    between atoms: C14_18  and  N3_19 
ROOT
HETATM    1  N2  UNL     1      24.505  -0.585  53.538  1.00  0.00    -0.325 N 
HETATM    2  C11 UNL     1      24.084  -1.089  54.861  1.00  0.00     0.227 C 
HETATM    3  O2  UNL     1      25.228  -1.267  55.446  1.00  0.00    -0.273 OA
HETATM    4  H9  UNL     1      23.714  -0.458  52.947  1.00  0.00     0.169 HD
ENDROOT
BRANCH   1   5
HETATM    5  C10 UNL     1      25.904  -0.501  53.536  1.00  0.00     0.065 C 
HETATM    6  C3  UNL     1      26.233   0.845  53.763  1.00  0.00     0.093 C 
HETATM    7  C4  UNL     1      27.397   1.359  53.787  1.00  0.00     0.040 C 
HETATM    8  C5  UNL     1      28.445   0.462  53.704  1.00  0.00     0.068 A 
HETATM    9  N1  UNL     1      30.287  -0.493  53.786  1.00  0.00    -0.272 NA
HETATM   10  C8  UNL     1      28.183  -1.417  52.928  1.00  0.00     0.081 A 
HETATM   11  C6  UNL     1      29.666  -0.787  53.526  1.00  0.00     0.074 A 
HETATM   12  C7  UNL     1      29.167  -1.009  53.320  1.00  0.00     0.074 A 
HETATM   13  C9  UNL     1      26.760  -1.361  53.227  1.00  0.00     0.016 C 
BRANCH   6  14
HETATM   14  O1  UNL     1      25.796   2.112  53.963  1.00  0.00    -0.349 OA
BRANCH  14  15
HETATM   15  C2  UNL     1      24.787   2.798  53.256  1.00  0.00     0.171 C 
HETATM   16  C1  UNL     1      25.116   2.737  51.761  1.00  0.00     0.034 C 
ENDBRANCH  14  15
ENDBRANCH   6  14
ENDBRANCH   1   5
BRANCH   2  17
HETATM   17  C12 UNL     1      22.603  -1.177  54.966  1.00  0.00     0.098 C 
HETATM   18  C13 UNL     1      21.414  -0.552  54.747  1.00  0.00     0.034 C 
BRANCH  18  19
HETATM   19  C14 UNL     1      20.540   0.582  54.285  1.00  0.00     0.278 C 
BRANCH  19  20
HETATM   20  N3  UNL     1      21.132   1.077  53.036  1.00  0.00     0.090 N 
HETATM   21  C15 UNL     1      21.092   0.126  51.958  1.00  0.00     0.282 C 
HETATM   22  C16 UNL     1      20.900   0.661  50.596  1.00  0.00     0.104 C 
HETATM   23  S1  UNL     1      21.704   2.266  50.406  1.00  0.00    -0.166 SA
HETATM   24  C17 UNL     1      21.275   3.171  51.941  1.00  0.00     0.104 C 
HETATM   25  C18 UNL     1      20.322   2.259  52.635  1.00  0.00     0.282 C 
ENDBRANCH  19  20
ENDBRANCH  18  19
ENDBRANCH   2  17
TORSDOF 8
ENDMDL
MODEL 2
REMARK VINA RESULT:      -7.6      4.026      5.813
REMARK  8 active torsions:
REMARK  status: ('A' for Active; 'I' for Inactive)
REMARK    1  A    between atoms: C2_2  and  O1_3 
REMARK    2  A    between atoms: O1_3  and  C3_4 
REMARK    3  A    between atoms: C5_6  and  C7_9 
REMARK    4  A    between atoms: C7_9  and  C8_10 
REMARK    5  A    between atoms: C10_12  and  N2_13 
REMARK       I    between atoms: N2_13  and  C11_14 
REMARK    6  A    between atoms: C11_14  and  C12_16 
REMARK    7  A    between atoms: C13_17  and  C14_18 
REMARK    8  A    between atoms: C14_18  and  N3_19 
ROOT
HETATM    1  N2  UNL     1      25.887   2.816  52.496  1.00  0.00    -0.325 N 
HETATM    2  C11 UNL     1      25.954   3.045  51.039  1.00  0.00     0.227 C 
HETATM    3  O2  UNL     1      26.930   2.261  50.700  1.00  0.00    -0.273 OA
HETATM    4  H9  UNL     1      25.204   3.412  52.911  1.00  0.00     0.169 HD
ENDROOT
BRANCH   1   5
HETATM    5  C10 UNL     1      26.856   1.859  52.827  1.00  0.00     0.065 C 
HETATM    6  C3  UNL     1      26.217   0.610  52.818  1.00  0.00     0.093 C 
HETATM    7  C4  UNL     1      26.728  -0.518  53.112  1.00  0.00     0.040 C 
HETATM    8  C5  UNL     1      28.091  -0.512  53.341  1.00  0.00     0.068 A 
HETATM    9  N1  UNL     1      30.092  -1.008  53.587  1.00  0.00    -0.272 NA
HETATM   10  C8  UNL     1      29.081   1.212  53.844  1.00  0.00     0.081 A 
HETATM   11  C6  UNL     1      29.807  -0.336  53.666  1.00  0.00     0.074 A 
HETATM   12  C7  UNL     1      29.569   0.193  53.729  1.00  0.00     0.074 A 
HETATM   13  C9  UNL     1      28.029   2.013  53.235  1.00  0.00     0.016 C 
BRANCH   6  14
HETATM   14  O1  UNL     1      25.065  -0.086  52.652  1.00  0.00    -0.349 OA
BRANCH  14  15
HETATM   15  C2  UNL     1      23.917  -0.061  53.469  1.00  0.00     0.171 C 
HETATM   16  C1  UNL     1      22.865   0.829  52.800  1.00  0.00     0.034 C 
ENDBRANCH  14  15
ENDBRANCH   6  14
ENDBRANCH   1   5
BRANCH   2  17
HETATM   17  C12 UNL     1      24.930   4.026  50.593  1.00  0.00     0.098 C 
HETATM   18  C13 UNL     1      24.568   5.337  50.534  1.00  0.00     0.034 C 
BRANCH  18  19
HETATM   19  C14 UNL     1      24.753   6.810  50.776  1.00  0.00     0.278 C 
BRANCH  19  20
HETATM   20  N3  UNL     1      25.961   7.200  50.039  1.00  0.00     0.090 N 
HETATM   21  C15 UNL     1      25.982   6.744  48.675  1.00  0.00     0.282 C 
HETATM   22  C16 UNL     1      26.624   7.625  47.680  1.00  0.00     0.104 C 
HETATM   23  S1  UNL     1      28.024   8.510  48.399  1.00  0.00    -0.166 SA
HETATM   24  C17 UNL     1      27.415   9.070  50.034  1.00  0.00     0.104 C 
HETATM   25  C18 UNL     1      25.973   8.688  50.024  1.00  0.00     0.282 C 
ENDBRANCH  19  20
ENDBRANCH  18  19
ENDBRANCH   2  17
TORSDOF 8
ENDMDL
MODEL 3
REMARK VINA RESULT:      -7.5      1.912      3.732
REMARK  8 active torsions:
REMARK  status: ('A' for Active; 'I' for Inactive)
REMARK    1  A    between atoms: C2_2  and  O1_3 
REMARK    2  A    between atoms: O1_3  and  C3_4 
REMARK    3  A    between atoms: C5_6  and  C7_9 
REMARK    4  A    between atoms: C7_9  and  C8_10 
REMARK    5  A    between atoms: C10_12  and  N2_13 
REMARK       I    between atoms: N2_13  and  C11_14 
REMARK    6  A    between atoms: C11_14  and  C12_16 
REMARK    7  A    between atoms: C13_17  and  C14_18 
REMARK    8  A    between atoms: C14_18  and  N3_19 
ROOT
HETATM    1  N2  UNL     1      25.802   2.726  52.589  1.00  0.00    -0.325 N 
HETATM    2  C11 UNL     1      25.877   3.011  51.142  1.00  0.00     0.227 C 
HETATM    3  O2  UNL     1      26.873   2.263  50.783  1.00  0.00    -0.273 OA
HETATM    4  H9  UNL     1      25.102   3.289  53.019  1.00  0.00     0.169 HD
ENDROOT
BRANCH   1   5
HETATM    5  C10 UNL     1      26.791   1.780  52.893  1.00  0.00     0.065 C 
HETATM    6  C3  UNL     1      26.162   0.525  52.920  1.00  0.00     0.093 C 
HETATM    7  C4  UNL     1      26.693  -0.595  53.207  1.00  0.00     0.040 C 
HETATM    8  C5  UNL     1      28.064  -0.575  53.385  1.00  0.00     0.068 A 
HETATM    9  N1  UNL     1      30.077  -1.054  53.560  1.00  0.00    -0.272 NA
HETATM   10  C8  UNL     1      29.057   1.161  53.832  1.00  0.00     0.081 A 
HETATM   11  C6  UNL     1      29.789  -0.383  53.643  1.00  0.00     0.074 A 
HETATM   12  C7  UNL     1      29.550   0.145  53.710  1.00  0.00     0.074 A 
HETATM   13  C9  UNL     1      27.978   1.947  53.255  1.00  0.00     0.016 C 
BRANCH   6  14
HETATM   14  O1  UNL     1      25.011  -0.181  52.805  1.00  0.00    -0.349 OA
BRANCH  14  15
HETATM   15  C2  UNL     1      24.079  -0.483  53.819  1.00  0.00     0.171 C 
HETATM   16  C1  UNL     1      22.695  -0.622  53.179  1.00  0.00     0.034 C 
ENDBRANCH  14  15
ENDBRANCH   6  14
ENDBRANCH   1   5
BRANCH   2  17
HETATM   17  C12 UNL     1      24.833   3.983  50.723  1.00  0.00     0.098 C 
HETATM   18  C13 UNL     1      23.727   4.686  51.091  1.00  0.00     0.034 C 
BRANCH  18  19
HETATM   19  C14 UNL     1      22.659   5.132  52.051  1.00  0.00     0.278 C 
BRANCH  19  20
HETATM   20  N3  UNL     1      21.448   4.380  51.701  1.00  0.00     0.090 N 
HETATM   21  C15 UNL     1      21.173   4.348  50.289  1.00  0.00     0.282 C 
HETATM   22  C16 UNL     1      20.564   3.116  49.750  1.00  0.00     0.104 C 
HETATM   23  S1  UNL     1      19.438   2.368  50.947  1.00  0.00    -0.166 SA
HETATM   24  C17 UNL     1      20.341   2.461  52.538  1.00  0.00     0.104 C 
HETATM   25  C18 UNL     1      21.684   2.982  52.153  1.00  0.00     0.282 C 
ENDBRANCH  19  20
ENDBRANCH  18  19
ENDBRANCH   2  17
TORSDOF 8
ENDMDL
MODEL 4
REMARK VINA RESULT:      -7.4      2.695      4.300
REMARK  8 active torsions:
REMARK  status: ('A' for Active; 'I' for Inactive)
REMARK    1  A    between atoms: C2_2  and  O1_3 
REMARK    2  A    between atoms: O1_3  and  C3_4 
REMARK    3  A    between atoms: C5_6  and  C7_9 
REMARK    4  A    between atoms: C7_9  and  C8_10 
REMARK    5  A    between atoms: C10_12  and  N2_13 
REMARK       I    between atoms: N2_13  and  C11_14 
REMARK    6  A    between atoms: C11_14  and  C12_16 
REMARK    7  A    between atoms: C13_17  and  C14_18 
REMARK    8  A    between atoms: C14_18  and  N3_19 
ROOT
HETATM    1  N2  UNL     1      25.816   2.753  52.635  1.00  0.00    -0.325 N 
HETATM    2  C11 UNL     1      25.823   2.995  51.178  1.00  0.00     0.227 C 
HETATM    3  O2  UNL     1      26.800   2.232  50.795  1.00  0.00    -0.273 OA
HETATM    4  H9  UNL     1      25.138   3.331  53.080  1.00  0.00     0.169 HD
ENDROOT
BRANCH   1   5
HETATM    5  C10 UNL     1      26.816   1.813  52.920  1.00  0.00     0.065 C 
HETATM    6  C3  UNL     1      26.207   0.548  52.897  1.00  0.00     0.093 C 
HETATM    7  C4  UNL     1      26.752  -0.573  53.152  1.00  0.00     0.040 C 
HETATM    8  C5  UNL     1      28.120  -0.537  53.350  1.00  0.00     0.068 A 
HETATM    9  N1  UNL     1      30.138  -0.990  53.536  1.00  0.00    -0.272 NA
HETATM   10  C8  UNL     1      29.079   1.198  53.869  1.00  0.00     0.081 A 
HETATM   11  C6  UNL     1      29.839  -0.326  53.638  1.00  0.00     0.074 A 
HETATM   12  C7  UNL     1      29.589   0.195  53.719  1.00  0.00     0.074 A 
HETATM   13  C9  UNL     1      27.995   1.987  53.304  1.00  0.00     0.016 C 
BRANCH   6  14
HETATM   14  O1  UNL     1      25.069  -0.172  52.742  1.00  0.00    -0.349 OA
BRANCH  14  15
HETATM   15  C2  UNL     1      23.903  -0.123  53.533  1.00  0.00     0.171 C 
HETATM   16  C1  UNL     1      22.885   0.787  52.838  1.00  0.00     0.034 C 
ENDBRANCH  14  15
ENDBRANCH   6  14
ENDBRANCH   1   5
BRANCH   2  17
HETATM   17  C12 UNL     1      24.763   3.958  50.779  1.00  0.00     0.098 C 
HETATM   18  C13 UNL     1      23.566   4.520  51.100  1.00  0.00     0.034 C 
BRANCH  18  19
HETATM   19  C14 UNL     1      22.352   4.732  51.963  1.00  0.00     0.278 C 
BRANCH  19  20
HETATM   20  N3  UNL     1      21.504   5.697  51.254  1.00  0.00     0.090 N 
HETATM   21  C15 UNL     1      22.197   6.889  50.843  1.00  0.00     0.282 C 
HETATM   22  C16 UNL     1      21.780   7.504  49.568  1.00  0.00     0.104 C 
HETATM   23  S1  UNL     1      20.006   7.307  49.299  1.00  0.00    -0.166 SA
HETATM   24  C17 UNL     1      19.667   5.568  49.765  1.00  0.00     0.104 C 
HETATM   25  C18 UNL     1      21.021   5.003  50.030  1.00  0.00     0.282 C 
ENDBRANCH  19  20
ENDBRANCH  18  19
ENDBRANCH   2  17
TORSDOF 8
ENDMDL
MODEL 5
REMARK VINA RESULT:      -7.2      4.051      7.002
REMARK  8 active torsions:
REMARK  status: ('A' for Active; 'I' for Inactive)
REMARK    1  A    between atoms: C2_2  and  O1_3 
REMARK    2  A    between atoms: O1_3  and  C3_4 
REMARK    3  A    between atoms: C5_6  and  C7_9 
REMARK    4  A    between atoms: C7_9  and  C8_10 
REMARK    5  A    between atoms: C10_12  and  N2_13 
REMARK       I    between atoms: N2_13  and  C11_14 
REMARK    6  A    between atoms: C11_14  and  C12_16 
REMARK    7  A    between atoms: C13_17  and  C14_18 
REMARK    8  A    between atoms: C14_18  and  N3_19 
ROOT
HETATM    1  N2  UNL     1      24.057   2.042  51.036  1.00  0.00    -0.325 N 
HETATM    2  C11 UNL     1      24.027   3.395  51.627  1.00  0.00     0.227 C 
HETATM    3  O2  UNL     1      23.481   3.161  52.780  1.00  0.00    -0.273 OA
HETATM    4  H9  UNL     1      24.406   2.077  50.104  1.00  0.00     0.169 HD
ENDROOT
BRANCH   1   5
HETATM    5  C10 UNL     1      23.530   1.149  51.979  1.00  0.00     0.065 C 
HETATM    6  C3  UNL     1      24.619   0.573  52.651  1.00  0.00     0.093 C 
HETATM    7  C4  UNL     1      24.580  -0.327  53.550  1.00  0.00     0.040 C 
HETATM    8  C5  UNL     1      23.316  -0.673  53.990  1.00  0.00     0.068 A 
HETATM    9  N1  UNL     1      21.680  -1.370  55.062  1.00  0.00    -0.272 NA
HETATM   10  C8  UNL     1      21.651  -0.304  52.853  1.00  0.00     0.081 A 
HETATM   11  C6  UNL     1      21.652  -1.051  54.401  1.00  0.00     0.074 A 
HETATM   12  C7  UNL     1      21.642  -0.799  53.875  1.00  0.00     0.074 A 
HETATM   13  C9  UNL     1      22.353   0.751  52.138  1.00  0.00     0.016 C 
BRANCH   6  14
HETATM   14  O1  UNL     1      25.965   0.478  52.779  1.00  0.00    -0.349 OA
BRANCH  14  15
HETATM   15  C2  UNL     1      26.785  -0.628  52.476  1.00  0.00     0.171 C 
HETATM   16  C1  UNL     1      28.111  -0.468  53.225  1.00  0.00     0.034 C 
ENDBRANCH  14  15
ENDBRANCH   6  14
ENDBRANCH   1   5
BRANCH   2  17
HETATM   17  C12 UNL     1      24.604   4.407  50.703  1.00  0.00     0.098 C 
HETATM   18  C13 UNL     1      25.594   4.693  49.814  1.00  0.00     0.034 C 
BRANCH  18  19
HETATM   19  C14 UNL     1      26.829   4.388  49.011  1.00  0.00     0.278 C 
BRANCH  19  20
HETATM   20  N3  UNL     1      27.627   5.620  48.997  1.00  0.00     0.090 N 
HETATM   21  C15 UNL     1      28.864   5.502  48.272  1.00  0.00     0.282 C 
HETATM   22  C16 UNL     1      29.331   6.695  47.538  1.00  0.00     0.104 C 
HETATM   23  S1  UNL     1      28.894   8.211  48.416  1.00  0.00    -0.166 SA
HETATM   24  C17 UNL     1      27.163   7.941  48.953  1.00  0.00     0.104 C 
HETATM   25  C18 UNL     1      26.793   6.646  48.315  1.00  0.00     0.282 C 
ENDBRANCH  19  20
ENDBRANCH  18  19
ENDBRANCH   2  17
TORSDOF 8
ENDMDL
MODEL 6
REMARK VINA RESULT:      -7.1      5.176      7.266
REMARK  8 active torsions:
REMARK  status: ('A' for Active; 'I' for Inactive)
REMARK    1  A    between atoms: C2_2  and  O1_3 
REMARK    2  A    between atoms: O1_3  and  C3_4 
REMARK    3  A    between atoms: C5_6  and  C7_9 
REMARK    4  A    between atoms: C7_9  and  C8_10 
REMARK    5  A    between atoms: C10_12  and  N2_13 
REMARK       I    between atoms: N2_13  and  C11_14 
REMARK    6  A    between atoms: C11_14  and  C12_16 
REMARK    7  A    between atoms: C13_17  and  C14_18 
REMARK    8  A    between atoms: C14_18  and  N3_19 
ROOT
HETATM    1  N2  UNL     1      26.047   3.789  51.115  1.00  0.00    -0.325 N 
HETATM    2  C11 UNL     1      26.539   3.732  49.724  1.00  0.00     0.227 C 
HETATM    3  O2  UNL     1      26.912   2.493  49.633  1.00  0.00    -0.273 OA
HETATM    4  H9  UNL     1      25.776   4.717  51.351  1.00  0.00     0.169 HD
ENDROOT
BRANCH   1   5
HETATM    5  C10 UNL     1      26.174   2.507  51.669  1.00  0.00     0.065 C 
HETATM    6  C3  UNL     1      24.878   1.979  51.778  1.00  0.00     0.093 C 
HETATM    7  C4  UNL     1      24.544   0.857  52.278  1.00  0.00     0.040 C 
HETATM    8  C5  UNL     1      25.592   0.028  52.631  1.00  0.00     0.068 A 
HETATM    9  N1  UNL     1      26.801  -1.584  53.131  1.00  0.00    -0.272 NA
HETATM   10  C8  UNL     1      27.472   0.770  52.973  1.00  0.00     0.081 A 
HETATM   11  C6  UNL     1      27.021  -0.884  53.087  1.00  0.00     0.074 A 
HETATM   12  C7  UNL     1      27.183  -0.325  53.051  1.00  0.00     0.074 A 
HETATM   13  C9  UNL     1      27.176   1.940  52.160  1.00  0.00     0.016 C 
BRANCH   6  14
HETATM   14  O1  UNL     1      23.546   2.167  51.606  1.00  0.00    -0.349 OA
BRANCH  14  15
HETATM   15  C2  UNL     1      22.753   1.767  50.511  1.00  0.00     0.171 C 
HETATM   16  C1  UNL     1      23.035   2.712  49.339  1.00  0.00     0.034 C 
ENDBRANCH  14  15
ENDBRANCH   6  14
ENDBRANCH   1   5
BRANCH   2  17
HETATM   17  C12 UNL     1      26.408   5.048  49.045  1.00  0.00     0.098 C 
HETATM   18  C13 UNL     1      27.060   6.118  48.513  1.00  0.00     0.034 C 
BRANCH  18  19
HETATM   19  C14 UNL     1      28.278   6.912  48.130  1.00  0.00     0.278 C 
BRANCH  19  20
HETATM   20  N3  UNL     1      27.833   8.303  47.977  1.00  0.00     0.090 N 
HETATM   21  C15 UNL     1      26.490   8.432  47.479  1.00  0.00     0.282 C 
HETATM   22  C16 UNL     1      25.690   9.564  47.986  1.00  0.00     0.104 C 
HETATM   23  S1  UNL     1      26.726  11.012  48.286  1.00  0.00    -0.166 SA
HETATM   24  C17 UNL     1      28.211  10.340  49.123  1.00  0.00     0.104 C 
HETATM   25  C18 UNL     1      27.877   8.903  49.338  1.00  0.00     0.282 C 
ENDBRANCH  19  20
ENDBRANCH  18  19
ENDBRANCH   2  17
TORSDOF 8
ENDMDL
MODEL 7
REMARK VINA RESULT:      -7.1      4.822      7.146
REMARK  8 active torsions:
REMARK  status: ('A' for Active; 'I' for Inactive)
REMARK    1  A    between atoms: C2_2  and  O1_3 
REMARK    2  A    between atoms: O1_3  and  C3_4 
REMARK    3  A    between atoms: C5_6  and  C7_9 
REMARK    4  A    between atoms: C7_9  and  C8_10 
REMARK    5  A    between atoms: C10_12  and  N2_13 
REMARK       I    between atoms: N2_13  and  C11_14 
REMARK    6  A    between atoms: C11_14  and  C12_16 
REMARK    7  A    between atoms: C13_17  and  C14_18 
REMARK    8  A    between atoms: C14_18  and  N3_19 
ROOT
HETATM    1  N2  UNL     1      25.872   3.586  51.381  1.00  0.00    -0.325 N 
HETATM    2  C11 UNL     1      26.369   3.715  49.996  1.00  0.00     0.227 C 
HETATM    3  O2  UNL     1      27.077   2.635  49.875  1.00  0.00    -0.273 OA
HETATM    4  H9  UNL     1      25.349   4.393  51.639  1.00  0.00     0.169 HD
ENDROOT
BRANCH   1   5
HETATM    5  C10 UNL     1      26.352   2.375  51.899  1.00  0.00     0.065 C 
HETATM    6  C3  UNL     1      25.272   1.479  51.910  1.00  0.00     0.093 C 
HETATM    7  C4  UNL     1      25.268   0.285  52.351  1.00  0.00     0.040 C 
HETATM    8  C5  UNL     1      26.499  -0.209  52.742  1.00  0.00     0.068 A 
HETATM    9  N1  UNL     1      28.111  -1.407  53.264  1.00  0.00    -0.272 NA
HETATM   10  C8  UNL     1      28.047   1.045  53.225  1.00  0.00     0.081 A 
HETATM   11  C6  UNL     1      28.112  -0.673  53.257  1.00  0.00     0.074 A 
HETATM   12  C7  UNL     1      28.099  -0.089  53.249  1.00  0.00     0.074 A 
HETATM   13  C9  UNL     1      27.453   2.111  52.433  1.00  0.00     0.016 C 
BRANCH   6  14
HETATM   14  O1  UNL     1      23.957   1.268  51.661  1.00  0.00    -0.349 OA
BRANCH  14  15
HETATM   15  C2  UNL     1      22.890   1.288  52.583  1.00  0.00     0.171 C 
HETATM   16  C1  UNL     1      21.689   0.578  51.950  1.00  0.00     0.034 C 
ENDBRANCH  14  15
ENDBRANCH   6  14
ENDBRANCH   1   5
BRANCH   2  17
HETATM   17  C12 UNL     1      25.876   4.961  49.353  1.00  0.00     0.098 C 
HETATM   18  C13 UNL     1      26.203   6.071  48.636  1.00  0.00     0.034 C 
BRANCH  18  19
HETATM   19  C14 UNL     1      27.146   6.988  47.907  1.00  0.00     0.278 C 
BRANCH  19  20
HETATM   20  N3  UNL     1      28.475   6.761  48.488  1.00  0.00     0.090 N 
HETATM   21  C15 UNL     1      29.069   5.508  48.105  1.00  0.00     0.282 C 
HETATM   22  C16 UNL     1      30.535   5.483  47.932  1.00  0.00     0.104 C 
HETATM   23  S1  UNL     1      31.348   6.593  49.102  1.00  0.00    -0.166 SA
HETATM   24  C17 UNL     1      30.329   8.116  49.064  1.00  0.00     0.104 C 
HETATM   25  C18 UNL     1      29.343   7.855  47.976  1.00  0.00     0.282 C 
ENDBRANCH  19  20
ENDBRANCH  18  19
ENDBRANCH   2  17
TORSDOF 8
ENDMDL
MODEL 8
REMARK VINA RESULT:      -6.9      2.655      5.254
REMARK  8 active torsions:
REMARK  status: ('A' for Active; 'I' for Inactive)
REMARK    1  A    between atoms: C2_2  and  O1_3 
REMARK    2  A    between atoms: O1_3  and  C3_4 
REMARK    3  A    between atoms: C5_6  and  C7_9 
REMARK    4  A    between atoms: C7_9  and  C8_10 
REMARK    5  A    between atoms: C10_12  and  N2_13 
REMARK       I    between atoms: N2_13  and  C11_14 
REMARK    6  A    between atoms: C11_14  and  C12_16 
REMARK    7  A    between atoms: C13_17  and  C14_18 
REMARK    8  A    between atoms: C14_18  and  N3_19 
ROOT
HETATM    1  N2  UNL     1      24.307   1.901  51.235  1.00  0.00    -0.325 N 
HETATM    2  C11 UNL     1      24.438   3.246  51.834  1.00  0.00     0.227 C 
HETATM    3  O2  UNL     1      24.164   3.001  53.078  1.00  0.00    -0.273 OA
HETATM    4  H9  UNL     1      24.435   1.946  50.249  1.00  0.00     0.169 HD
ENDROOT
BRANCH   1   5
HETATM    5  C10 UNL     1      23.991   1.002  52.263  1.00  0.00     0.065 C 
HETATM    6  C3  UNL     1      25.196   0.408  52.671  1.00  0.00     0.093 C 
HETATM    7  C4  UNL     1      25.347  -0.503  53.548  1.00  0.00     0.040 C 
HETATM    8  C5  UNL     1      24.207  -0.842  54.253  1.00  0.00     0.068 A 
HETATM    9  N1  UNL     1      22.841  -1.538  55.654  1.00  0.00    -0.272 NA
HETATM   10  C8  UNL     1      22.336  -0.444  53.517  1.00  0.00     0.081 A 
HETATM   11  C6  UNL     1      22.671  -1.210  55.018  1.00  0.00     0.074 A 
HETATM   12  C7  UNL     1      22.548  -0.952  54.510  1.00  0.00     0.074 A 
HETATM   13  C9  UNL     1      22.875   0.613  52.674  1.00  0.00     0.016 C 
BRANCH   6  14
HETATM   14  O1  UNL     1      26.536   0.300  52.497  1.00  0.00    -0.349 OA
BRANCH  14  15
HETATM   15  C2  UNL     1      27.556   0.742  53.364  1.00  0.00     0.171 C 
HETATM   16  C1  UNL     1      27.820   2.224  53.085  1.00  0.00     0.034 C 
ENDBRANCH  14  15
ENDBRANCH   6  14
ENDBRANCH   1   5
BRANCH   2  17
HETATM   17  C12 UNL     1      24.810   4.263  50.815  1.00  0.00     0.098 C 
HETATM   18  C13 UNL     1      24.361   5.177  49.912  1.00  0.00     0.034 C 
BRANCH  18  19
HETATM   19  C14 UNL     1      23.303   5.948  49.172  1.00  0.00     0.278 C 
BRANCH  19  20
HETATM   20  N3  UNL     1      22.017   5.552  49.756  1.00  0.00     0.090 N 
HETATM   21  C15 UNL     1      20.966   6.514  49.556  1.00  0.00     0.282 C 
HETATM   22  C16 UNL     1      19.601   5.989  49.362  1.00  0.00     0.104 C 
HETATM   23  S1  UNL     1      19.334   4.492  50.336  1.00  0.00    -0.166 SA
HETATM   24  C17 UNL     1      20.861   3.511  50.087  1.00  0.00     0.104 C 
HETATM   25  C18 UNL     1      21.621   4.292  49.069  1.00  0.00     0.282 C 
ENDBRANCH  19  20
ENDBRANCH  18  19
ENDBRANCH   2  17
TORSDOF 8
ENDMDL
MODEL 9
REMARK VINA RESULT:      -6.8      5.687      8.483
REMARK  8 active torsions:
REMARK  status: ('A' for Active; 'I' for Inactive)
REMARK    1  A    between atoms: C2_2  and  O1_3 
REMARK    2  A    between atoms: O1_3  and  C3_4 
REMARK    3  A    between atoms: C5_6  and  C7_9 
REMARK    4  A    between atoms: C7_9  and  C8_10 
REMARK    5  A    between atoms: C10_12  and  N2_13 
REMARK       I    between atoms: N2_13  and  C11_14 
REMARK    6  A    between atoms: C11_14  and  C12_16 
REMARK    7  A    between atoms: C13_17  and  C14_18 
REMARK    8  A    between atoms: C14_18  and  N3_19 
ROOT
HETATM    1  N2  UNL     1      25.902   4.292  50.628  1.00  0.00    -0.325 N 
HETATM    2  C11 UNL     1      26.672   3.803  49.466  1.00  0.00     0.227 C 
HETATM    3  O2  UNL     1      26.521   2.520  49.579  1.00  0.00    -0.273 OA
HETATM    4  H9  UNL     1      25.980   5.282  50.705  1.00  0.00     0.169 HD
ENDROOT
BRANCH   1   5
HETATM    5  C10 UNL     1      25.351   3.179  51.278  1.00  0.00     0.065 C 
HETATM    6  C3  UNL     1      24.049   3.017  50.779  1.00  0.00     0.093 C 
HETATM    7  C4  UNL     1      23.188   2.153  51.141  1.00  0.00     0.040 C 
HETATM    8  C5  UNL     1      23.642   1.200  52.034  1.00  0.00     0.068 A 
HETATM    9  N1  UNL     1      23.914  -0.497  53.199  1.00  0.00    -0.272 NA
HETATM   10  C8  UNL     1      25.300   1.527  53.194  1.00  0.00     0.081 A 
HETATM   11  C6  UNL     1      24.341   0.101  53.210  1.00  0.00     0.074 A 
HETATM   12  C7  UNL     1      24.672   0.581  53.212  1.00  0.00     0.074 A 
HETATM   13  C9  UNL     1      25.790   2.516  52.245  1.00  0.00     0.016 C 
BRANCH   6  14
HETATM   14  O1  UNL     1      23.073   3.474  49.957  1.00  0.00    -0.349 OA
BRANCH  14  15
HETATM   15  C2  UNL     1      22.894   3.190  48.588  1.00  0.00     0.171 C 
HETATM   16  C1  UNL     1      22.648   4.509  47.848  1.00  0.00     0.034 C 
ENDBRANCH  14  15
ENDBRANCH   6  14
ENDBRANCH   1   5
BRANCH   2  17
HETATM   17  C12 UNL     1      27.265   4.926  48.693  1.00  0.00     0.098 C 
HETATM   18  C13 UNL     1      28.406   5.579  48.341  1.00  0.00     0.034 C 
BRANCH  18  19
HETATM   19  C14 UNL     1      29.892   5.813  48.339  1.00  0.00     0.278 C 
BRANCH  19  20
HETATM   20  N3  UNL     1      30.086   7.239  48.050  1.00  0.00     0.090 N 
HETATM   21  C15 UNL     1      29.101   8.094  48.657  1.00  0.00     0.282 C 
HETATM   22  C16 UNL     1      29.553   9.424  49.111  1.00  0.00     0.104 C 
HETATM   23  S1  UNL     1      30.830  10.086  48.021  1.00  0.00    -0.166 SA
HETATM   24  C17 UNL     1      31.947   8.665  47.716  1.00  0.00     0.104 C 
HETATM   25  C18 UNL     1      31.415   7.599  48.613  1.00  0.00     0.282 C 
ENDBRANCH  19  20
ENDBRANCH  18  19
ENDBRANCH   2  17
TORSDOF 8
ENDMDL
