MODEL 1
REMARK VINA RESULT:      -8.8      0.000      0.000
REMARK  6 active torsions:
REMARK  status: ('A' for Active; 'I' for Inactive)
REMARK    1  A    between atoms: C5_6  and  C6_7 
REMARK    2  A    between atoms: C6_7  and  C7_9 
REMARK    3  A    between atoms: C17_21  and  O5_22 
REMARK    4  A    between atoms: O5_22  and  C18_23 
REMARK    5  A    between atoms: C18_23  and  C19_24 
REMARK    6  A    between atoms: C19_24  and  N1_25 
ROOT
HETATM    1  O1  UNL     1      22.651   2.298  48.659  1.00  0.00    -0.265 OA
HETATM    2  C1  UNL     1      23.303   3.077  49.446  1.00  0.00     0.268 C 
HETATM    3  C2  UNL     1      23.608   2.844  50.883  1.00  0.00     0.152 C 
HETATM    4  C3  UNL     1      25.071   2.800  51.121  1.00  0.00    -0.016 A 
HETATM    5  C4  UNL     1      25.443   2.090  52.239  1.00  0.00     0.051 A 
HETATM    6  C5  UNL     1      26.813   2.174  52.222  1.00  0.00     0.127 A 
HETATM    7  O3  UNL     1      27.219   2.869  51.193  1.00  0.00    -0.310 OA
HETATM    8  C13 UNL     1      26.193   3.297  50.453  1.00  0.00     0.065 A 
HETATM    9  C14 UNL     1      26.629   4.073  49.298  1.00  0.00     0.105 C 
HETATM   10  C15 UNL     1      25.800   5.279  49.109  1.00  0.00    -0.006 A 
HETATM   11  C16 UNL     1      24.508   5.289  48.844  1.00  0.00     0.095 A 
HETATM   12  O4  UNL     1      23.674   4.189  48.692  1.00  0.00    -0.280 OA
HETATM   13  C17 UNL     1      25.253   6.585  48.974  1.00  0.00     0.211 A 
ENDROOT
BRANCH   6  14
HETATM   14  C6  UNL     1      27.622   1.526  53.274  1.00  0.00     0.215 C 
HETATM   15  O2  UNL     1      27.988   2.189  54.277  1.00  0.00    -0.284 OA
BRANCH  14  16
HETATM   16  C7  UNL     1      28.025   0.102  53.191  1.00  0.00     0.017 A 
HETATM   17  C8  UNL     1      27.184  -0.881  52.720  1.00  0.00     0.015 A 
HETATM   18  C9  UNL     1      27.544  -2.233  52.649  1.00  0.00     0.001 A 
HETATM   19  C10 UNL     1      28.815  -2.535  53.086  1.00  0.00     0.000 A 
HETATM   20  C11 UNL     1      29.685  -1.579  53.564  1.00  0.00     0.001 A 
HETATM   21  C12 UNL     1      29.281  -0.242  53.616  1.00  0.00     0.015 A 
ENDBRANCH  14  16
ENDBRANCH   6  14
BRANCH  13  22
HETATM   22  O5  UNL     1      25.345   7.338  47.771  1.00  0.00    -0.373 OA
BRANCH  22  23
HETATM   23  C18 UNL     1      25.969   8.512  48.145  1.00  0.00     0.199 C 
BRANCH  23  24
HETATM   24  C19 UNL     1      26.997   9.005  47.178  1.00  0.00     0.298 C 
BRANCH  24  25
HETATM   25  N1  UNL     1      28.303   9.264  47.802  1.00  0.00     0.090 N 
HETATM   26  C20 UNL     1      28.673   8.093  48.623  1.00  0.00     0.272 C 
HETATM   27  C21 UNL     1      29.037   7.016  47.659  1.00  0.00     0.032 C 
HETATM   28  C22 UNL     1      29.439   7.744  46.403  1.00  0.00     0.032 C 
HETATM   29  C23 UNL     1      29.317   9.213  46.745  1.00  0.00     0.272 C 
ENDBRANCH  24  25
ENDBRANCH  23  24
ENDBRANCH  22  23
ENDBRANCH  13  22
TORSDOF 6
ENDMDL
MODEL 2
REMARK VINA RESULT:      -8.7      1.175      1.833
REMARK  6 active torsions:
REMARK  status: ('A' for Active; 'I' for Inactive)
REMARK    1  A    between atoms: C5_6  and  C6_7 
REMARK    2  A    between atoms: C6_7  and  C7_9 
REMARK    3  A    between atoms: C17_21  and  O5_22 
REMARK    4  A    between atoms: O5_22  and  C18_23 
REMARK    5  A    between atoms: C18_23  and  C19_24 
REMARK    6  A    between atoms: C19_24  and  N1_25 
ROOT
HETATM    1  O1  UNL     1      22.544   3.084  48.714  1.00  0.00    -0.265 OA
HETATM    2  C1  UNL     1      23.350   3.681  49.516  1.00  0.00     0.268 C 
HETATM    3  C2  UNL     1      23.504   3.436  50.975  1.00  0.00     0.152 C 
HETATM    4  C3  UNL     1      24.880   2.991  51.302  1.00  0.00    -0.016 A 
HETATM    5  C4  UNL     1      24.978   2.256  52.461  1.00  0.00     0.051 A 
HETATM    6  C5  UNL     1      26.315   1.949  52.525  1.00  0.00     0.127 A 
HETATM    7  O3  UNL     1      26.953   2.454  51.503  1.00  0.00    -0.310 OA
HETATM    8  C13 UNL     1      26.129   3.121  50.690  1.00  0.00     0.065 A 
HETATM    9  C14 UNL     1      26.825   3.690  49.541  1.00  0.00     0.105 C 
HETATM   10  C15 UNL     1      26.384   5.072  49.268  1.00  0.00    -0.006 A 
HETATM   11  C16 UNL     1      25.163   5.434  48.925  1.00  0.00     0.095 A 
HETATM   12  O4  UNL     1      24.059   4.608  48.754  1.00  0.00    -0.280 OA
HETATM   13  C17 UNL     1      26.238   6.472  49.063  1.00  0.00     0.211 A 
ENDROOT
BRANCH   6  14
HETATM   14  C6  UNL     1      26.853   1.147  53.641  1.00  0.00     0.215 C 
HETATM   15  O2  UNL     1      26.683   1.533  54.825  1.00  0.00    -0.284 OA
BRANCH  14  16
HETATM   16  C7  UNL     1      27.596  -0.117  53.416  1.00  0.00     0.017 A 
HETATM   17  C8  UNL     1      28.947  -0.234  53.648  1.00  0.00     0.015 A 
HETATM   18  C9  UNL     1      29.667  -1.416  53.427  1.00  0.00     0.001 A 
HETATM   19  C10 UNL     1      28.932  -2.480  52.952  1.00  0.00     0.000 A 
HETATM   20  C11 UNL     1      27.578  -2.401  52.708  1.00  0.00     0.001 A 
HETATM   21  C12 UNL     1      26.903  -1.200  52.944  1.00  0.00     0.015 A 
ENDBRANCH  14  16
ENDBRANCH   6  14
BRANCH  13  22
HETATM   22  O5  UNL     1      26.600   7.114  47.846  1.00  0.00    -0.373 OA
BRANCH  22  23
HETATM   23  C18 UNL     1      27.980   7.043  47.817  1.00  0.00     0.199 C 
BRANCH  23  24
HETATM   24  C19 UNL     1      28.671   8.366  47.891  1.00  0.00     0.298 C 
BRANCH  24  25
HETATM   25  N1  UNL     1      28.978   8.783  49.267  1.00  0.00     0.090 N 
HETATM   26  C20 UNL     1      30.168   9.658  49.240  1.00  0.00     0.272 C 
HETATM   27  C21 UNL     1      29.711  10.952  48.657  1.00  0.00     0.032 C 
HETATM   28  C22 UNL     1      28.230  10.991  48.925  1.00  0.00     0.032 C 
HETATM   29  C23 UNL     1      27.935   9.720  49.691  1.00  0.00     0.272 C 
ENDBRANCH  24  25
ENDBRANCH  23  24
ENDBRANCH  22  23
ENDBRANCH  13  22
TORSDOF 6
ENDMDL
MODEL 3
REMARK VINA RESULT:      -8.5      3.448      6.289
REMARK  6 active torsions:
REMARK  status: ('A' for Active; 'I' for Inactive)
REMARK    1  A    between atoms: C5_6  and  C6_7 
REMARK    2  A    between atoms: C6_7  and  C7_9 
REMARK    3  A    between atoms: C17_21  and  O5_22 
REMARK    4  A    between atoms: O5_22  and  C18_23 
REMARK    5  A    between atoms: C18_23  and  C19_24 
REMARK    6  A    between atoms: C19_24  and  N1_25 
ROOT
HETATM    1  O1  UNL     1      26.454   5.693  49.039  1.00  0.00    -0.265 OA
HETATM    2  C1  UNL     1      25.851   4.584  49.282  1.00  0.00     0.268 C 
HETATM    3  C2  UNL     1      26.474   3.299  49.696  1.00  0.00     0.152 C 
HETATM    4  C3  UNL     1      25.973   2.864  51.022  1.00  0.00    -0.016 A 
HETATM    5  C4  UNL     1      26.829   2.033  51.707  1.00  0.00     0.051 A 
HETATM    6  C5  UNL     1      26.164   1.800  52.886  1.00  0.00     0.127 A 
HETATM    7  O3  UNL     1      25.020   2.430  52.900  1.00  0.00    -0.310 OA
HETATM    8  C13 UNL     1      24.823   3.119  51.774  1.00  0.00     0.065 A 
HETATM    9  C14 UNL     1      23.550   3.832  51.775  1.00  0.00     0.105 C 
HETATM   10  C15 UNL     1      22.853   3.702  50.480  1.00  0.00    -0.006 A 
HETATM   11  C16 UNL     1      23.298   4.148  49.321  1.00  0.00     0.095 A 
HETATM   12  O4  UNL     1      24.491   4.817  49.081  1.00  0.00    -0.280 OA
HETATM   13  C17 UNL     1      21.975   3.442  49.391  1.00  0.00     0.211 A 
ENDROOT
BRANCH   6  14
HETATM   14  C6  UNL     1      26.755   0.938  53.929  1.00  0.00     0.215 C 
HETATM   15  O2  UNL     1      26.600   1.231  55.141  1.00  0.00    -0.284 OA
BRANCH  14  16
HETATM   16  C7  UNL     1      27.534  -0.278  53.596  1.00  0.00     0.017 A 
HETATM   17  C8  UNL     1      28.890  -0.373  53.812  1.00  0.00     0.015 A 
HETATM   18  C9  UNL     1      29.644  -1.509  53.490  1.00  0.00     0.001 A 
HETATM   19  C10 UNL     1      28.938  -2.552  52.931  1.00  0.00     0.000 A 
HETATM   20  C11 UNL     1      27.581  -2.495  52.700  1.00  0.00     0.001 A 
HETATM   21  C12 UNL     1      26.872  -1.340  53.038  1.00  0.00     0.015 A 
ENDBRANCH  14  16
ENDBRANCH   6  14
BRANCH  13  22
HETATM   22  O5  UNL     1      20.851   4.262  49.096  1.00  0.00    -0.373 OA
BRANCH  22  23
HETATM   23  C18 UNL     1      20.046   4.159  50.215  1.00  0.00     0.199 C 
BRANCH  23  24
HETATM   24  C19 UNL     1      19.145   2.966  50.223  1.00  0.00     0.298 C 
BRANCH  24  25
HETATM   25  N1  UNL     1      18.751   2.548  51.577  1.00  0.00     0.090 N 
HETATM   26  C20 UNL     1      17.989   1.286  51.477  1.00  0.00     0.272 C 
HETATM   27  C21 UNL     1      18.987   0.231  51.142  1.00  0.00     0.032 C 
HETATM   28  C22 UNL     1      20.301   0.773  51.640  1.00  0.00     0.032 C 
HETATM   29  C23 UNL     1      19.961   2.105  52.274  1.00  0.00     0.272 C 
ENDBRANCH  24  25
ENDBRANCH  23  24
ENDBRANCH  22  23
ENDBRANCH  13  22
TORSDOF 6
ENDMDL
MODEL 4
REMARK VINA RESULT:      -8.4      2.815      4.454
REMARK  6 active torsions:
REMARK  status: ('A' for Active; 'I' for Inactive)
REMARK    1  A    between atoms: C5_6  and  C6_7 
REMARK    2  A    between atoms: C6_7  and  C7_9 
REMARK    3  A    between atoms: C17_21  and  O5_22 
REMARK    4  A    between atoms: O5_22  and  C18_23 
REMARK    5  A    between atoms: C18_23  and  C19_24 
REMARK    6  A    between atoms: C19_24  and  N1_25 
ROOT
HETATM    1  O1  UNL     1      25.226   7.679  46.760  1.00  0.00    -0.265 OA
HETATM    2  C1  UNL     1      25.936   7.397  47.793  1.00  0.00     0.268 C 
HETATM    3  C2  UNL     1      25.451   6.844  49.087  1.00  0.00     0.152 C 
HETATM    4  C3  UNL     1      26.070   5.527  49.372  1.00  0.00    -0.016 A 
HETATM    5  C4  UNL     1      25.333   4.724  50.211  1.00  0.00     0.051 A 
HETATM    6  C5  UNL     1      26.088   3.580  50.294  1.00  0.00     0.127 A 
HETATM    7  O3  UNL     1      27.174   3.693  49.576  1.00  0.00    -0.310 OA
HETATM    8  C13 UNL     1      27.239   4.879  48.966  1.00  0.00     0.065 A 
HETATM    9  C14 UNL     1      28.445   5.020  48.157  1.00  0.00     0.105 C 
HETATM   10  C15 UNL     1      29.067   6.347  48.335  1.00  0.00    -0.006 A 
HETATM   11  C16 UNL     1      28.513   7.502  48.021  1.00  0.00     0.095 A 
HETATM   12  O4  UNL     1      27.255   7.708  47.470  1.00  0.00    -0.280 OA
HETATM   13  C17 UNL     1      29.893   7.472  48.611  1.00  0.00     0.211 A 
ENDROOT
BRANCH   6  14
HETATM   14  C6  UNL     1      25.640   2.437  51.113  1.00  0.00     0.215 C 
HETATM   15  O2  UNL     1      24.425   2.115  51.123  1.00  0.00    -0.284 OA
BRANCH  14  16
HETATM   16  C7  UNL     1      26.582   1.640  51.935  1.00  0.00     0.017 A 
HETATM   17  C8  UNL     1      27.584   2.215  52.682  1.00  0.00     0.015 A 
HETATM   18  C9  UNL     1      28.492   1.477  53.452  1.00  0.00     0.001 A 
HETATM   19  C10 UNL     1      28.324   0.109  53.421  1.00  0.00     0.000 A 
HETATM   20  C11 UNL     1      27.333  -0.503  52.686  1.00  0.00     0.001 A 
HETATM   21  C12 UNL     1      26.451   0.276  51.933  1.00  0.00     0.015 A 
ENDBRANCH  14  16
ENDBRANCH   6  14
BRANCH  13  22
HETATM   22  O5  UNL     1      30.923   7.905  47.731  1.00  0.00    -0.373 OA
BRANCH  22  23
HETATM   23  C18 UNL     1      32.094   7.642  48.416  1.00  0.00     0.199 C 
BRANCH  23  24
HETATM   24  C19 UNL     1      33.122   6.899  47.624  1.00  0.00     0.298 C 
BRANCH  24  25
HETATM   25  N1  UNL     1      33.506   5.617  48.233  1.00  0.00     0.090 N 
HETATM   26  C20 UNL     1      32.355   4.694  48.153  1.00  0.00     0.272 C 
HETATM   27  C21 UNL     1      32.248   4.297  46.720  1.00  0.00     0.032 C 
HETATM   28  C22 UNL     1      33.631   4.501  46.161  1.00  0.00     0.032 C 
HETATM   29  C23 UNL     1      34.465   4.969  47.334  1.00  0.00     0.272 C 
ENDBRANCH  24  25
ENDBRANCH  23  24
ENDBRANCH  22  23
ENDBRANCH  13  22
TORSDOF 6
ENDMDL
MODEL 5
REMARK VINA RESULT:      -8.3      3.579      5.931
REMARK  6 active torsions:
REMARK  status: ('A' for Active; 'I' for Inactive)
REMARK    1  A    between atoms: C5_6  and  C6_7 
REMARK    2  A    between atoms: C6_7  and  C7_9 
REMARK    3  A    between atoms: C17_21  and  O5_22 
REMARK    4  A    between atoms: O5_22  and  C18_23 
REMARK    5  A    between atoms: C18_23  and  C19_24 
REMARK    6  A    between atoms: C19_24  and  N1_25 
ROOT
HETATM    1  O1  UNL     1      28.271   0.604  53.774  1.00  0.00    -0.265 OA
HETATM    2  C1  UNL     1      27.314   0.599  52.917  1.00  0.00     0.268 C 
HETATM    3  C2  UNL     1      26.250  -0.430  52.770  1.00  0.00     0.152 C 
HETATM    4  C3  UNL     1      24.904   0.157  52.978  1.00  0.00    -0.016 A 
HETATM    5  C4  UNL     1      23.948  -0.744  53.385  1.00  0.00     0.051 A 
HETATM    6  C5  UNL     1      22.826   0.033  53.530  1.00  0.00     0.127 A 
HETATM    7  O3  UNL     1      23.087   1.279  53.236  1.00  0.00    -0.310 OA
HETATM    8  C13 UNL     1      24.364   1.442  52.881  1.00  0.00     0.065 A 
HETATM    9  C14 UNL     1      24.674   2.829  52.551  1.00  0.00     0.105 C 
HETATM   10  C15 UNL     1      25.503   2.926  51.334  1.00  0.00    -0.006 A 
HETATM   11  C16 UNL     1      26.722   2.440  51.194  1.00  0.00     0.095 A 
HETATM   12  O4  UNL     1      27.464   1.749  52.143  1.00  0.00    -0.280 OA
HETATM   13  C17 UNL     1      26.072   3.165  50.052  1.00  0.00     0.211 A 
ENDROOT
BRANCH   6  14
HETATM   14  C6  UNL     1      21.547  -0.561  53.968  1.00  0.00     0.215 C 
HETATM   15  O2  UNL     1      21.486  -1.171  55.065  1.00  0.00    -0.284 OA
BRANCH  14  16
HETATM   16  C7  UNL     1      20.314  -0.463  53.151  1.00  0.00     0.017 A 
HETATM   17  C8  UNL     1      20.252   0.264  51.985  1.00  0.00     0.015 A 
HETATM   18  C9  UNL     1      19.091   0.378  51.208  1.00  0.00     0.001 A 
HETATM   19  C10 UNL     1      17.987  -0.292  51.688  1.00  0.00     0.000 A 
HETATM   20  C11 UNL     1      18.009  -1.029  52.851  1.00  0.00     0.001 A 
HETATM   21  C12 UNL     1      19.191  -1.115  53.591  1.00  0.00     0.015 A 
ENDBRANCH  14  16
ENDBRANCH   6  14
BRANCH  13  22
HETATM   22  O5  UNL     1      26.693   4.396  49.703  1.00  0.00    -0.373 OA
BRANCH  22  23
HETATM   23  C18 UNL     1      25.664   5.318  49.719  1.00  0.00     0.199 C 
BRANCH  23  24
HETATM   24  C19 UNL     1      25.596   6.193  48.508  1.00  0.00     0.298 C 
BRANCH  24  25
HETATM   25  N1  UNL     1      25.412   7.616  48.831  1.00  0.00     0.090 N 
HETATM   26  C20 UNL     1      26.580   8.077  49.610  1.00  0.00     0.272 C 
HETATM   27  C21 UNL     1      27.710   8.158  48.641  1.00  0.00     0.032 C 
HETATM   28  C22 UNL     1      27.053   8.329  47.297  1.00  0.00     0.032 C 
HETATM   29  C23 UNL     1      25.568   8.376  47.589  1.00  0.00     0.272 C 
ENDBRANCH  24  25
ENDBRANCH  23  24
ENDBRANCH  22  23
ENDBRANCH  13  22
TORSDOF 6
ENDMDL
MODEL 6
REMARK VINA RESULT:      -8.2      1.737      2.147
REMARK  6 active torsions:
REMARK  status: ('A' for Active; 'I' for Inactive)
REMARK    1  A    between atoms: C5_6  and  C6_7 
REMARK    2  A    between atoms: C6_7  and  C7_9 
REMARK    3  A    between atoms: C17_21  and  O5_22 
REMARK    4  A    between atoms: O5_22  and  C18_23 
REMARK    5  A    between atoms: C18_23  and  C19_24 
REMARK    6  A    between atoms: C19_24  and  N1_25 
ROOT
HETATM    1  O1  UNL     1      21.608   5.253  51.246  1.00  0.00    -0.265 OA
HETATM    2  C1  UNL     1      22.869   5.134  51.459  1.00  0.00     0.268 C 
HETATM    3  C2  UNL     1      23.522   4.428  52.594  1.00  0.00     0.152 C 
HETATM    4  C3  UNL     1      24.375   3.315  52.113  1.00  0.00    -0.016 A 
HETATM    5  C4  UNL     1      24.577   2.315  53.036  1.00  0.00     0.051 A 
HETATM    6  C5  UNL     1      25.356   1.412  52.356  1.00  0.00     0.127 A 
HETATM    7  O3  UNL     1      25.597   1.834  51.143  1.00  0.00    -0.310 OA
HETATM    8  C13 UNL     1      25.020   3.016  50.910  1.00  0.00     0.065 A 
HETATM    9  C14 UNL     1      25.277   3.501  49.559  1.00  0.00     0.105 C 
HETATM   10  C15 UNL     1      25.612   4.938  49.551  1.00  0.00    -0.006 A 
HETATM   11  C16 UNL     1      24.812   5.915  49.935  1.00  0.00     0.095 A 
HETATM   12  O4  UNL     1      23.515   5.797  50.416  1.00  0.00    -0.280 OA
HETATM   13  C17 UNL     1      26.193   6.232  49.437  1.00  0.00     0.211 A 
ENDROOT
BRANCH   6  14
HETATM   14  C6  UNL     1      25.804   0.163  53.003  1.00  0.00     0.215 C 
HETATM   15  O2  UNL     1      24.954  -0.669  53.408  1.00  0.00    -0.284 OA
BRANCH  14  16
HETATM   16  C7  UNL     1      27.240  -0.153  53.194  1.00  0.00     0.017 A 
HETATM   17  C8  UNL     1      27.754  -1.414  53.000  1.00  0.00     0.015 A 
HETATM   18  C9  UNL     1      29.106  -1.732  53.190  1.00  0.00     0.001 A 
HETATM   19  C10 UNL     1      29.912  -0.690  53.592  1.00  0.00     0.000 A 
HETATM   20  C11 UNL     1      29.433   0.586  53.797  1.00  0.00     0.001 A 
HETATM   21  C12 UNL     1      28.077   0.855  53.594  1.00  0.00     0.015 A 
ENDBRANCH  14  16
ENDBRANCH   6  14
BRANCH  13  22
HETATM   22  O5  UNL     1      26.229   6.954  48.212  1.00  0.00    -0.373 OA
BRANCH  22  23
HETATM   23  C18 UNL     1      27.574   7.061  47.914  1.00  0.00     0.199 C 
BRANCH  23  24
HETATM   24  C19 UNL     1      28.187   8.376  48.275  1.00  0.00     0.298 C 
BRANCH  24  25
HETATM   25  N1  UNL     1      29.459   8.242  49.000  1.00  0.00     0.090 N 
HETATM   26  C20 UNL     1      30.507   7.835  48.042  1.00  0.00     0.272 C 
HETATM   27  C21 UNL     1      30.790   9.038  47.209  1.00  0.00     0.032 C 
HETATM   28  C22 UNL     1      30.370  10.204  48.065  1.00  0.00     0.032 C 
HETATM   29  C23 UNL     1      29.904   9.589  49.367  1.00  0.00     0.272 C 
ENDBRANCH  24  25
ENDBRANCH  23  24
ENDBRANCH  22  23
ENDBRANCH  13  22
TORSDOF 6
ENDMDL
MODEL 7
REMARK VINA RESULT:      -8.0      5.940      8.934
REMARK  6 active torsions:
REMARK  status: ('A' for Active; 'I' for Inactive)
REMARK    1  A    between atoms: C5_6  and  C6_7 
REMARK    2  A    between atoms: C6_7  and  C7_9 
REMARK    3  A    between atoms: C17_21  and  O5_22 
REMARK    4  A    between atoms: O5_22  and  C18_23 
REMARK    5  A    between atoms: C18_23  and  C19_24 
REMARK    6  A    between atoms: C19_24  and  N1_25 
ROOT
HETATM    1  O1  UNL     1      20.898  -2.071  54.462  1.00  0.00    -0.265 OA
HETATM    2  C1  UNL     1      21.094  -0.842  54.142  1.00  0.00     0.268 C 
HETATM    3  C2  UNL     1      22.286  -0.014  54.465  1.00  0.00     0.152 C 
HETATM    4  C3  UNL     1      22.962   0.458  53.232  1.00  0.00    -0.016 A 
HETATM    5  C4  UNL     1      24.296   0.750  53.392  1.00  0.00     0.051 A 
HETATM    6  C5  UNL     1      24.688   1.129  52.132  1.00  0.00     0.127 A 
HETATM    7  O3  UNL     1      23.682   1.069  51.300  1.00  0.00    -0.310 OA
HETATM    8  C13 UNL     1      22.566   0.659  51.907  1.00  0.00     0.065 A 
HETATM    9  C14 UNL     1      21.433   0.584  50.992  1.00  0.00     0.105 C 
HETATM   10  C15 UNL     1      20.207   1.141  51.597  1.00  0.00    -0.006 A 
HETATM   11  C16 UNL     1      19.595   0.668  52.666  1.00  0.00     0.095 A 
HETATM   12  O4  UNL     1      19.969  -0.430  53.430  1.00  0.00    -0.280 OA
HETATM   13  C17 UNL     1      19.043   1.873  51.961  1.00  0.00     0.211 A 
ENDROOT
BRANCH   6  14
HETATM   14  C6  UNL     1      26.084   1.528  51.863  1.00  0.00     0.215 C 
HETATM   15  O2  UNL     1      26.328   2.381  50.973  1.00  0.00    -0.284 OA
BRANCH  14  16
HETATM   16  C7  UNL     1      27.225   0.954  52.615  1.00  0.00     0.017 A 
HETATM   17  C8  UNL     1      27.507  -0.392  52.621  1.00  0.00     0.015 A 
HETATM   18  C9  UNL     1      28.573  -0.953  53.338  1.00  0.00     0.001 A 
HETATM   19  C10 UNL     1      29.342  -0.062  54.055  1.00  0.00     0.000 A 
HETATM   20  C11 UNL     1      29.091   1.292  54.073  1.00  0.00     0.001 A 
HETATM   21  C12 UNL     1      28.016   1.805  53.342  1.00  0.00     0.015 A 
ENDBRANCH  14  16
ENDBRANCH   6  14
BRANCH  13  22
HETATM   22  O5  UNL     1      17.779   1.668  51.341  1.00  0.00    -0.373 OA
BRANCH  22  23
HETATM   23  C18 UNL     1      17.256   2.939  51.197  1.00  0.00     0.199 C 
BRANCH  23  24
HETATM   24  C19 UNL     1      15.773   3.021  51.360  1.00  0.00     0.298 C 
BRANCH  24  25
HETATM   25  N1  UNL     1      15.330   2.813  52.747  1.00  0.00     0.090 N 
HETATM   26  C20 UNL     1      14.437   3.927  53.129  1.00  0.00     0.272 C 
HETATM   27  C21 UNL     1      13.160   3.697  52.395  1.00  0.00     0.032 C 
HETATM   28  C22 UNL     1      13.139   2.217  52.116  1.00  0.00     0.032 C 
HETATM   29  C23 UNL     1      14.402   1.679  52.751  1.00  0.00     0.272 C 
ENDBRANCH  24  25
ENDBRANCH  23  24
ENDBRANCH  22  23
ENDBRANCH  13  22
TORSDOF 6
ENDMDL
MODEL 8
REMARK VINA RESULT:      -8.0      4.344      7.570
REMARK  6 active torsions:
REMARK  status: ('A' for Active; 'I' for Inactive)
REMARK    1  A    between atoms: C5_6  and  C6_7 
REMARK    2  A    between atoms: C6_7  and  C7_9 
REMARK    3  A    between atoms: C17_21  and  O5_22 
REMARK    4  A    between atoms: O5_22  and  C18_23 
REMARK    5  A    between atoms: C18_23  and  C19_24 
REMARK    6  A    between atoms: C19_24  and  N1_25 
ROOT
HETATM    1  O1  UNL     1      23.954   5.411  49.041  1.00  0.00    -0.265 OA
HETATM    2  C1  UNL     1      24.091   4.160  49.300  1.00  0.00     0.268 C 
HETATM    3  C2  UNL     1      25.366   3.425  49.513  1.00  0.00     0.152 C 
HETATM    4  C3  UNL     1      25.420   2.826  50.869  1.00  0.00    -0.016 A 
HETATM    5  C4  UNL     1      26.692   2.608  51.343  1.00  0.00     0.051 A 
HETATM    6  C5  UNL     1      26.476   2.087  52.594  1.00  0.00     0.127 A 
HETATM    7  O3  UNL     1      25.196   2.001  52.842  1.00  0.00    -0.310 OA
HETATM    8  C13 UNL     1      24.466   2.443  51.815  1.00  0.00     0.065 A 
HETATM    9  C14 UNL     1      23.034   2.357  52.076  1.00  0.00     0.105 C 
HETATM   10  C15 UNL     1      22.298   1.836  50.908  1.00  0.00    -0.006 A 
HETATM   11  C16 UNL     1      22.222   2.418  49.726  1.00  0.00     0.095 A 
HETATM   12  O4  UNL     1      22.807   3.617  49.342  1.00  0.00    -0.280 OA
HETATM   13  C17 UNL     1      21.519   1.113  49.962  1.00  0.00     0.211 A 
ENDROOT
BRANCH   6  14
HETATM   14  C6  UNL     1      27.610   1.710  53.462  1.00  0.00     0.215 C 
HETATM   15  O2  UNL     1      28.074   2.544  54.279  1.00  0.00    -0.284 OA
BRANCH  14  16
HETATM   16  C7  UNL     1      28.230   0.364  53.405  1.00  0.00     0.017 A 
HETATM   17  C8  UNL     1      27.560  -0.742  52.937  1.00  0.00     0.015 A 
HETATM   18  C9  UNL     1      28.126  -2.023  52.890  1.00  0.00     0.001 A 
HETATM   19  C10 UNL     1      29.420  -2.119  53.351  1.00  0.00     0.000 A 
HETATM   20  C11 UNL     1      30.124  -1.034  53.827  1.00  0.00     0.001 A 
HETATM   21  C12 UNL     1      29.517   0.224  53.854  1.00  0.00     0.015 A 
ENDBRANCH  14  16
ENDBRANCH   6  14
BRANCH  13  22
HETATM   22  O5  UNL     1      20.100   1.188  49.915  1.00  0.00    -0.373 OA
BRANCH  22  23
HETATM   23  C18 UNL     1      19.675   0.323  50.905  1.00  0.00     0.199 C 
BRANCH  23  24
HETATM   24  C19 UNL     1      18.196   0.299  51.116  1.00  0.00     0.298 C 
BRANCH  24  25
HETATM   25  N1  UNL     1      17.432   0.583  49.892  1.00  0.00     0.090 N 
HETATM   26  C20 UNL     1      16.427  -0.484  49.705  1.00  0.00     0.272 C 
HETATM   27  C21 UNL     1      15.383  -0.247  50.742  1.00  0.00     0.032 C 
HETATM   28  C22 UNL     1      15.493   1.219  51.070  1.00  0.00     0.032 C 
HETATM   29  C23 UNL     1      16.580   1.745  50.159  1.00  0.00     0.272 C 
ENDBRANCH  24  25
ENDBRANCH  23  24
ENDBRANCH  22  23
ENDBRANCH  13  22
TORSDOF 6
ENDMDL
MODEL 9
REMARK VINA RESULT:      -8.0      3.968      6.561
REMARK  6 active torsions:
REMARK  status: ('A' for Active; 'I' for Inactive)
REMARK    1  A    between atoms: C5_6  and  C6_7 
REMARK    2  A    between atoms: C6_7  and  C7_9 
REMARK    3  A    between atoms: C17_21  and  O5_22 
REMARK    4  A    between atoms: O5_22  and  C18_23 
REMARK    5  A    between atoms: C18_23  and  C19_24 
REMARK    6  A    between atoms: C19_24  and  N1_25 
ROOT
HETATM    1  O1  UNL     1      28.280   1.798  52.812  1.00  0.00    -0.265 OA
HETATM    2  C1  UNL     1      27.212   1.607  52.123  1.00  0.00     0.268 C 
HETATM    3  C2  UNL     1      26.332   0.408  52.150  1.00  0.00     0.152 C 
HETATM    4  C3  UNL     1      24.957   0.762  52.578  1.00  0.00    -0.016 A 
HETATM    5  C4  UNL     1      24.251  -0.280  53.134  1.00  0.00     0.051 A 
HETATM    6  C5  UNL     1      23.049   0.297  53.464  1.00  0.00     0.127 A 
HETATM    7  O3  UNL     1      23.040   1.561  53.135  1.00  0.00    -0.310 OA
HETATM    8  C13 UNL     1      24.195   1.932  52.575  1.00  0.00     0.065 A 
HETATM    9  C14 UNL     1      24.202   3.343  52.203  1.00  0.00     0.105 C 
HETATM   10  C15 UNL     1      24.793   3.549  50.867  1.00  0.00    -0.006 A 
HETATM   11  C16 UNL     1      26.038   3.276  50.527  1.00  0.00     0.095 A 
HETATM   12  O4  UNL     1      27.032   2.746  51.339  1.00  0.00    -0.280 OA
HETATM   13  C17 UNL     1      25.096   3.850  49.510  1.00  0.00     0.211 A 
ENDROOT
BRANCH   6  14
HETATM   14  C6  UNL     1      21.981  -0.496  54.104  1.00  0.00     0.215 C 
HETATM   15  O2  UNL     1      22.213  -1.098  55.183  1.00  0.00    -0.284 OA
BRANCH  14  16
HETATM   16  C7  UNL     1      20.625  -0.609  53.515  1.00  0.00     0.017 A 
HETATM   17  C8  UNL     1      20.165   0.248  52.543  1.00  0.00     0.015 A 
HETATM   18  C9  UNL     1      18.882   0.164  51.986  1.00  0.00     0.001 A 
HETATM   19  C10 UNL     1      18.086  -0.848  52.477  1.00  0.00     0.000 A 
HETATM   20  C11 UNL     1      18.511  -1.726  53.450  1.00  0.00     0.001 A 
HETATM   21  C12 UNL     1      19.800  -1.602  53.975  1.00  0.00     0.015 A 
ENDBRANCH  14  16
ENDBRANCH   6  14
BRANCH  13  22
HETATM   22  O5  UNL     1      25.429   5.160  49.067  1.00  0.00    -0.373 OA
BRANCH  22  23
HETATM   23  C18 UNL     1      24.221   5.828  49.025  1.00  0.00     0.199 C 
BRANCH  23  24
HETATM   24  C19 UNL     1      23.220   5.240  48.083  1.00  0.00     0.298 C 
BRANCH  24  25
HETATM   25  N1  UNL     1      21.933   4.931  48.725  1.00  0.00     0.090 N 
HETATM   26  C20 UNL     1      20.850   5.551  47.932  1.00  0.00     0.272 C 
HETATM   27  C21 UNL     1      20.739   4.738  46.687  1.00  0.00     0.032 C 
HETATM   28  C22 UNL     1      21.301   3.391  47.057  1.00  0.00     0.032 C 
HETATM   29  C23 UNL     1      21.666   3.505  48.521  1.00  0.00     0.272 C 
ENDBRANCH  24  25
ENDBRANCH  23  24
ENDBRANCH  22  23
ENDBRANCH  13  22
TORSDOF 6
ENDMDL
