MODEL 1
REMARK VINA RESULT:      -9.3      0.000      0.000
REMARK  4 active torsions:
REMARK  status: ('A' for Active; 'I' for Inactive)
REMARK    1  A    between atoms: C2_2  and  C3_3 
REMARK    2  A    between atoms: C11_12  and  C12_13 
REMARK    3  A    between atoms: C12_13  and  O2_14 
REMARK    4  A    between atoms: O2_14  and  C13_15 
ROOT
HETATM    1  C3  UNL     1      19.346  -1.395  53.827  1.00  0.00     0.007 C 
HETATM    2  C4  UNL     1      20.563  -0.917  53.557  1.00  0.00    -0.005 A 
HETATM    3  C5  UNL     1      21.563  -1.499  54.457  1.00  0.00     0.047 A 
HETATM    4  C6  UNL     1      22.905  -0.902  54.266  1.00  0.00     0.047 A 
HETATM    5  C7  UNL     1      22.981   0.043  53.175  1.00  0.00    -0.006 A 
HETATM    6  C8  UNL     1      21.997   0.535  52.308  1.00  0.00     0.134 A 
HETATM    7  O1  UNL     1      22.464   1.407  51.435  1.00  0.00    -0.304 OA
HETATM    8  C9  UNL     1      23.770   1.557  51.654  1.00  0.00     0.099 A 
HETATM    9  C10 UNL     1      24.095   0.734  52.707  1.00  0.00     0.016 A 
HETATM   10  C11 UNL     1      25.455   0.804  53.035  1.00  0.00    -0.019 A 
HETATM   11  C14 UNL     1      26.317   1.647  52.317  1.00  0.00     0.022 A 
HETATM   12  C15 UNL     1      25.882   2.432  51.274  1.00  0.00    -0.022 A 
HETATM   13  C16 UNL     1      26.793   3.231  50.622  1.00  0.00     0.012 A 
HETATM   14  C17 UNL     1      26.312   3.997  49.589  1.00  0.00     0.001 A 
HETATM   15  C18 UNL     1      24.999   3.988  49.205  1.00  0.00     0.001 A 
HETATM   16  C19 UNL     1      24.101   3.181  49.871  1.00  0.00     0.015 A 
HETATM   17  C20 UNL     1      24.555   2.401  50.911  1.00  0.00     0.009 A 
HETATM   18  C21 UNL     1      20.638   0.042  52.469  1.00  0.00     0.212 A 
HETATM   19  O4  UNL     1      19.660   0.371  51.792  1.00  0.00    -0.285 OA
ENDROOT
BRANCH  10  20
HETATM   20  C12 UNL     1      26.022  -0.013  54.135  1.00  0.00     0.217 C 
BRANCH  20  21
HETATM   21  O2  UNL     1      27.015   0.688  54.863  1.00  0.00    -0.324 OA
BRANCH  21  22
HETATM   22  C13 UNL     1      28.320   0.233  54.958  1.00  0.00     0.398 C 
HETATM   23  O3  UNL     1      28.850   1.390  54.954  1.00  0.00    -0.276 OA
ENDBRANCH  21  22
ENDBRANCH  20  21
ENDBRANCH  10  20
BRANCH   1  24
HETATM   24  C2  UNL     1      18.163  -1.009  53.109  1.00  0.00    -0.026 C 
HETATM   25  C1  UNL     1      17.000  -1.587  52.877  1.00  0.00     0.031 C 
ENDBRANCH   1  24
TORSDOF 4
ENDMDL
MODEL 2
REMARK VINA RESULT:      -9.3      1.698      6.145
REMARK  4 active torsions:
REMARK  status: ('A' for Active; 'I' for Inactive)
REMARK    1  A    between atoms: C2_2  and  C3_3 
REMARK    2  A    between atoms: C11_12  and  C12_13 
REMARK    3  A    between atoms: C12_13  and  O2_14 
REMARK    4  A    between atoms: O2_14  and  C13_15 
ROOT
HETATM    1  C3  UNL     1      25.537   5.628  48.797  1.00  0.00     0.007 C 
HETATM    2  C4  UNL     1      25.421   4.605  49.647  1.00  0.00    -0.005 A 
HETATM    3  C5  UNL     1      26.724   3.979  49.892  1.00  0.00     0.047 A 
HETATM    4  C6  UNL     1      26.616   2.768  50.736  1.00  0.00     0.047 A 
HETATM    5  C7  UNL     1      25.283   2.510  51.230  1.00  0.00    -0.006 A 
HETATM    6  C8  UNL     1      24.069   3.170  51.003  1.00  0.00     0.134 A 
HETATM    7  O1  UNL     1      23.051   2.617  51.635  1.00  0.00    -0.304 OA
HETATM    8  C9  UNL     1      23.506   1.567  52.317  1.00  0.00     0.099 A 
HETATM    9  C10 UNL     1      24.859   1.492  52.079  1.00  0.00     0.016 A 
HETATM   10  C11 UNL     1      25.456   0.416  52.749  1.00  0.00    -0.019 A 
HETATM   11  C14 UNL     1      24.685  -0.439  53.550  1.00  0.00     0.022 A 
HETATM   12  C15 UNL     1      23.330  -0.270  53.719  1.00  0.00    -0.022 A 
HETATM   13  C16 UNL     1      22.647  -1.153  54.523  1.00  0.00     0.012 A 
HETATM   14  C17 UNL     1      21.297  -0.945  54.661  1.00  0.00     0.001 A 
HETATM   15  C18 UNL     1      20.636   0.080  54.042  1.00  0.00     0.001 A 
HETATM   16  C19 UNL     1      21.337   0.956  53.240  1.00  0.00     0.015 A 
HETATM   17  C20 UNL     1      22.693   0.772  53.084  1.00  0.00     0.009 A 
HETATM   18  C21 UNL     1      24.080   4.338  50.135  1.00  0.00     0.212 A 
HETATM   19  O4  UNL     1      23.102   5.029  49.834  1.00  0.00    -0.285 OA
ENDROOT
BRANCH  10  20
HETATM   20  C12 UNL     1      26.912   0.158  52.641  1.00  0.00     0.217 C 
BRANCH  20  21
HETATM   21  O2  UNL     1      27.640   0.753  53.701  1.00  0.00    -0.324 OA
BRANCH  21  22
HETATM   22  C13 UNL     1      28.665   1.657  53.476  1.00  0.00     0.398 C 
HETATM   23  O3  UNL     1      28.126   2.610  54.124  1.00  0.00    -0.276 OA
ENDBRANCH  21  22
ENDBRANCH  20  21
ENDBRANCH  10  20
BRANCH   1  24
HETATM   24  C2  UNL     1      24.428   6.435  48.368  1.00  0.00    -0.026 C 
HETATM   25  C1  UNL     1      24.265   7.346  47.428  1.00  0.00     0.031 C 
ENDBRANCH   1  24
TORSDOF 4
ENDMDL
MODEL 3
REMARK VINA RESULT:      -9.0      2.153      4.165
REMARK  4 active torsions:
REMARK  status: ('A' for Active; 'I' for Inactive)
REMARK    1  A    between atoms: C2_2  and  C3_3 
REMARK    2  A    between atoms: C11_12  and  C12_13 
REMARK    3  A    between atoms: C12_13  and  O2_14 
REMARK    4  A    between atoms: O2_14  and  C13_15 
ROOT
HETATM    1  C3  UNL     1      19.496   0.168  51.918  1.00  0.00     0.007 C 
HETATM    2  C4  UNL     1      20.764   0.585  51.891  1.00  0.00    -0.005 A 
HETATM    3  C5  UNL     1      20.983   1.518  50.783  1.00  0.00     0.047 A 
HETATM    4  C6  UNL     1      22.405   1.908  50.649  1.00  0.00     0.047 A 
HETATM    5  C7  UNL     1      23.261   1.382  51.688  1.00  0.00    -0.006 A 
HETATM    6  C8  UNL     1      22.992   0.524  52.761  1.00  0.00     0.134 A 
HETATM    7  O1  UNL     1      24.056   0.263  53.497  1.00  0.00    -0.304 OA
HETATM    8  C9  UNL     1      25.093   0.917  52.975  1.00  0.00     0.099 A 
HETATM    9  C10 UNL     1      24.623   1.600  51.877  1.00  0.00     0.016 A 
HETATM   10  C11 UNL     1      25.630   2.334  51.238  1.00  0.00    -0.019 A 
HETATM   11  C14 UNL     1      26.944   2.316  51.729  1.00  0.00     0.022 A 
HETATM   12  C15 UNL     1      27.306   1.593  52.842  1.00  0.00    -0.022 A 
HETATM   13  C16 UNL     1      28.617   1.629  53.259  1.00  0.00     0.012 A 
HETATM   14  C17 UNL     1      28.930   0.892  54.373  1.00  0.00     0.001 A 
HETATM   15  C18 UNL     1      28.008   0.148  55.057  1.00  0.00     0.001 A 
HETATM   16  C19 UNL     1      26.698   0.124  54.625  1.00  0.00     0.015 A 
HETATM   17  C20 UNL     1      26.354   0.855  53.509  1.00  0.00     0.009 A 
HETATM   18  C21 UNL     1      21.628   0.047  52.928  1.00  0.00     0.212 A 
HETATM   19  O4  UNL     1      21.225  -0.710  53.816  1.00  0.00    -0.285 OA
ENDROOT
BRANCH  10  20
HETATM   20  C12 UNL     1      25.337   3.155  50.038  1.00  0.00     0.217 C 
BRANCH  20  21
HETATM   21  O2  UNL     1      26.515   3.506  49.332  1.00  0.00    -0.324 OA
BRANCH  21  22
HETATM   22  C13 UNL     1      26.802   4.815  48.983  1.00  0.00     0.398 C 
HETATM   23  O3  UNL     1      28.013   4.589  48.662  1.00  0.00    -0.276 OA
ENDBRANCH  21  22
ENDBRANCH  20  21
ENDBRANCH  10  20
BRANCH   1  24
HETATM   24  C2  UNL     1      18.982  -0.753  52.894  1.00  0.00    -0.026 C 
HETATM   25  C1  UNL     1      17.791  -1.264  53.136  1.00  0.00     0.031 C 
ENDBRANCH   1  24
TORSDOF 4
ENDMDL
MODEL 4
REMARK VINA RESULT:      -8.8      1.824      6.947
REMARK  4 active torsions:
REMARK  status: ('A' for Active; 'I' for Inactive)
REMARK    1  A    between atoms: C2_2  and  C3_3 
REMARK    2  A    between atoms: C11_12  and  C12_13 
REMARK    3  A    between atoms: C12_13  and  O2_14 
REMARK    4  A    between atoms: O2_14  and  C13_15 
ROOT
HETATM    1  C3  UNL     1      28.561   0.911  53.079  1.00  0.00     0.007 C 
HETATM    2  C4  UNL     1      27.263   1.007  52.787  1.00  0.00    -0.005 A 
HETATM    3  C5  UNL     1      27.017   2.112  51.855  1.00  0.00     0.047 A 
HETATM    4  C6  UNL     1      25.574   2.324  51.602  1.00  0.00     0.047 A 
HETATM    5  C7  UNL     1      24.715   1.347  52.231  1.00  0.00    -0.006 A 
HETATM    6  C8  UNL     1      25.004   0.273  53.083  1.00  0.00     0.134 A 
HETATM    7  O1  UNL     1      23.930  -0.392  53.462  1.00  0.00    -0.304 OA
HETATM    8  C9  UNL     1      22.866   0.180  52.900  1.00  0.00     0.099 A 
HETATM    9  C10 UNL     1      23.330   1.237  52.151  1.00  0.00     0.016 A 
HETATM   10  C11 UNL     1      22.294   1.924  51.505  1.00  0.00    -0.019 A 
HETATM   11  C14 UNL     1      20.962   1.513  51.662  1.00  0.00     0.022 A 
HETATM   12  C15 UNL     1      20.609   0.435  52.441  1.00  0.00    -0.022 A 
HETATM   13  C16 UNL     1      19.278   0.097  52.541  1.00  0.00     0.012 A 
HETATM   14  C17 UNL     1      18.975  -0.984  53.330  1.00  0.00     0.001 A 
HETATM   15  C18 UNL     1      19.925  -1.710  53.995  1.00  0.00     0.001 A 
HETATM   16  C19 UNL     1      21.253  -1.357  53.882  1.00  0.00     0.015 A 
HETATM   17  C20 UNL     1      21.588  -0.276  53.097  1.00  0.00     0.009 A 
HETATM   18  C21 UNL     1      26.397   0.033  53.428  1.00  0.00     0.212 A 
HETATM   19  O4  UNL     1      26.820  -0.865  54.162  1.00  0.00    -0.285 OA
ENDROOT
BRANCH  10  20
HETATM   20  C12 UNL     1      22.574   3.090  50.634  1.00  0.00     0.217 C 
BRANCH  20  21
HETATM   21  O2  UNL     1      22.328   4.320  51.294  1.00  0.00    -0.324 OA
BRANCH  21  22
HETATM   22  C13 UNL     1      23.313   5.281  51.452  1.00  0.00     0.398 C 
HETATM   23  O3  UNL     1      23.531   5.025  52.680  1.00  0.00    -0.276 OA
ENDBRANCH  21  22
ENDBRANCH  20  21
ENDBRANCH  10  20
BRANCH   1  24
HETATM   24  C2  UNL     1      29.106  -0.079  53.967  1.00  0.00    -0.026 C 
HETATM   25  C1  UNL     1      30.061  -0.983  53.860  1.00  0.00     0.031 C 
ENDBRANCH   1  24
TORSDOF 4
ENDMDL
MODEL 5
REMARK VINA RESULT:      -8.8      3.097      8.092
REMARK  4 active torsions:
REMARK  status: ('A' for Active; 'I' for Inactive)
REMARK    1  A    between atoms: C2_2  and  C3_3 
REMARK    2  A    between atoms: C11_12  and  C12_13 
REMARK    3  A    between atoms: C12_13  and  O2_14 
REMARK    4  A    between atoms: O2_14  and  C13_15 
ROOT
HETATM    1  C3  UNL     1      27.188   7.054  47.862  1.00  0.00     0.007 C 
HETATM    2  C4  UNL     1      26.541   6.175  48.631  1.00  0.00    -0.005 A 
HETATM    3  C5  UNL     1      25.196   6.658  48.957  1.00  0.00     0.047 A 
HETATM    4  C6  UNL     1      24.492   5.766  49.906  1.00  0.00     0.047 A 
HETATM    5  C7  UNL     1      25.220   4.561  50.232  1.00  0.00    -0.006 A 
HETATM    6  C8  UNL     1      26.495   4.120  49.855  1.00  0.00     0.134 A 
HETATM    7  O1  UNL     1      26.815   2.951  50.376  1.00  0.00    -0.304 OA
HETATM    8  C9  UNL     1      25.794   2.535  51.126  1.00  0.00     0.099 A 
HETATM    9  C10 UNL     1      24.820   3.505  51.046  1.00  0.00     0.016 A 
HETATM   10  C11 UNL     1      23.686   3.179  51.800  1.00  0.00    -0.019 A 
HETATM   11  C14 UNL     1      23.634   1.980  52.525  1.00  0.00     0.022 A 
HETATM   12  C15 UNL     1      24.672   1.077  52.534  1.00  0.00    -0.022 A 
HETATM   13  C16 UNL     1      24.540  -0.077  53.273  1.00  0.00     0.012 A 
HETATM   14  C17 UNL     1      25.603  -0.946  53.251  1.00  0.00     0.001 A 
HETATM   15  C18 UNL     1      26.747  -0.705  52.543  1.00  0.00     0.001 A 
HETATM   16  C19 UNL     1      26.861   0.457  51.808  1.00  0.00     0.015 A 
HETATM   17  C20 UNL     1      25.811   1.347  51.810  1.00  0.00     0.009 A 
HETATM   18  C21 UNL     1      27.276   4.969  48.969  1.00  0.00     0.212 A 
HETATM   19  O4  UNL     1      28.410   4.729  48.545  1.00  0.00    -0.285 OA
ENDROOT
BRANCH  10  20
HETATM   20  C12 UNL     1      22.509   4.081  51.843  1.00  0.00     0.217 C 
BRANCH  20  21
HETATM   21  O2  UNL     1      21.370   3.502  51.231  1.00  0.00    -0.324 OA
BRANCH  21  22
HETATM   22  C13 UNL     1      20.081   3.814  51.630  1.00  0.00     0.398 C 
HETATM   23  O3  UNL     1      20.161   3.230  52.757  1.00  0.00    -0.276 OA
ENDBRANCH  21  22
ENDBRANCH  20  21
ENDBRANCH  10  20
BRANCH   1  24
HETATM   24  C2  UNL     1      28.528   6.855  47.382  1.00  0.00    -0.026 C 
HETATM   25  C1  UNL     1      29.457   7.654  46.895  1.00  0.00     0.031 C 
ENDBRANCH   1  24
TORSDOF 4
ENDMDL
MODEL 6
REMARK VINA RESULT:      -8.7      2.330      5.664
REMARK  4 active torsions:
REMARK  status: ('A' for Active; 'I' for Inactive)
REMARK    1  A    between atoms: C2_2  and  C3_3 
REMARK    2  A    between atoms: C11_12  and  C12_13 
REMARK    3  A    between atoms: C12_13  and  O2_14 
REMARK    4  A    between atoms: O2_14  and  C13_15 
ROOT
HETATM    1  C3  UNL     1      22.191   3.984  48.372  1.00  0.00     0.007 C 
HETATM    2  C4  UNL     1      22.760   3.226  49.312  1.00  0.00    -0.005 A 
HETATM    3  C5  UNL     1      21.850   2.162  49.747  1.00  0.00     0.047 A 
HETATM    4  C6  UNL     1      22.402   1.375  50.873  1.00  0.00     0.047 A 
HETATM    5  C7  UNL     1      23.751   1.740  51.241  1.00  0.00    -0.006 A 
HETATM    6  C8  UNL     1      24.602   2.742  50.759  1.00  0.00     0.134 A 
HETATM    7  O1  UNL     1      25.773   2.764  51.367  1.00  0.00    -0.304 OA
HETATM    8  C9  UNL     1      25.787   1.795  52.282  1.00  0.00     0.099 A 
HETATM    9  C10 UNL     1      24.565   1.166  52.214  1.00  0.00     0.016 A 
HETATM   10  C11 UNL     1      24.456   0.118  53.137  1.00  0.00    -0.019 A 
HETATM   11  C14 UNL     1      25.523  -0.186  53.996  1.00  0.00     0.022 A 
HETATM   12  C15 UNL     1      26.708   0.513  53.978  1.00  0.00    -0.022 A 
HETATM   13  C16 UNL     1      27.705   0.150  54.854  1.00  0.00     0.012 A 
HETATM   14  C17 UNL     1      28.868   0.877  54.799  1.00  0.00     0.001 A 
HETATM   15  C18 UNL     1      29.056   1.915  53.929  1.00  0.00     0.001 A 
HETATM   16  C19 UNL     1      28.046   2.264  53.058  1.00  0.00     0.015 A 
HETATM   17  C20 UNL     1      26.868   1.552  53.089  1.00  0.00     0.009 A 
HETATM   18  C21 UNL     1      24.111   3.598  49.691  1.00  0.00     0.212 A 
HETATM   19  O4  UNL     1      24.731   4.523  49.157  1.00  0.00    -0.285 OA
ENDROOT
BRANCH  10  20
HETATM   20  C12 UNL     1      23.224  -0.702  53.225  1.00  0.00     0.217 C 
BRANCH  20  21
HETATM   21  O2  UNL     1      22.264  -0.131  54.097  1.00  0.00    -0.324 OA
BRANCH  21  22
HETATM   22  C13 UNL     1      21.342  -0.903  54.785  1.00  0.00     0.398 C 
HETATM   23  O3  UNL     1      22.196  -1.733  55.235  1.00  0.00    -0.276 OA
ENDBRANCH  21  22
ENDBRANCH  20  21
ENDBRANCH  10  20
BRANCH   1  24
HETATM   24  C2  UNL     1      22.841   5.105  47.753  1.00  0.00    -0.026 C 
HETATM   25  C1  UNL     1      22.488   5.974  46.825  1.00  0.00     0.031 C 
ENDBRANCH   1  24
TORSDOF 4
ENDMDL
MODEL 7
REMARK VINA RESULT:      -8.5      2.773      6.325
REMARK  4 active torsions:
REMARK  status: ('A' for Active; 'I' for Inactive)
REMARK    1  A    between atoms: C2_2  and  C3_3 
REMARK    2  A    between atoms: C11_12  and  C12_13 
REMARK    3  A    between atoms: C12_13  and  O2_14 
REMARK    4  A    between atoms: O2_14  and  C13_15 
ROOT
HETATM    1  C3  UNL     1      27.550  -0.397  53.889  1.00  0.00     0.007 C 
HETATM    2  C4  UNL     1      26.739   0.375  53.163  1.00  0.00    -0.005 A 
HETATM    3  C5  UNL     1      25.360  -0.120  53.217  1.00  0.00     0.047 A 
HETATM    4  C6  UNL     1      24.455   0.642  52.327  1.00  0.00     0.047 A 
HETATM    5  C7  UNL     1      25.080   1.770  51.675  1.00  0.00    -0.006 A 
HETATM    6  C8  UNL     1      26.401   2.232  51.693  1.00  0.00     0.134 A 
HETATM    7  O1  UNL     1      26.585   3.307  50.949  1.00  0.00    -0.304 OA
HETATM    8  C9  UNL     1      25.419   3.632  50.391  1.00  0.00     0.099 A 
HETATM    9  C10 UNL     1      24.498   2.707  50.825  1.00  0.00     0.016 A 
HETATM   10  C11 UNL     1      23.221   2.945  50.302  1.00  0.00    -0.019 A 
HETATM   11  C14 UNL     1      22.997   4.028  49.439  1.00  0.00     0.022 A 
HETATM   12  C15 UNL     1      23.998   4.896  49.068  1.00  0.00    -0.022 A 
HETATM   13  C16 UNL     1      23.693   5.934  48.218  1.00  0.00     0.012 A 
HETATM   14  C17 UNL     1      24.725   6.773  47.876  1.00  0.00     0.001 A 
HETATM   15  C18 UNL     1      26.001   6.612  48.342  1.00  0.00     0.001 A 
HETATM   16  C19 UNL     1      26.287   5.566  49.195  1.00  0.00     0.015 A 
HETATM   17  C20 UNL     1      25.272   4.708  49.555  1.00  0.00     0.009 A 
HETATM   18  C21 UNL     1      27.368   1.503  52.498  1.00  0.00     0.212 A 
HETATM   19  O4  UNL     1      28.566   1.776  52.622  1.00  0.00    -0.285 OA
ENDROOT
BRANCH  10  20
HETATM   20  C12 UNL     1      22.074   2.073  50.651  1.00  0.00     0.217 C 
BRANCH  20  21
HETATM   21  O2  UNL     1      20.946   2.819  51.075  1.00  0.00    -0.324 OA
BRANCH  21  22
HETATM   22  C13 UNL     1      20.817   3.286  52.373  1.00  0.00     0.398 C 
HETATM   23  O3  UNL     1      19.552   3.421  52.324  1.00  0.00    -0.276 OA
ENDBRANCH  21  22
ENDBRANCH  20  21
ENDBRANCH  10  20
BRANCH   1  24
HETATM   24  C2  UNL     1      28.961  -0.161  54.027  1.00  0.00    -0.026 C 
HETATM   25  C1  UNL     1      30.041  -0.861  53.743  1.00  0.00     0.031 C 
ENDBRANCH   1  24
TORSDOF 4
ENDMDL
MODEL 8
REMARK VINA RESULT:      -8.3      3.632      8.718
REMARK  4 active torsions:
REMARK  status: ('A' for Active; 'I' for Inactive)
REMARK    1  A    between atoms: C2_2  and  C3_3 
REMARK    2  A    between atoms: C11_12  and  C12_13 
REMARK    3  A    between atoms: C12_13  and  O2_14 
REMARK    4  A    between atoms: O2_14  and  C13_15 
ROOT
HETATM    1  C3  UNL     1      28.230   7.343  47.294  1.00  0.00     0.007 C 
HETATM    2  C4  UNL     1      27.389   6.550  47.961  1.00  0.00    -0.005 A 
HETATM    3  C5  UNL     1      26.022   7.076  47.908  1.00  0.00     0.047 A 
HETATM    4  C6  UNL     1      25.083   6.287  48.738  1.00  0.00     0.047 A 
HETATM    5  C7  UNL     1      25.672   5.112  49.339  1.00  0.00    -0.006 A 
HETATM    6  C8  UNL     1      26.984   4.623  49.322  1.00  0.00     0.134 A 
HETATM    7  O1  UNL     1      27.131   3.507  50.009  1.00  0.00    -0.304 OA
HETATM    8  C9  UNL     1      25.948   3.177  50.526  1.00  0.00     0.099 A 
HETATM    9  C10 UNL     1      25.054   4.143  50.125  1.00  0.00     0.016 A 
HETATM   10  C11 UNL     1      23.762   3.904  50.610  1.00  0.00    -0.019 A 
HETATM   11  C14 UNL     1      23.499   2.781  51.409  1.00  0.00     0.022 A 
HETATM   12  C15 UNL     1      24.475   1.873  51.750  1.00  0.00    -0.022 A 
HETATM   13  C16 UNL     1      24.132   0.798  52.538  1.00  0.00     0.012 A 
HETATM   14  C17 UNL     1      25.139  -0.080  52.852  1.00  0.00     0.001 A 
HETATM   15  C18 UNL     1      26.427   0.079  52.421  1.00  0.00     0.001 A 
HETATM   16  C19 UNL     1      26.752   1.163  51.632  1.00  0.00     0.015 A 
HETATM   17  C20 UNL     1      25.761   2.060  51.299  1.00  0.00     0.009 A 
HETATM   18  C21 UNL     1      27.982   5.375  48.576  1.00  0.00     0.212 A 
HETATM   19  O4  UNL     1      29.176   5.083  48.461  1.00  0.00    -0.285 OA
ENDROOT
BRANCH  10  20
HETATM   20  C12 UNL     1      22.640   4.818  50.287  1.00  0.00     0.217 C 
BRANCH  20  21
HETATM   21  O2  UNL     1      22.644   5.977  51.102  1.00  0.00    -0.324 OA
BRANCH  21  22
HETATM   22  C13 UNL     1      22.092   7.176  50.681  1.00  0.00     0.398 C 
HETATM   23  O3  UNL     1      23.133   7.872  50.910  1.00  0.00    -0.276 OA
ENDBRANCH  21  22
ENDBRANCH  20  21
ENDBRANCH  10  20
BRANCH   1  24
HETATM   24  C2  UNL     1      29.638   7.085  47.170  1.00  0.00    -0.026 C 
HETATM   25  C1  UNL     1      30.593   7.554  46.391  1.00  0.00     0.031 C 
ENDBRANCH   1  24
TORSDOF 4
ENDMDL
MODEL 9
REMARK VINA RESULT:      -8.2      1.906      5.950
REMARK  4 active torsions:
REMARK  status: ('A' for Active; 'I' for Inactive)
REMARK    1  A    between atoms: C2_2  and  C3_3 
REMARK    2  A    between atoms: C11_12  and  C12_13 
REMARK    3  A    between atoms: C12_13  and  O2_14 
REMARK    4  A    between atoms: O2_14  and  C13_15 
ROOT
HETATM    1  C3  UNL     1      27.725  -0.388  54.128  1.00  0.00     0.007 C 
HETATM    2  C4  UNL     1      26.620   0.073  53.538  1.00  0.00    -0.005 A 
HETATM    3  C5  UNL     1      25.438  -0.663  53.996  1.00  0.00     0.047 A 
HETATM    4  C6  UNL     1      24.210  -0.260  53.273  1.00  0.00     0.047 A 
HETATM    5  C7  UNL     1      24.401   0.837  52.352  1.00  0.00    -0.006 A 
HETATM    6  C8  UNL     1      25.552   1.543  51.981  1.00  0.00     0.134 A 
HETATM    7  O1  UNL     1      25.317   2.486  51.088  1.00  0.00    -0.304 OA
HETATM    8  C9  UNL     1      24.015   2.476  50.804  1.00  0.00     0.099 A 
HETATM    9  C10 UNL     1      23.449   1.479  51.565  1.00  0.00     0.016 A 
HETATM   10  C11 UNL     1      22.069   1.369  51.352  1.00  0.00    -0.019 A 
HETATM   11  C14 UNL     1      21.419   2.220  50.446  1.00  0.00     0.022 A 
HETATM   12  C15 UNL     1      22.088   3.188  49.733  1.00  0.00    -0.022 A 
HETATM   13  C16 UNL     1      21.376   3.982  48.863  1.00  0.00     0.012 A 
HETATM   14  C17 UNL     1      22.086   4.933  48.174  1.00  0.00     0.001 A 
HETATM   15  C18 UNL     1      23.435   5.106  48.322  1.00  0.00     0.001 A 
HETATM   16  C19 UNL     1      24.132   4.302  49.199  1.00  0.00     0.015 A 
HETATM   17  C20 UNL     1      23.445   3.339  49.905  1.00  0.00     0.009 A 
HETATM   18  C21 UNL     1      26.812   1.168  52.603  1.00  0.00     0.212 A 
HETATM   19  O4  UNL     1      27.912   1.686  52.388  1.00  0.00    -0.285 OA
ENDROOT
BRANCH  10  20
HETATM   20  C12 UNL     1      21.258   0.365  52.082  1.00  0.00     0.217 C 
BRANCH  20  21
HETATM   21  O2  UNL     1      20.749   0.876  53.303  1.00  0.00    -0.324 OA
BRANCH  21  22
HETATM   22  C13 UNL     1      20.779   0.142  54.477  1.00  0.00     0.398 C 
HETATM   23  O3  UNL     1      20.753  -0.995  53.907  1.00  0.00    -0.276 OA
ENDBRANCH  21  22
ENDBRANCH  20  21
ENDBRANCH  10  20
BRANCH   1  24
HETATM   24  C2  UNL     1      29.038   0.139  53.879  1.00  0.00    -0.026 C 
HETATM   25  C1  UNL     1      30.186  -0.394  53.507  1.00  0.00     0.031 C 
ENDBRANCH   1  24
TORSDOF 4
ENDMDL
