MODEL 1
REMARK VINA RESULT:      -6.9      0.000      0.000
REMARK  10 active torsions:
REMARK  status: ('A' for Active; 'I' for Inactive)
REMARK    1  A    between atoms: C2_2  and  C3_3 
REMARK    2  A    between atoms: C3_3  and  C4_4 
REMARK    3  A    between atoms: C4_4  and  N1_5 
REMARK    4  A    between atoms: N1_5  and  C5_6 
REMARK    5  A    between atoms: N1_5  and  C12_16 
REMARK    6  A    between atoms: C5_6  and  C6_7 
REMARK    7  A    between atoms: C10_12  and  N2_13 
REMARK    8  A    between atoms: C11_14  and  O1_15 
REMARK    9  A    between atoms: C12_16  and  C13_17 
REMARK   10  A    between atoms: C13_17  and  O2_18 
ROOT
HETATM    1  N1  UNL     1      23.966   2.015  52.485  1.00  0.00    -0.405 N 
ENDROOT
BRANCH   1   2
HETATM    2  C4  UNL     1      22.886   1.369  53.110  1.00  0.00     0.117 C 
BRANCH   2   3
HETATM    3  C3  UNL     1      22.821  -0.132  52.797  1.00  0.00     0.019 C 
BRANCH   3   4
HETATM    4  C2  UNL     1      22.769  -0.852  54.132  1.00  0.00    -0.003 C 
HETATM    5  C1  UNL     1      21.332  -1.003  54.552  1.00  0.00     0.005 C 
ENDBRANCH   3   4
ENDBRANCH   2   3
ENDBRANCH   1   2
BRANCH   1   6
HETATM    6  C5  UNL     1      23.728   2.517  51.176  1.00  0.00     0.158 C 
BRANCH   6   7
HETATM    7  C6  UNL     1      24.252   3.868  50.900  1.00  0.00    -0.004 A 
HETATM    8  C7  UNL     1      25.394   3.972  50.097  1.00  0.00     0.030 A 
HETATM    9  C8  UNL     1      26.006   5.152  49.737  1.00  0.00     0.013 A 
HETATM   10 BR1  UNL     1      27.574   5.097  48.619  1.00  0.00    -0.051 Br
HETATM   11  C9  UNL     1      25.456   6.345  50.200  1.00  0.00     0.051 A 
HETATM   12  C10 UNL     1      24.329   6.257  50.994  1.00  0.00     0.061 A 
HETATM   13  C11 UNL     1      23.744   5.073  51.335  1.00  0.00     0.099 A 
BRANCH  12  14
HETATM   14  N2  UNL     1      23.800   7.498  51.447  1.00  0.00    -0.397 N 
HETATM   15  H14 UNL     1      23.175   8.000  50.777  1.00  0.00     0.156 HD
HETATM   16  H15 UNL     1      23.992   7.935  52.395  1.00  0.00     0.156 HD
ENDBRANCH  12  14
BRANCH  13  17
HETATM   17  O1  UNL     1      22.613   5.003  52.134  1.00  0.00    -0.358 OA
HETATM   18  H16 UNL     1      22.668   4.808  53.132  1.00  0.00     0.217 HD
ENDBRANCH  13  17
ENDBRANCH   6   7
ENDBRANCH   1   6
BRANCH   1  19
HETATM   19  C12 UNL     1      25.017   2.559  53.209  1.00  0.00     0.163 C 
BRANCH  19  20
HETATM   20  C13 UNL     1      26.303   1.818  53.262  1.00  0.00     0.109 A 
HETATM   21  C14 UNL     1      26.177   0.660  54.230  1.00  0.00     0.016 A 
HETATM   22  C15 UNL     1      26.465  -0.510  53.683  1.00  0.00    -0.001 A 
HETATM   23  C16 UNL     1      26.815  -0.225  52.273  1.00  0.00    -0.001 A 
HETATM   24  C17 UNL     1      26.716   1.101  52.059  1.00  0.00     0.016 A 
BRANCH  20  25
HETATM   25  O2  UNL     1      27.300   2.626  53.827  1.00  0.00    -0.380 OA
HETATM   26  H19 UNL     1      28.045   1.998  54.074  1.00  0.00     0.211 HD
ENDBRANCH  20  25
ENDBRANCH  19  20
ENDBRANCH   1  19
TORSDOF 10
ENDMDL
MODEL 2
REMARK VINA RESULT:      -6.9      2.536      3.227
REMARK  10 active torsions:
REMARK  status: ('A' for Active; 'I' for Inactive)
REMARK    1  A    between atoms: C2_2  and  C3_3 
REMARK    2  A    between atoms: C3_3  and  C4_4 
REMARK    3  A    between atoms: C4_4  and  N1_5 
REMARK    4  A    between atoms: N1_5  and  C5_6 
REMARK    5  A    between atoms: N1_5  and  C12_16 
REMARK    6  A    between atoms: C5_6  and  C6_7 
REMARK    7  A    between atoms: C10_12  and  N2_13 
REMARK    8  A    between atoms: C11_14  and  O1_15 
REMARK    9  A    between atoms: C12_16  and  C13_17 
REMARK   10  A    between atoms: C13_17  and  O2_18 
ROOT
HETATM    1  N1  UNL     1      25.393   0.214  52.849  1.00  0.00    -0.405 N 
ENDROOT
BRANCH   1   2
HETATM    2  C4  UNL     1      24.395  -0.527  53.504  1.00  0.00     0.117 C 
BRANCH   2   3
HETATM    3  C3  UNL     1      22.978  -0.182  53.025  1.00  0.00     0.019 C 
BRANCH   3   4
HETATM    4  C2  UNL     1      22.025  -0.672  54.099  1.00  0.00    -0.003 C 
HETATM    5  C1  UNL     1      22.821  -1.293  55.215  1.00  0.00     0.005 C 
ENDBRANCH   3   4
ENDBRANCH   2   3
ENDBRANCH   1   2
BRANCH   1   6
HETATM    6  C5  UNL     1      25.291   1.629  52.945  1.00  0.00     0.158 C 
BRANCH   6   7
HETATM    7  C6  UNL     1      25.263   2.360  51.664  1.00  0.00    -0.004 A 
HETATM    8  C7  UNL     1      24.053   2.399  50.963  1.00  0.00     0.030 A 
HETATM    9  C8  UNL     1      23.852   3.042  49.761  1.00  0.00     0.013 A 
HETATM   10 BR1  UNL     1      22.109   2.987  48.944  1.00  0.00    -0.051 Br
HETATM   11  C9  UNL     1      24.930   3.711  49.186  1.00  0.00     0.051 A 
HETATM   12  C10 UNL     1      26.131   3.680  49.868  1.00  0.00     0.061 A 
HETATM   13  C11 UNL     1      26.301   3.035  51.057  1.00  0.00     0.099 A 
BRANCH  12  14
HETATM   14  N2  UNL     1      27.207   4.375  49.247  1.00  0.00    -0.397 N 
HETATM   15  H14 UNL     1      27.697   5.083  49.839  1.00  0.00     0.156 HD
HETATM   16  H15 UNL     1      27.536   4.226  48.249  1.00  0.00     0.156 HD
ENDBRANCH  12  14
BRANCH  13  17
HETATM   17  O1  UNL     1      27.514   3.014  51.728  1.00  0.00    -0.358 OA
HETATM   18  H16 UNL     1      28.395   2.849  51.246  1.00  0.00     0.217 HD
ENDBRANCH  13  17
ENDBRANCH   6   7
ENDBRANCH   1   6
BRANCH   1  19
HETATM   19  C12 UNL     1      26.631  -0.329  52.544  1.00  0.00     0.163 C 
BRANCH  19  20
HETATM   20  C13 UNL     1      27.659  -0.404  53.614  1.00  0.00     0.109 A 
HETATM   21  C14 UNL     1      28.499  -1.649  53.417  1.00  0.00     0.016 A 
HETATM   22  C15 UNL     1      29.795  -1.393  53.320  1.00  0.00    -0.001 A 
HETATM   23  C16 UNL     1      29.930   0.076  53.447  1.00  0.00    -0.001 A 
HETATM   24  C17 UNL     1      28.706   0.613  53.613  1.00  0.00     0.016 A 
BRANCH  20  25
HETATM   25  O2  UNL     1      27.044  -0.604  54.858  1.00  0.00    -0.380 OA
HETATM   26  H19 UNL     1      27.575  -1.331  55.305  1.00  0.00     0.211 HD
ENDBRANCH  20  25
ENDBRANCH  19  20
ENDBRANCH   1  19
TORSDOF 10
ENDMDL
MODEL 3
REMARK VINA RESULT:      -6.9      2.165      2.512
REMARK  10 active torsions:
REMARK  status: ('A' for Active; 'I' for Inactive)
REMARK    1  A    between atoms: C2_2  and  C3_3 
REMARK    2  A    between atoms: C3_3  and  C4_4 
REMARK    3  A    between atoms: C4_4  and  N1_5 
REMARK    4  A    between atoms: N1_5  and  C5_6 
REMARK    5  A    between atoms: N1_5  and  C12_16 
REMARK    6  A    between atoms: C5_6  and  C6_7 
REMARK    7  A    between atoms: C10_12  and  N2_13 
REMARK    8  A    between atoms: C11_14  and  O1_15 
REMARK    9  A    between atoms: C12_16  and  C13_17 
REMARK   10  A    between atoms: C13_17  and  O2_18 
ROOT
HETATM    1  N1  UNL     1      24.287   2.488  50.969  1.00  0.00    -0.405 N 
ENDROOT
BRANCH   1   2
HETATM    2  C4  UNL     1      23.072   1.794  51.098  1.00  0.00     0.117 C 
BRANCH   2   3
HETATM    3  C3  UNL     1      22.744   1.422  52.550  1.00  0.00     0.019 C 
BRANCH   3   4
HETATM    4  C2  UNL     1      22.750  -0.094  52.622  1.00  0.00    -0.003 C 
HETATM    5  C1  UNL     1      23.112  -0.517  54.021  1.00  0.00     0.005 C 
ENDBRANCH   3   4
ENDBRANCH   2   3
ENDBRANCH   1   2
BRANCH   1   6
HETATM    6  C5  UNL     1      24.436   3.286  49.803  1.00  0.00     0.158 C 
BRANCH   6   7
HETATM    7  C6  UNL     1      24.429   4.746  50.017  1.00  0.00    -0.004 A 
HETATM    8  C7  UNL     1      23.187   5.379  50.150  1.00  0.00     0.030 A 
HETATM    9  C8  UNL     1      23.003   6.727  50.361  1.00  0.00     0.013 A 
HETATM   10 BR1  UNL     1      21.212   7.418  50.521  1.00  0.00    -0.051 Br
HETATM   11  C9  UNL     1      24.131   7.538  50.453  1.00  0.00     0.051 A 
HETATM   12  C10 UNL     1      25.363   6.926  50.323  1.00  0.00     0.061 A 
HETATM   13  C11 UNL     1      25.516   5.588  50.114  1.00  0.00     0.099 A 
BRANCH  12  14
HETATM   14  N2  UNL     1      26.490   7.790  50.422  1.00  0.00    -0.397 N 
HETATM   15  H14 UNL     1      26.293   8.812  50.325  1.00  0.00     0.156 HD
HETATM   16  H15 UNL     1      27.490   7.474  50.583  1.00  0.00     0.156 HD
ENDBRANCH  12  14
BRANCH  13  17
HETATM   17  O1  UNL     1      26.760   4.990  49.985  1.00  0.00    -0.358 OA
HETATM   18  H16 UNL     1      27.626   5.520  50.062  1.00  0.00     0.217 HD
ENDBRANCH  13  17
ENDBRANCH   6   7
ENDBRANCH   1   6
BRANCH   1  19
HETATM   19  C12 UNL     1      25.086   2.782  52.065  1.00  0.00     0.163 C 
BRANCH  19  20
HETATM   20  C13 UNL     1      26.372   2.057  52.223  1.00  0.00     0.109 A 
HETATM   21  C14 UNL     1      26.610   1.770  53.690  1.00  0.00     0.016 A 
HETATM   22  C15 UNL     1      26.793   0.484  53.947  1.00  0.00    -0.001 A 
HETATM   23  C16 UNL     1      26.690  -0.210  52.643  1.00  0.00    -0.001 A 
HETATM   24  C17 UNL     1      26.451   0.703  51.682  1.00  0.00     0.016 A 
BRANCH  20  25
HETATM   25  O2  UNL     1      27.441   2.890  51.862  1.00  0.00    -0.380 OA
HETATM   26  H19 UNL     1      28.178   2.269  51.576  1.00  0.00     0.211 HD
ENDBRANCH  20  25
ENDBRANCH  19  20
ENDBRANCH   1  19
TORSDOF 10
ENDMDL
MODEL 4
REMARK VINA RESULT:      -6.7      2.988      5.391
REMARK  10 active torsions:
REMARK  status: ('A' for Active; 'I' for Inactive)
REMARK    1  A    between atoms: C2_2  and  C3_3 
REMARK    2  A    between atoms: C3_3  and  C4_4 
REMARK    3  A    between atoms: C4_4  and  N1_5 
REMARK    4  A    between atoms: N1_5  and  C5_6 
REMARK    5  A    between atoms: N1_5  and  C12_16 
REMARK    6  A    between atoms: C5_6  and  C6_7 
REMARK    7  A    between atoms: C10_12  and  N2_13 
REMARK    8  A    between atoms: C11_14  and  O1_15 
REMARK    9  A    between atoms: C12_16  and  C13_17 
REMARK   10  A    between atoms: C13_17  and  O2_18 
ROOT
HETATM    1  N1  UNL     1      26.229   1.647  52.445  1.00  0.00    -0.405 N 
ENDROOT
BRANCH   1   2
HETATM    2  C4  UNL     1      26.878   2.592  51.632  1.00  0.00     0.117 C 
BRANCH   2   3
HETATM    3  C3  UNL     1      26.478   2.489  50.154  1.00  0.00     0.019 C 
BRANCH   3   4
HETATM    4  C2  UNL     1      26.113   3.891  49.705  1.00  0.00    -0.003 C 
HETATM    5  C1  UNL     1      27.269   4.478  48.940  1.00  0.00     0.005 C 
ENDBRANCH   3   4
ENDBRANCH   2   3
ENDBRANCH   1   2
BRANCH   1   6
HETATM    6  C5  UNL     1      25.006   2.063  53.039  1.00  0.00     0.158 C 
BRANCH   6   7
HETATM    7  C6  UNL     1      23.804   1.315  52.628  1.00  0.00    -0.004 A 
HETATM    8  C7  UNL     1      23.200   1.667  51.415  1.00  0.00     0.030 A 
HETATM    9  C8  UNL     1      22.081   1.068  50.883  1.00  0.00     0.013 A 
HETATM   10 BR1  UNL     1      21.393   1.690  49.194  1.00  0.00    -0.051 Br
HETATM   11  C9  UNL     1      21.491   0.026  51.594  1.00  0.00     0.051 A 
HETATM   12  C10 UNL     1      22.077  -0.332  52.793  1.00  0.00     0.061 A 
HETATM   13  C11 UNL     1      23.186   0.280  53.297  1.00  0.00     0.099 A 
BRANCH  12  14
HETATM   14  N2  UNL     1      21.444  -1.400  53.490  1.00  0.00    -0.397 N 
HETATM   15  H14 UNL     1      20.609  -1.140  54.064  1.00  0.00     0.156 HD
HETATM   16  H15 UNL     1      21.754  -2.414  53.467  1.00  0.00     0.156 HD
ENDBRANCH  12  14
BRANCH  13  17
HETATM   17  O1  UNL     1      23.760  -0.091  54.504  1.00  0.00    -0.358 OA
HETATM   18  H16 UNL     1      23.201  -0.399  55.297  1.00  0.00     0.217 HD
ENDBRANCH  13  17
ENDBRANCH   6   7
ENDBRANCH   1   6
BRANCH   1  19
HETATM   19  C12 UNL     1      26.461   0.286  52.320  1.00  0.00     0.163 C 
BRANCH  19  20
HETATM   20  C13 UNL     1      27.066  -0.440  53.465  1.00  0.00     0.109 A 
HETATM   21  C14 UNL     1      28.376  -1.064  53.030  1.00  0.00     0.016 A 
HETATM   22  C15 UNL     1      29.404  -0.692  53.777  1.00  0.00    -0.001 A 
HETATM   23  C16 UNL     1      28.854   0.230  54.797  1.00  0.00    -0.001 A 
HETATM   24  C17 UNL     1      27.527   0.356  54.599  1.00  0.00     0.016 A 
BRANCH  20  25
HETATM   25  O2  UNL     1      26.268  -1.539  53.814  1.00  0.00    -0.380 OA
HETATM   26  H19 UNL     1      25.323  -1.254  53.622  1.00  0.00     0.211 HD
ENDBRANCH  20  25
ENDBRANCH  19  20
ENDBRANCH   1  19
TORSDOF 10
ENDMDL
MODEL 5
REMARK VINA RESULT:      -6.5      2.836      5.846
REMARK  10 active torsions:
REMARK  status: ('A' for Active; 'I' for Inactive)
REMARK    1  A    between atoms: C2_2  and  C3_3 
REMARK    2  A    between atoms: C3_3  and  C4_4 
REMARK    3  A    between atoms: C4_4  and  N1_5 
REMARK    4  A    between atoms: N1_5  and  C5_6 
REMARK    5  A    between atoms: N1_5  and  C12_16 
REMARK    6  A    between atoms: C5_6  and  C6_7 
REMARK    7  A    between atoms: C10_12  and  N2_13 
REMARK    8  A    between atoms: C11_14  and  O1_15 
REMARK    9  A    between atoms: C12_16  and  C13_17 
REMARK   10  A    between atoms: C13_17  and  O2_18 
ROOT
HETATM    1  N1  UNL     1      24.403   4.389  49.589  1.00  0.00    -0.405 N 
ENDROOT
BRANCH   1   2
HETATM    2  C4  UNL     1      23.549   4.449  48.474  1.00  0.00     0.117 C 
BRANCH   2   3
HETATM    3  C3  UNL     1      22.248   3.660  48.670  1.00  0.00     0.019 C 
BRANCH   3   4
HETATM    4  C2  UNL     1      22.340   2.440  47.774  1.00  0.00    -0.003 C 
HETATM    5  C1  UNL     1      21.697   1.270  48.469  1.00  0.00     0.005 C 
ENDBRANCH   3   4
ENDBRANCH   2   3
ENDBRANCH   1   2
BRANCH   1   6
HETATM    6  C5  UNL     1      25.243   3.245  49.678  1.00  0.00     0.158 C 
BRANCH   6   7
HETATM    7  C6  UNL     1      25.216   2.526  50.965  1.00  0.00    -0.004 A 
HETATM    8  C7  UNL     1      24.043   1.840  51.303  1.00  0.00     0.030 A 
HETATM    9  C8  UNL     1      23.853   1.114  52.458  1.00  0.00     0.013 A 
HETATM   10 BR1  UNL     1      22.165   0.233  52.750  1.00  0.00    -0.051 Br
HETATM   11  C9  UNL     1      24.902   1.047  53.372  1.00  0.00     0.051 A 
HETATM   12  C10 UNL     1      26.066   1.720  53.050  1.00  0.00     0.061 A 
HETATM   13  C11 UNL     1      26.225   2.431  51.899  1.00  0.00     0.099 A 
BRANCH  12  14
HETATM   14  N2  UNL     1      27.112   1.627  54.010  1.00  0.00    -0.397 N 
HETATM   15  H14 UNL     1      28.023   2.063  53.738  1.00  0.00     0.156 HD
HETATM   16  H15 UNL     1      27.033   1.159  54.959  1.00  0.00     0.156 HD
ENDBRANCH  12  14
BRANCH  13  17
HETATM   17  O1  UNL     1      27.400   3.102  51.592  1.00  0.00    -0.358 OA
HETATM   18  H16 UNL     1      27.975   2.847  50.792  1.00  0.00     0.217 HD
ENDBRANCH  13  17
ENDBRANCH   6   7
ENDBRANCH   1   6
BRANCH   1  19
HETATM   19  C12 UNL     1      24.774   5.524  50.293  1.00  0.00     0.163 C 
BRANCH  19  20
HETATM   20  C13 UNL     1      23.850   6.052  51.329  1.00  0.00     0.109 A 
HETATM   21  C14 UNL     1      22.845   6.981  50.681  1.00  0.00     0.016 A 
HETATM   22  C15 UNL     1      21.589   6.630  50.907  1.00  0.00    -0.001 A 
HETATM   23  C16 UNL     1      21.652   5.409  51.743  1.00  0.00    -0.001 A 
HETATM   24  C17 UNL     1      22.944   5.103  51.969  1.00  0.00     0.016 A 
BRANCH  20  25
HETATM   25  O2  UNL     1      24.550   6.878  52.221  1.00  0.00    -0.380 OA
HETATM   26  H19 UNL     1      23.843   7.354  52.755  1.00  0.00     0.211 HD
ENDBRANCH  20  25
ENDBRANCH  19  20
ENDBRANCH   1  19
TORSDOF 10
ENDMDL
MODEL 6
REMARK VINA RESULT:      -6.5      1.887      2.126
REMARK  10 active torsions:
REMARK  status: ('A' for Active; 'I' for Inactive)
REMARK    1  A    between atoms: C2_2  and  C3_3 
REMARK    2  A    between atoms: C3_3  and  C4_4 
REMARK    3  A    between atoms: C4_4  and  N1_5 
REMARK    4  A    between atoms: N1_5  and  C5_6 
REMARK    5  A    between atoms: N1_5  and  C12_16 
REMARK    6  A    between atoms: C5_6  and  C6_7 
REMARK    7  A    between atoms: C10_12  and  N2_13 
REMARK    8  A    between atoms: C11_14  and  O1_15 
REMARK    9  A    between atoms: C12_16  and  C13_17 
REMARK   10  A    between atoms: C13_17  and  O2_18 
ROOT
HETATM    1  N1  UNL     1      24.739   1.989  52.934  1.00  0.00    -0.405 N 
ENDROOT
BRANCH   1   2
HETATM    2  C4  UNL     1      24.391   0.713  52.457  1.00  0.00     0.117 C 
BRANCH   2   3
HETATM    3  C3  UNL     1      24.097  -0.288  53.581  1.00  0.00     0.019 C 
BRANCH   3   4
HETATM    4  C2  UNL     1      22.611  -0.588  53.518  1.00  0.00    -0.003 C 
HETATM    5  C1  UNL     1      22.144  -1.042  54.874  1.00  0.00     0.005 C 
ENDBRANCH   3   4
ENDBRANCH   2   3
ENDBRANCH   1   2
BRANCH   1   6
HETATM    6  C5  UNL     1      23.670   2.910  53.105  1.00  0.00     0.158 C 
BRANCH   6   7
HETATM    7  C6  UNL     1      23.563   3.969  52.085  1.00  0.00    -0.004 A 
HETATM    8  C7  UNL     1      23.191   3.591  50.790  1.00  0.00     0.030 A 
HETATM    9  C8  UNL     1      23.037   4.451  49.725  1.00  0.00     0.013 A 
HETATM   10 BR1  UNL     1      22.516   3.743  48.011  1.00  0.00    -0.051 Br
HETATM   11  C9  UNL     1      23.266   5.808  49.938  1.00  0.00     0.051 A 
HETATM   12  C10 UNL     1      23.634   6.195  51.212  1.00  0.00     0.061 A 
HETATM   13  C11 UNL     1      23.779   5.321  52.248  1.00  0.00     0.099 A 
BRANCH  12  14
HETATM   14  N2  UNL     1      23.860   7.590  51.388  1.00  0.00    -0.397 N 
HETATM   15  H14 UNL     1      23.045   8.144  51.737  1.00  0.00     0.156 HD
HETATM   16  H15 UNL     1      24.775   8.090  51.195  1.00  0.00     0.156 HD
ENDBRANCH  12  14
BRANCH  13  17
HETATM   17  O1  UNL     1      24.150   5.727  53.522  1.00  0.00    -0.358 OA
HETATM   18  H16 UNL     1      23.664   5.402  54.355  1.00  0.00     0.217 HD
ENDBRANCH  13  17
ENDBRANCH   6   7
ENDBRANCH   1   6
BRANCH   1  19
HETATM   19  C12 UNL     1      25.912   2.217  53.637  1.00  0.00     0.163 C 
BRANCH  19  20
HETATM   20  C13 UNL     1      27.209   1.953  52.962  1.00  0.00     0.109 A 
HETATM   21  C14 UNL     1      28.343   2.408  53.856  1.00  0.00     0.016 A 
HETATM   22  C15 UNL     1      29.217   1.449  54.119  1.00  0.00    -0.001 A 
HETATM   23  C16 UNL     1      28.728   0.246  53.407  1.00  0.00    -0.001 A 
HETATM   24  C17 UNL     1      27.589   0.558  52.758  1.00  0.00     0.016 A 
BRANCH  20  25
HETATM   25  O2  UNL     1      27.331   2.760  51.822  1.00  0.00    -0.380 OA
HETATM   26  H19 UNL     1      26.991   3.665  52.099  1.00  0.00     0.211 HD
ENDBRANCH  20  25
ENDBRANCH  19  20
ENDBRANCH   1  19
TORSDOF 10
ENDMDL
MODEL 7
REMARK VINA RESULT:      -6.5      2.260      2.813
REMARK  10 active torsions:
REMARK  status: ('A' for Active; 'I' for Inactive)
REMARK    1  A    between atoms: C2_2  and  C3_3 
REMARK    2  A    between atoms: C3_3  and  C4_4 
REMARK    3  A    between atoms: C4_4  and  N1_5 
REMARK    4  A    between atoms: N1_5  and  C5_6 
REMARK    5  A    between atoms: N1_5  and  C12_16 
REMARK    6  A    between atoms: C5_6  and  C6_7 
REMARK    7  A    between atoms: C10_12  and  N2_13 
REMARK    8  A    between atoms: C11_14  and  O1_15 
REMARK    9  A    between atoms: C12_16  and  C13_17 
REMARK   10  A    between atoms: C13_17  and  O2_18 
ROOT
HETATM    1  N1  UNL     1      25.268   1.052  52.426  1.00  0.00    -0.405 N 
ENDROOT
BRANCH   1   2
HETATM    2  C4  UNL     1      24.214   0.875  53.339  1.00  0.00     0.117 C 
BRANCH   2   3
HETATM    3  C3  UNL     1      23.155  -0.121  52.849  1.00  0.00     0.019 C 
BRANCH   3   4
HETATM    4  C2  UNL     1      21.880   0.671  52.631  1.00  0.00    -0.003 C 
HETATM    5  C1  UNL     1      21.275   0.273  51.312  1.00  0.00     0.005 C 
ENDBRANCH   3   4
ENDBRANCH   2   3
ENDBRANCH   1   2
BRANCH   1   6
HETATM    6  C5  UNL     1      25.528   2.388  52.017  1.00  0.00     0.158 C 
BRANCH   6   7
HETATM    7  C6  UNL     1      24.394   3.106  51.405  1.00  0.00    -0.004 A 
HETATM    8  C7  UNL     1      23.911   2.635  50.178  1.00  0.00     0.030 A 
HETATM    9  C8  UNL     1      22.859   3.181  49.478  1.00  0.00     0.013 A 
HETATM   10 BR1  UNL     1      22.333   2.391  47.801  1.00  0.00    -0.051 Br
HETATM   11  C9  UNL     1      22.213   4.290  50.019  1.00  0.00     0.051 A 
HETATM   12  C10 UNL     1      22.681   4.766  51.229  1.00  0.00     0.061 A 
HETATM   13  C11 UNL     1      23.726   4.205  51.901  1.00  0.00     0.099 A 
BRANCH  12  14
HETATM   14  N2  UNL     1      21.996   5.901  51.747  1.00  0.00    -0.397 N 
HETATM   15  H14 UNL     1      21.026   6.052  51.388  1.00  0.00     0.156 HD
HETATM   16  H15 UNL     1      22.393   6.585  52.454  1.00  0.00     0.156 HD
ENDBRANCH  12  14
BRANCH  13  17
HETATM   17  O1  UNL     1      24.183   4.696  53.115  1.00  0.00    -0.358 OA
HETATM   18  H16 UNL     1      24.203   4.124  53.956  1.00  0.00     0.217 HD
ENDBRANCH  13  17
ENDBRANCH   6   7
ENDBRANCH   1   6
BRANCH   1  19
HETATM   19  C12 UNL     1      26.285   0.120  52.288  1.00  0.00     0.163 C 
BRANCH  19  20
HETATM   20  C13 UNL     1      26.989  -0.352  53.507  1.00  0.00     0.109 A 
HETATM   21  C14 UNL     1      28.233  -1.117  53.106  1.00  0.00     0.016 A 
HETATM   22  C15 UNL     1      29.340  -0.631  53.645  1.00  0.00    -0.001 A 
HETATM   23  C16 UNL     1      28.918   0.524  54.470  1.00  0.00    -0.001 A 
HETATM   24  C17 UNL     1      27.581   0.661  54.376  1.00  0.00     0.016 A 
BRANCH  20  25
HETATM   25  O2  UNL     1      26.206  -1.305  54.176  1.00  0.00    -0.380 OA
HETATM   26  H19 UNL     1      25.350  -1.362  53.652  1.00  0.00     0.211 HD
ENDBRANCH  20  25
ENDBRANCH  19  20
ENDBRANCH   1  19
TORSDOF 10
ENDMDL
MODEL 8
REMARK VINA RESULT:      -6.3      2.845      6.443
REMARK  10 active torsions:
REMARK  status: ('A' for Active; 'I' for Inactive)
REMARK    1  A    between atoms: C2_2  and  C3_3 
REMARK    2  A    between atoms: C3_3  and  C4_4 
REMARK    3  A    between atoms: C4_4  and  N1_5 
REMARK    4  A    between atoms: N1_5  and  C5_6 
REMARK    5  A    between atoms: N1_5  and  C12_16 
REMARK    6  A    between atoms: C5_6  and  C6_7 
REMARK    7  A    between atoms: C10_12  and  N2_13 
REMARK    8  A    between atoms: C11_14  and  O1_15 
REMARK    9  A    between atoms: C12_16  and  C13_17 
REMARK   10  A    between atoms: C13_17  and  O2_18 
ROOT
HETATM    1  N1  UNL     1      23.970   3.450  51.341  1.00  0.00    -0.405 N 
ENDROOT
BRANCH   1   2
HETATM    2  C4  UNL     1      24.875   3.012  50.359  1.00  0.00     0.117 C 
BRANCH   2   3
HETATM    3  C3  UNL     1      25.393   4.151  49.470  1.00  0.00     0.019 C 
BRANCH   3   4
HETATM    4  C2  UNL     1      26.894   3.963  49.356  1.00  0.00    -0.003 C 
HETATM    5  C1  UNL     1      27.480   5.134  48.613  1.00  0.00     0.005 C 
ENDBRANCH   3   4
ENDBRANCH   2   3
ENDBRANCH   1   2
BRANCH   1   6
HETATM    6  C5  UNL     1      24.437   3.422  52.684  1.00  0.00     0.158 C 
BRANCH   6   7
HETATM    7  C6  UNL     1      24.720   2.086  53.239  1.00  0.00    -0.004 A 
HETATM    8  C7  UNL     1      23.699   1.129  53.187  1.00  0.00     0.030 A 
HETATM    9  C8  UNL     1      23.798  -0.164  53.651  1.00  0.00     0.013 A 
HETATM   10 BR1  UNL     1      22.282  -1.341  53.490  1.00  0.00    -0.051 Br
HETATM   11  C9  UNL     1      25.004  -0.567  54.219  1.00  0.00     0.051 A 
HETATM   12  C10 UNL     1      26.020   0.367  54.277  1.00  0.00     0.061 A 
HETATM   13  C11 UNL     1      25.893   1.642  53.810  1.00  0.00     0.099 A 
BRANCH  12  14
HETATM   14  N2  UNL     1      27.235  -0.084  54.866  1.00  0.00    -0.397 N 
HETATM   15  H14 UNL     1      27.231  -0.177  55.907  1.00  0.00     0.156 HD
HETATM   16  H15 UNL     1      28.120  -0.325  54.334  1.00  0.00     0.156 HD
ENDBRANCH  12  14
BRANCH  13  17
HETATM   17  O1  UNL     1      26.924   2.568  53.877  1.00  0.00    -0.358 OA
HETATM   18  H16 UNL     1      27.566   2.605  54.666  1.00  0.00     0.217 HD
ENDBRANCH  13  17
ENDBRANCH   6   7
ENDBRANCH   1   6
BRANCH   1  19
HETATM   19  C12 UNL     1      22.905   4.285  51.040  1.00  0.00     0.163 C 
BRANCH  19  20
HETATM   20  C13 UNL     1      21.574   3.677  50.783  1.00  0.00     0.109 A 
HETATM   21  C14 UNL     1      21.758   2.327  50.123  1.00  0.00     0.016 A 
HETATM   22  C15 UNL     1      21.173   1.340  50.783  1.00  0.00    -0.001 A 
HETATM   23  C16 UNL     1      20.536   1.963  51.966  1.00  0.00    -0.001 A 
HETATM   24  C17 UNL     1      20.778   3.288  51.943  1.00  0.00     0.016 A 
BRANCH  20  25
HETATM   25  O2  UNL     1      20.878   4.430  49.827  1.00  0.00    -0.380 OA
HETATM   26  H19 UNL     1      20.833   3.847  49.009  1.00  0.00     0.211 HD
ENDBRANCH  20  25
ENDBRANCH  19  20
ENDBRANCH   1  19
TORSDOF 10
ENDMDL
MODEL 9
REMARK VINA RESULT:      -6.2      2.564      4.646
REMARK  10 active torsions:
REMARK  status: ('A' for Active; 'I' for Inactive)
REMARK    1  A    between atoms: C2_2  and  C3_3 
REMARK    2  A    between atoms: C3_3  and  C4_4 
REMARK    3  A    between atoms: C4_4  and  N1_5 
REMARK    4  A    between atoms: N1_5  and  C5_6 
REMARK    5  A    between atoms: N1_5  and  C12_16 
REMARK    6  A    between atoms: C5_6  and  C6_7 
REMARK    7  A    between atoms: C10_12  and  N2_13 
REMARK    8  A    between atoms: C11_14  and  O1_15 
REMARK    9  A    between atoms: C12_16  and  C13_17 
REMARK   10  A    between atoms: C13_17  and  O2_18 
ROOT
HETATM    1  N1  UNL     1      25.038   0.158  53.136  1.00  0.00    -0.405 N 
ENDROOT
BRANCH   1   2
HETATM    2  C4  UNL     1      26.259  -0.481  52.862  1.00  0.00     0.117 C 
BRANCH   2   3
HETATM    3  C3  UNL     1      27.270  -0.361  54.010  1.00  0.00     0.019 C 
BRANCH   3   4
HETATM    4  C2  UNL     1      28.625  -0.119  53.373  1.00  0.00    -0.003 C 
HETATM    5  C1  UNL     1      29.438  -1.382  53.453  1.00  0.00     0.005 C 
ENDBRANCH   3   4
ENDBRANCH   2   3
ENDBRANCH   1   2
BRANCH   1   6
HETATM    6  C5  UNL     1      25.067   1.579  53.181  1.00  0.00     0.158 C 
BRANCH   6   7
HETATM    7  C6  UNL     1      25.077   2.264  51.876  1.00  0.00    -0.004 A 
HETATM    8  C7  UNL     1      23.878   2.310  51.155  1.00  0.00     0.030 A 
HETATM    9  C8  UNL     1      23.711   2.915  49.929  1.00  0.00     0.013 A 
HETATM   10 BR1  UNL     1      21.978   2.877  49.088  1.00  0.00    -0.051 Br
HETATM   11  C9  UNL     1      24.814   3.535  49.347  1.00  0.00     0.051 A 
HETATM   12  C10 UNL     1      26.005   3.496  50.047  1.00  0.00     0.061 A 
HETATM   13  C11 UNL     1      26.140   2.890  51.260  1.00  0.00     0.099 A 
BRANCH  12  14
HETATM   14  N2  UNL     1      27.107   4.140  49.417  1.00  0.00    -0.397 N 
HETATM   15  H14 UNL     1      28.033   3.665  49.521  1.00  0.00     0.156 HD
HETATM   16  H15 UNL     1      27.054   5.044  48.865  1.00  0.00     0.156 HD
ENDBRANCH  12  14
BRANCH  13  17
HETATM   17  O1  UNL     1      27.343   2.860  51.950  1.00  0.00    -0.358 OA
HETATM   18  H16 UNL     1      27.949   3.676  52.016  1.00  0.00     0.217 HD
ENDBRANCH  13  17
ENDBRANCH   6   7
ENDBRANCH   1   6
BRANCH   1  19
HETATM   19  C12 UNL     1      23.818  -0.460  52.910  1.00  0.00     0.163 C 
BRANCH  19  20
HETATM   20  C13 UNL     1      22.989  -0.848  54.079  1.00  0.00     0.109 A 
HETATM   21  C14 UNL     1      22.075   0.301  54.451  1.00  0.00     0.016 A 
HETATM   22  C15 UNL     1      20.794  -0.036  54.465  1.00  0.00    -0.001 A 
HETATM   23  C16 UNL     1      20.746  -1.469  54.096  1.00  0.00    -0.001 A 
HETATM   24  C17 UNL     1      22.002  -1.906  53.883  1.00  0.00     0.016 A 
BRANCH  20  25
HETATM   25  O2  UNL     1      23.801  -1.015  55.210  1.00  0.00    -0.380 OA
HETATM   26  H19 UNL     1      24.709  -0.678  54.939  1.00  0.00     0.211 HD
ENDBRANCH  20  25
ENDBRANCH  19  20
ENDBRANCH   1  19
TORSDOF 10
ENDMDL
