MODEL 1
REMARK VINA RESULT:      -5.8      0.000      0.000
REMARK  5 active torsions:
REMARK  status: ('A' for Active; 'I' for Inactive)
REMARK    1  A    between atoms: N1_3  and  C3_4 
REMARK    2  A    between atoms: C3_4  and  C4_5 
REMARK    3  A    between atoms: C4_5  and  C5_6 
REMARK    4  A    between atoms: C11_14  and  N4_15 
REMARK    5  A    between atoms: N4_15  and  C12_16 
ROOT
HETATM    1  C1  UNL     1      29.621   0.169  53.896  1.00  0.00     0.056 C 
HETATM    2  C2  UNL     1      28.275   0.645  54.287  1.00  0.00     0.241 C 
HETATM    3  N1  UNL     1      27.131   1.134  54.485  1.00  0.00    -0.424 NA
ENDROOT
BRANCH   3   4
HETATM    4  C3  UNL     1      26.462   2.056  53.578  1.00  0.00     0.114 C 
BRANCH   4   5
HETATM    5  C4  UNL     1      25.032   1.685  53.519  1.00  0.00     0.088 C 
BRANCH   5   6
HETATM    6  C5  UNL     1      24.204   2.487  52.538  1.00  0.00     0.076 C 
HETATM    7  N2  UNL     1      24.046   3.584  52.951  1.00  0.00    -0.436 NA
HETATM    8  C6  UNL     1      23.828   4.831  53.354  1.00  0.00     0.337 C 
HETATM    9  N3  UNL     1      23.828   5.855  52.236  1.00  0.00    -0.381 N 
HETATM   10  C7  UNL     1      23.175   4.883  51.347  1.00  0.00     0.086 A 
HETATM   11  H11 UNL     1      24.222   6.842  52.341  1.00  0.00     0.157 HD
HETATM   12  C8  UNL     1      24.431   4.746  50.819  1.00  0.00     0.076 A 
HETATM   13  C13 UNL     1      21.881   4.756  51.739  1.00  0.00     0.017 A 
HETATM   14  C11 UNL     1      22.163   3.627  51.012  1.00  0.00     0.107 A 
HETATM   15  C10 UNL     1      23.410   3.480  50.482  1.00  0.00     0.082 A 
HETATM   16  C9  UNL     1      24.703   3.617  50.090  1.00  0.00    -0.009 A 
HETATM   17  N5  UNL     1      23.035   2.073  50.385  1.00  0.00    -0.401 N 
HETATM   18  C14 UNL     1      23.933   1.543  51.404  1.00  0.00     0.182 C 
HETATM   19  H17 UNL     1      22.430   1.324  49.913  1.00  0.00     0.154 HD
BRANCH  14  20
HETATM   20  N4  UNL     1      20.865   3.115  51.184  1.00  0.00    -0.350 N 
HETATM   21  H14 UNL     1      20.195   3.009  50.371  1.00  0.00     0.163 HD
BRANCH  20  22
HETATM   22  C12 UNL     1      20.407   2.725  52.492  1.00  0.00     0.349 C 
HETATM   23  O1  UNL     1      20.743   1.521  52.747  1.00  0.00    -0.284 OA
ENDBRANCH  20  22
ENDBRANCH  14  20
ENDBRANCH   5   6
ENDBRANCH   4   5
ENDBRANCH   3   4
TORSDOF 5
ENDMDL
MODEL 2
REMARK VINA RESULT:      -5.7      2.082      3.109
REMARK  5 active torsions:
REMARK  status: ('A' for Active; 'I' for Inactive)
REMARK    1  A    between atoms: N1_3  and  C3_4 
REMARK    2  A    between atoms: C3_4  and  C4_5 
REMARK    3  A    between atoms: C4_5  and  C5_6 
REMARK    4  A    between atoms: C11_14  and  N4_15 
REMARK    5  A    between atoms: N4_15  and  C12_16 
ROOT
HETATM    1  C1  UNL     1      29.073  -0.692  53.812  1.00  0.00     0.056 C 
HETATM    2  C2  UNL     1      27.941   0.110  54.330  1.00  0.00     0.241 C 
HETATM    3  N1  UNL     1      26.998   0.884  54.644  1.00  0.00    -0.424 NA
ENDROOT
BRANCH   3   4
HETATM    4  C3  UNL     1      26.597   2.049  53.866  1.00  0.00     0.114 C 
BRANCH   4   5
HETATM    5  C4  UNL     1      25.268   1.772  53.280  1.00  0.00     0.088 C 
BRANCH   5   6
HETATM    6  C5  UNL     1      24.785   2.801  52.280  1.00  0.00     0.076 C 
HETATM    7  N2  UNL     1      25.623   2.993  51.468  1.00  0.00    -0.436 NA
HETATM    8  C6  UNL     1      26.520   3.259  50.523  1.00  0.00     0.337 C 
HETATM    9  N3  UNL     1      25.921   3.511  49.153  1.00  0.00    -0.381 N 
HETATM   10  C7  UNL     1      24.782   4.199  49.778  1.00  0.00     0.086 A 
HETATM   11  H11 UNL     1      26.381   3.195  48.243  1.00  0.00     0.157 HD
HETATM   12  C8  UNL     1      24.124   3.026  49.519  1.00  0.00     0.076 A 
HETATM   13  C13 UNL     1      25.213   5.407  50.227  1.00  0.00     0.017 A 
HETATM   14  C11 UNL     1      24.064   5.135  50.928  1.00  0.00     0.107 A 
HETATM   15  C10 UNL     1      23.402   3.971  50.680  1.00  0.00     0.082 A 
HETATM   16  C9  UNL     1      22.975   2.766  50.221  1.00  0.00    -0.009 A 
HETATM   17  N5  UNL     1      22.777   4.231  51.972  1.00  0.00    -0.401 N 
HETATM   18  C14 UNL     1      23.397   3.151  52.729  1.00  0.00     0.182 C 
HETATM   19  H17 UNL     1      22.102   4.831  52.551  1.00  0.00     0.154 HD
BRANCH  14  20
HETATM   20  N4  UNL     1      24.139   6.345  51.641  1.00  0.00    -0.350 N 
HETATM   21  H14 UNL     1      24.450   6.377  52.653  1.00  0.00     0.163 HD
BRANCH  20  22
HETATM   22  C12 UNL     1      23.784   7.585  51.003  1.00  0.00     0.349 C 
HETATM   23  O1  UNL     1      22.528   7.639  50.789  1.00  0.00    -0.284 OA
ENDBRANCH  20  22
ENDBRANCH  14  20
ENDBRANCH   5   6
ENDBRANCH   4   5
ENDBRANCH   3   4
TORSDOF 5
ENDMDL
MODEL 3
REMARK VINA RESULT:      -5.6      2.912      4.514
REMARK  5 active torsions:
REMARK  status: ('A' for Active; 'I' for Inactive)
REMARK    1  A    between atoms: N1_3  and  C3_4 
REMARK    2  A    between atoms: C3_4  and  C4_5 
REMARK    3  A    between atoms: C4_5  and  C5_6 
REMARK    4  A    between atoms: C11_14  and  N4_15 
REMARK    5  A    between atoms: N4_15  and  C12_16 
ROOT
HETATM    1  C1  UNL     1      20.422  -0.563  53.509  1.00  0.00     0.056 C 
HETATM    2  C2  UNL     1      21.835  -0.525  53.950  1.00  0.00     0.241 C 
HETATM    3  N1  UNL     1      23.066  -0.413  54.191  1.00  0.00    -0.424 NA
ENDROOT
BRANCH   3   4
HETATM    4  C3  UNL     1      24.016   0.268  53.322  1.00  0.00     0.114 C 
BRANCH   4   5
HETATM    5  C4  UNL     1      23.316   0.625  52.070  1.00  0.00     0.088 C 
BRANCH   5   6
HETATM    6  C5  UNL     1      23.485   2.065  51.633  1.00  0.00     0.076 C 
HETATM    7  N2  UNL     1      23.078   2.199  50.531  1.00  0.00    -0.436 NA
HETATM    8  C6  UNL     1      22.640   2.421  49.296  1.00  0.00     0.337 C 
HETATM    9  N3  UNL     1      21.981   3.774  49.104  1.00  0.00    -0.381 N 
HETATM   10  C7  UNL     1      22.956   4.378  50.024  1.00  0.00     0.086 A 
HETATM   11  H11 UNL     1      21.137   3.933  48.470  1.00  0.00     0.157 HD
HETATM   12  C8  UNL     1      21.918   4.332  50.916  1.00  0.00     0.076 A 
HETATM   13  C13 UNL     1      24.152   4.449  49.384  1.00  0.00     0.017 A 
HETATM   14  C11 UNL     1      24.440   4.526  50.724  1.00  0.00     0.107 A 
HETATM   15  C10 UNL     1      23.415   4.481  51.621  1.00  0.00     0.082 A 
HETATM   16  C9  UNL     1      22.215   4.414  52.253  1.00  0.00    -0.009 A 
HETATM   17  N5  UNL     1      24.467   4.144  52.574  1.00  0.00    -0.401 N 
HETATM   18  C14 UNL     1      24.099   2.756  52.815  1.00  0.00     0.182 C 
HETATM   19  H17 UNL     1      25.326   4.465  53.130  1.00  0.00     0.154 HD
BRANCH  14  20
HETATM   20  N4  UNL     1      25.821   4.636  50.485  1.00  0.00    -0.350 N 
HETATM   21  H14 UNL     1      26.397   5.423  50.895  1.00  0.00     0.163 HD
BRANCH  20  22
HETATM   22  C12 UNL     1      26.492   3.667  49.658  1.00  0.00     0.349 C 
HETATM   23  O1  UNL     1      27.532   4.174  49.122  1.00  0.00    -0.284 OA
ENDBRANCH  20  22
ENDBRANCH  14  20
ENDBRANCH   5   6
ENDBRANCH   4   5
ENDBRANCH   3   4
TORSDOF 5
ENDMDL
MODEL 4
REMARK VINA RESULT:      -5.5      3.140      6.171
REMARK  5 active torsions:
REMARK  status: ('A' for Active; 'I' for Inactive)
REMARK    1  A    between atoms: N1_3  and  C3_4 
REMARK    2  A    between atoms: C3_4  and  C4_5 
REMARK    3  A    between atoms: C4_5  and  C5_6 
REMARK    4  A    between atoms: C11_14  and  N4_15 
REMARK    5  A    between atoms: N4_15  and  C12_16 
ROOT
HETATM    1  C1  UNL     1      22.865   2.441  51.948  1.00  0.00     0.056 C 
HETATM    2  C2  UNL     1      22.274   1.281  52.653  1.00  0.00     0.241 C 
HETATM    3  N1  UNL     1      21.916   0.230  53.247  1.00  0.00    -0.424 NA
ENDROOT
BRANCH   3   4
HETATM    4  C3  UNL     1      22.804  -0.882  53.560  1.00  0.00     0.114 C 
BRANCH   4   5
HETATM    5  C4  UNL     1      23.939  -0.841  52.614  1.00  0.00     0.088 C 
BRANCH   5   6
HETATM    6  C5  UNL     1      25.217  -0.255  53.177  1.00  0.00     0.076 C 
HETATM    7  N2  UNL     1      25.775   0.367  52.339  1.00  0.00    -0.436 NA
HETATM    8  C6  UNL     1      26.454   1.080  51.447  1.00  0.00     0.337 C 
HETATM    9  N3  UNL     1      27.142   2.302  52.024  1.00  0.00    -0.381 N 
HETATM   10  C7  UNL     1      27.439   1.554  53.254  1.00  0.00     0.086 A 
HETATM   11  H11 UNL     1      27.232   3.229  51.501  1.00  0.00     0.157 HD
HETATM   12  C8  UNL     1      26.391   2.272  53.766  1.00  0.00     0.076 A 
HETATM   13  C13 UNL     1      28.427   0.663  52.978  1.00  0.00     0.017 A 
HETATM   14  C11 UNL     1      27.809   0.197  54.112  1.00  0.00     0.107 A 
HETATM   15  C10 UNL     1      26.765   0.903  54.629  1.00  0.00     0.082 A 
HETATM   16  C9  UNL     1      25.782   1.800  54.901  1.00  0.00    -0.009 A 
HETATM   17  N5  UNL     1      26.465  -0.346  55.323  1.00  0.00    -0.401 N 
HETATM   18  C14 UNL     1      25.244  -0.698  54.610  1.00  0.00     0.182 C 
HETATM   19  H17 UNL     1      26.741  -1.053  56.080  1.00  0.00     0.154 HD
BRANCH  14  20
HETATM   20  N4  UNL     1      28.667  -0.913  54.198  1.00  0.00    -0.350 N 
HETATM   21  H14 UNL     1      29.203  -1.136  55.084  1.00  0.00     0.163 HD
BRANCH  20  22
HETATM   22  C12 UNL     1      28.844  -1.783  53.065  1.00  0.00     0.349 C 
HETATM   23  O1  UNL     1      28.021  -2.756  53.109  1.00  0.00    -0.284 OA
ENDBRANCH  20  22
ENDBRANCH  14  20
ENDBRANCH   5   6
ENDBRANCH   4   5
ENDBRANCH   3   4
TORSDOF 5
ENDMDL
MODEL 5
REMARK VINA RESULT:      -5.4      2.583      4.014
REMARK  5 active torsions:
REMARK  status: ('A' for Active; 'I' for Inactive)
REMARK    1  A    between atoms: N1_3  and  C3_4 
REMARK    2  A    between atoms: C3_4  and  C4_5 
REMARK    3  A    between atoms: C4_5  and  C5_6 
REMARK    4  A    between atoms: C11_14  and  N4_15 
REMARK    5  A    between atoms: N4_15  and  C12_16 
ROOT
HETATM    1  C1  UNL     1      26.811  -1.007  52.752  1.00  0.00     0.056 C 
HETATM    2  C2  UNL     1      26.559   0.447  52.868  1.00  0.00     0.241 C 
HETATM    3  N1  UNL     1      26.198   1.645  53.010  1.00  0.00    -0.424 NA
ENDROOT
BRANCH   3   4
HETATM    4  C3  UNL     1      24.864   2.059  53.426  1.00  0.00     0.114 C 
BRANCH   4   5
HETATM    5  C4  UNL     1      23.993   2.061  52.232  1.00  0.00     0.088 C 
BRANCH   5   6
HETATM    6  C5  UNL     1      23.868   3.399  51.535  1.00  0.00     0.076 C 
HETATM    7  N2  UNL     1      23.776   3.235  50.368  1.00  0.00    -0.436 NA
HETATM    8  C6  UNL     1      23.669   3.125  49.047  1.00  0.00     0.337 C 
HETATM    9  N3  UNL     1      22.741   4.142  48.412  1.00  0.00    -0.381 N 
HETATM   10  C7  UNL     1      23.196   5.157  49.373  1.00  0.00     0.086 A 
HETATM   11  H11 UNL     1      22.106   3.921  47.581  1.00  0.00     0.157 HD
HETATM   12  C8  UNL     1      22.001   4.894  49.989  1.00  0.00     0.076 A 
HETATM   13  C13 UNL     1      24.455   5.531  49.026  1.00  0.00     0.017 A 
HETATM   14  C11 UNL     1      24.309   5.885  50.344  1.00  0.00     0.107 A 
HETATM   15  C10 UNL     1      23.126   5.629  50.967  1.00  0.00     0.082 A 
HETATM   16  C9  UNL     1      21.864   5.256  51.304  1.00  0.00    -0.009 A 
HETATM   17  N5  UNL     1      23.908   5.796  52.187  1.00  0.00    -0.401 N 
HETATM   18  C14 UNL     1      23.892   4.412  52.642  1.00  0.00     0.182 C 
HETATM   19  H17 UNL     1      24.442   6.458  52.841  1.00  0.00     0.154 HD
BRANCH  14  20
HETATM   20  N4  UNL     1      25.612   6.412  50.411  1.00  0.00    -0.350 N 
HETATM   21  H14 UNL     1      26.424   5.843  50.783  1.00  0.00     0.163 HD
BRANCH  20  22
HETATM   22  C12 UNL     1      25.872   7.759  49.975  1.00  0.00     0.349 C 
HETATM   23  O1  UNL     1      25.038   8.571  50.496  1.00  0.00    -0.284 OA
ENDBRANCH  20  22
ENDBRANCH  14  20
ENDBRANCH   5   6
ENDBRANCH   4   5
ENDBRANCH   3   4
TORSDOF 5
ENDMDL
MODEL 6
REMARK VINA RESULT:      -5.2      2.885      5.763
REMARK  5 active torsions:
REMARK  status: ('A' for Active; 'I' for Inactive)
REMARK    1  A    between atoms: N1_3  and  C3_4 
REMARK    2  A    between atoms: C3_4  and  C4_5 
REMARK    3  A    between atoms: C4_5  and  C5_6 
REMARK    4  A    between atoms: C11_14  and  N4_15 
REMARK    5  A    between atoms: N4_15  and  C12_16 
ROOT
HETATM    1  C1  UNL     1      21.866   5.323  45.826  1.00  0.00     0.056 C 
HETATM    2  C2  UNL     1      21.883   3.940  46.355  1.00  0.00     0.241 C 
HETATM    3  N1  UNL     1      21.817   2.821  46.928  1.00  0.00    -0.424 NA
ENDROOT
BRANCH   3   4
HETATM    4  C3  UNL     1      21.158   2.589  48.207  1.00  0.00     0.114 C 
BRANCH   4   5
HETATM    5  C4  UNL     1      21.635   1.295  48.739  1.00  0.00     0.088 C 
BRANCH   5   6
HETATM    6  C5  UNL     1      21.814   1.250  50.242  1.00  0.00     0.076 C 
HETATM    7  N2  UNL     1      22.862   1.715  50.534  1.00  0.00    -0.436 NA
HETATM    8  C6  UNL     1      24.023   2.224  50.933  1.00  0.00     0.337 C 
HETATM    9  N3  UNL     1      23.951   2.987  52.241  1.00  0.00    -0.381 N 
HETATM   10  C7  UNL     1      22.969   2.019  52.750  1.00  0.00     0.086 A 
HETATM   11  H11 UNL     1      24.520   3.868  52.441  1.00  0.00     0.157 HD
HETATM   12  C8  UNL     1      22.067   3.010  52.467  1.00  0.00     0.076 A 
HETATM   13  C13 UNL     1      23.623   0.861  53.028  1.00  0.00     0.017 A 
HETATM   14  C11 UNL     1      22.300   0.520  52.892  1.00  0.00     0.107 A 
HETATM   15  C10 UNL     1      21.395   1.497  52.610  1.00  0.00     0.082 A 
HETATM   16  C9  UNL     1      20.748   2.660  52.338  1.00  0.00    -0.009 A 
HETATM   17  N5  UNL     1      20.550   0.381  52.196  1.00  0.00    -0.401 N 
HETATM   18  C14 UNL     1      20.548   0.637  50.761  1.00  0.00     0.182 C 
HETATM   19  H17 UNL     1      19.972  -0.476  52.482  1.00  0.00     0.154 HD
BRANCH  14  20
HETATM   20  N4  UNL     1      22.559  -0.838  53.151  1.00  0.00    -0.350 N 
HETATM   21  H14 UNL     1      22.777  -1.522  52.372  1.00  0.00     0.163 HD
BRANCH  20  22
HETATM   22  C12 UNL     1      22.529  -1.337  54.501  1.00  0.00     0.349 C 
HETATM   23  O1  UNL     1      21.418  -1.057  55.061  1.00  0.00    -0.284 OA
ENDBRANCH  20  22
ENDBRANCH  14  20
ENDBRANCH   5   6
ENDBRANCH   4   5
ENDBRANCH   3   4
TORSDOF 5
ENDMDL
MODEL 7
REMARK VINA RESULT:      -5.2      8.349     10.533
REMARK  5 active torsions:
REMARK  status: ('A' for Active; 'I' for Inactive)
REMARK    1  A    between atoms: N1_3  and  C3_4 
REMARK    2  A    between atoms: C3_4  and  C4_5 
REMARK    3  A    between atoms: C4_5  and  C5_6 
REMARK    4  A    between atoms: C11_14  and  N4_15 
REMARK    5  A    between atoms: N4_15  and  C12_16 
ROOT
HETATM    1  C1  UNL     1      29.169  14.284  46.346  1.00  0.00     0.056 C 
HETATM    2  C2  UNL     1      29.127  13.550  47.631  1.00  0.00     0.241 C 
HETATM    3  N1  UNL     1      29.243  12.890  48.697  1.00  0.00    -0.424 NA
ENDROOT
BRANCH   3   4
HETATM    4  C3  UNL     1      30.468  12.229  49.127  1.00  0.00     0.114 C 
BRANCH   4   5
HETATM    5  C4  UNL     1      30.938  11.371  48.018  1.00  0.00     0.088 C 
BRANCH   5   6
HETATM    6  C5  UNL     1      30.358   9.973  48.004  1.00  0.00     0.076 C 
HETATM    7  N2  UNL     1      29.679   9.832  47.046  1.00  0.00    -0.436 NA
HETATM    8  C6  UNL     1      28.900   9.604  45.993  1.00  0.00     0.337 C 
HETATM    9  N3  UNL     1      29.001   8.196  45.439  1.00  0.00    -0.381 N 
HETATM   10  C7  UNL     1      29.143   7.670  46.804  1.00  0.00     0.086 A 
HETATM   11  H11 UNL     1      28.951   7.968  44.397  1.00  0.00     0.157 HD
HETATM   12  C8  UNL     1      30.468   7.576  46.470  1.00  0.00     0.076 A 
HETATM   13  C13 UNL     1      27.932   7.748  47.415  1.00  0.00     0.017 A 
HETATM   14  C11 UNL     1      28.855   7.658  48.426  1.00  0.00     0.107 A 
HETATM   15  C10 UNL     1      30.175   7.565  48.105  1.00  0.00     0.082 A 
HETATM   16  C9  UNL     1      31.382   7.483  47.488  1.00  0.00    -0.009 A 
HETATM   17  N5  UNL     1      30.383   7.981  49.488  1.00  0.00    -0.401 N 
HETATM   18  C14 UNL     1      30.913   9.314  49.232  1.00  0.00     0.182 C 
HETATM   19  H17 UNL     1      30.319   7.736  50.531  1.00  0.00     0.154 HD
BRANCH  14  20
HETATM   20  N4  UNL     1      27.862   7.705  49.421  1.00  0.00    -0.350 N 
HETATM   21  H14 UNL     1      27.688   6.890  50.074  1.00  0.00     0.163 HD
BRANCH  20  22
HETATM   22  C12 UNL     1      27.042   8.879  49.571  1.00  0.00     0.349 C 
HETATM   23  O1  UNL     1      27.423   9.571  50.573  1.00  0.00    -0.284 OA
ENDBRANCH  20  22
ENDBRANCH  14  20
ENDBRANCH   5   6
ENDBRANCH   4   5
ENDBRANCH   3   4
TORSDOF 5
ENDMDL
MODEL 8
REMARK VINA RESULT:      -5.2      2.437      5.701
REMARK  5 active torsions:
REMARK  status: ('A' for Active; 'I' for Inactive)
REMARK    1  A    between atoms: N1_3  and  C3_4 
REMARK    2  A    between atoms: C3_4  and  C4_5 
REMARK    3  A    between atoms: C4_5  and  C5_6 
REMARK    4  A    between atoms: C11_14  and  N4_15 
REMARK    5  A    between atoms: N4_15  and  C12_16 
ROOT
HETATM    1  C1  UNL     1      22.946   8.117  48.819  1.00  0.00     0.056 C 
HETATM    2  C2  UNL     1      21.944   7.039  48.973  1.00  0.00     0.241 C 
HETATM    3  N1  UNL     1      21.116   6.134  49.259  1.00  0.00    -0.424 NA
ENDROOT
BRANCH   3   4
HETATM    4  C3  UNL     1      20.820   5.689  50.615  1.00  0.00     0.114 C 
BRANCH   4   5
HETATM    5  C4  UNL     1      22.057   5.805  51.415  1.00  0.00     0.088 C 
BRANCH   5   6
HETATM    6  C5  UNL     1      22.946   4.580  51.398  1.00  0.00     0.076 C 
HETATM    7  N2  UNL     1      22.330   3.635  51.756  1.00  0.00    -0.436 NA
HETATM    8  C6  UNL     1      21.700   2.532  52.148  1.00  0.00     0.337 C 
HETATM    9  N3  UNL     1      22.117   1.279  51.403  1.00  0.00    -0.381 N 
HETATM   10  C7  UNL     1      23.503   1.768  51.359  1.00  0.00     0.086 A 
HETATM   11  H11 UNL     1      21.439   0.496  51.143  1.00  0.00     0.157 HD
HETATM   12  C8  UNL     1      23.195   2.077  50.061  1.00  0.00     0.076 A 
HETATM   13  C13 UNL     1      24.030   1.655  52.606  1.00  0.00     0.017 A 
HETATM   14  C11 UNL     1      24.810   2.576  51.953  1.00  0.00     0.107 A 
HETATM   15  C10 UNL     1      24.512   2.892  50.662  1.00  0.00     0.082 A 
HETATM   16  C9  UNL     1      23.982   2.996  49.415  1.00  0.00    -0.009 A 
HETATM   17  N5  UNL     1      25.330   4.072  50.924  1.00  0.00    -0.401 N 
HETATM   18  C14 UNL     1      24.273   5.074  50.904  1.00  0.00     0.182 C 
HETATM   19  H17 UNL     1      26.306   4.479  51.105  1.00  0.00     0.154 HD
BRANCH  14  20
HETATM   20  N4  UNL     1      25.641   2.759  53.072  1.00  0.00    -0.350 N 
HETATM   21  H14 UNL     1      25.392   3.437  53.847  1.00  0.00     0.163 HD
BRANCH  20  22
HETATM   22  C12 UNL     1      26.871   2.022  53.189  1.00  0.00     0.349 C 
HETATM   23  O1  UNL     1      27.717   2.412  52.317  1.00  0.00    -0.284 OA
ENDBRANCH  20  22
ENDBRANCH  14  20
ENDBRANCH   5   6
ENDBRANCH   4   5
ENDBRANCH   3   4
TORSDOF 5
ENDMDL
MODEL 9
REMARK VINA RESULT:      -5.2      8.884     11.059
REMARK  5 active torsions:
REMARK  status: ('A' for Active; 'I' for Inactive)
REMARK    1  A    between atoms: N1_3  and  C3_4 
REMARK    2  A    between atoms: C3_4  and  C4_5 
REMARK    3  A    between atoms: C4_5  and  C5_6 
REMARK    4  A    between atoms: C11_14  and  N4_15 
REMARK    5  A    between atoms: N4_15  and  C12_16 
ROOT
HETATM    1  C1  UNL     1      25.954   8.132  46.830  1.00  0.00     0.056 C 
HETATM    2  C2  UNL     1      26.981   7.676  47.794  1.00  0.00     0.241 C 
HETATM    3  N1  UNL     1      27.960   7.364  48.522  1.00  0.00    -0.424 NA
ENDROOT
BRANCH   3   4
HETATM    4  C3  UNL     1      29.338   7.756  48.261  1.00  0.00     0.114 C 
BRANCH   4   5
HETATM    5  C4  UNL     1      29.905   6.807  47.279  1.00  0.00     0.088 C 
BRANCH   5   6
HETATM    6  C5  UNL     1      31.340   6.401  47.540  1.00  0.00     0.076 C 
HETATM    7  N2  UNL     1      31.977   6.527  46.552  1.00  0.00    -0.436 NA
HETATM    8  C6  UNL     1      32.753   6.643  45.478  1.00  0.00     0.337 C 
HETATM    9  N3  UNL     1      34.166   7.104  45.779  1.00  0.00    -0.381 N 
HETATM   10  C7  UNL     1      34.158   6.314  47.019  1.00  0.00     0.086 A 
HETATM   11  H11 UNL     1      34.720   7.759  45.143  1.00  0.00     0.157 HD
HETATM   12  C8  UNL     1      33.954   7.530  47.616  1.00  0.00     0.076 A 
HETATM   13  C13 UNL     1      34.255   5.001  46.684  1.00  0.00     0.017 A 
HETATM   14  C11 UNL     1      33.734   5.025  47.954  1.00  0.00     0.107 A 
HETATM   15  C10 UNL     1      33.527   6.229  48.557  1.00  0.00     0.082 A 
HETATM   16  C9  UNL     1      33.437   7.543  48.886  1.00  0.00    -0.009 A 
HETATM   17  N5  UNL     1      32.646   5.464  49.434  1.00  0.00    -0.401 N 
HETATM   18  C14 UNL     1      31.372   6.013  48.989  1.00  0.00     0.182 C 
HETATM   19  H17 UNL     1      32.551   4.730  50.211  1.00  0.00     0.154 HD
BRANCH  14  20
HETATM   20  N4  UNL     1      33.670   3.622  48.021  1.00  0.00    -0.350 N 
HETATM   21  H14 UNL     1      34.013   3.088  48.869  1.00  0.00     0.163 HD
BRANCH  20  22
HETATM   22  C12 UNL     1      33.133   2.867  46.919  1.00  0.00     0.349 C 
HETATM   23  O1  UNL     1      31.863   2.974  46.875  1.00  0.00    -0.284 OA
ENDBRANCH  20  22
ENDBRANCH  14  20
ENDBRANCH   5   6
ENDBRANCH   4   5
ENDBRANCH   3   4
TORSDOF 5
ENDMDL
