MODEL 1
REMARK VINA RESULT:      -8.5      0.000      0.000
REMARK  4 active torsions:
REMARK  status: ('A' for Active; 'I' for Inactive)
REMARK    1  A    between atoms: C5_5  and  C6_6 
REMARK       I    between atoms: C6_6  and  N1_8 
REMARK    2  A    between atoms: N1_8  and  C7_9 
REMARK    3  A    between atoms: N2_16  and  C14_17 
REMARK    4  A    between atoms: C14_17  and  C15_18 
ROOT
HETATM    1  C1  UNL     1      21.393   3.322  49.874  1.00  0.00     0.032 C 
HETATM    2  C2  UNL     1      21.873   2.726  51.187  1.00  0.00     0.075 C 
HETATM    3  C3  UNL     1      22.316   1.297  50.844  1.00  0.00     0.025 C 
HETATM    4  C4  UNL     1      22.437   0.606  52.183  1.00  0.00     0.017 C 
HETATM    5  C5  UNL     1      23.433   1.339  53.046  1.00  0.00     0.095 C 
HETATM    6  C13 UNL     1      23.955   2.595  52.411  1.00  0.00     0.131 C 
HETATM    7  N2  UNL     1      22.972   3.383  51.766  1.00  0.00    -0.406 N 
ENDROOT
BRANCH   5   8
HETATM    8  C6  UNL     1      24.487   0.407  53.445  1.00  0.00     0.223 C 
HETATM    9  O1  UNL     1      24.218  -0.772  53.855  1.00  0.00    -0.273 OA
HETATM   10  N1  UNL     1      25.875   0.713  53.416  1.00  0.00    -0.356 N 
HETATM   11  H10 UNL     1      26.130   1.673  53.084  1.00  0.00     0.162 HD
BRANCH  10  12
HETATM   12  C7  UNL     1      26.910  -0.224  53.816  1.00  0.00     0.084 C 
HETATM   13  C8  UNL     1      27.972   0.391  54.661  1.00  0.00     0.025 C 
HETATM   14  C9  UNL     1      29.359   0.270  54.083  1.00  0.00     0.002 C 
HETATM   15  C10 UNL     1      29.699  -1.084  53.555  1.00  0.00     0.000 C 
HETATM   16  C11 UNL     1      28.520  -1.937  53.199  1.00  0.00     0.002 C 
HETATM   17  C12 UNL     1      27.461  -0.998  52.640  1.00  0.00     0.025 C 
ENDBRANCH  10  12
ENDBRANCH   5   8
BRANCH   7  18
HETATM   18  C14 UNL     1      22.862   4.735  52.141  1.00  0.00     0.139 C 
BRANCH  18  19
HETATM   19  C15 UNL     1      23.602   5.730  51.305  1.00  0.00     0.104 C 
HETATM   20  C16 UNL     1      24.779   5.142  50.549  1.00  0.00     0.128 C 
HETATM   21  N3  UNL     1      25.554   6.357  50.325  1.00  0.00    -0.246 NA
HETATM   22  N4  UNL     1      25.194   7.249  51.326  1.00  0.00    -0.193 NA
HETATM   23  H29 UNL     1      25.319   6.788  49.396  1.00  0.00     0.141 HD
HETATM   24  N5  UNL     1      24.345   6.613  52.218  1.00  0.00    -0.240 NA
HETATM   25  H30 UNL     1      26.102   7.514  51.814  1.00  0.00     0.160 HD
HETATM   26  H31 UNL     1      24.965   5.962  52.785  1.00  0.00     0.142 HD
ENDBRANCH  18  19
ENDBRANCH   7  18
TORSDOF 4
ENDMDL
MODEL 2
REMARK VINA RESULT:      -8.4      2.949      5.130
REMARK  4 active torsions:
REMARK  status: ('A' for Active; 'I' for Inactive)
REMARK    1  A    between atoms: C5_5  and  C6_6 
REMARK       I    between atoms: C6_6  and  N1_8 
REMARK    2  A    between atoms: N1_8  and  C7_9 
REMARK    3  A    between atoms: N2_16  and  C14_17 
REMARK    4  A    between atoms: C14_17  and  C15_18 
ROOT
HETATM    1  C1  UNL     1      28.048   6.190  48.195  1.00  0.00     0.032 C 
HETATM    2  C2  UNL     1      26.685   5.636  48.579  1.00  0.00     0.075 C 
HETATM    3  C3  UNL     1      26.979   4.363  49.384  1.00  0.00     0.025 C 
HETATM    4  C4  UNL     1      25.654   3.635  49.439  1.00  0.00     0.017 C 
HETATM    5  C5  UNL     1      24.617   4.516  50.088  1.00  0.00     0.095 C 
HETATM    6  C13 UNL     1      25.124   5.892  50.408  1.00  0.00     0.131 C 
HETATM    7  N2  UNL     1      25.912   6.482  49.390  1.00  0.00    -0.406 N 
ENDROOT
BRANCH   5   8
HETATM    8  C6  UNL     1      24.063   3.816  51.248  1.00  0.00     0.223 C 
HETATM    9  O1  UNL     1      23.493   4.447  52.200  1.00  0.00    -0.273 OA
HETATM   10  N1  UNL     1      24.104   2.406  51.422  1.00  0.00    -0.356 N 
HETATM   11  H10 UNL     1      24.564   1.858  50.658  1.00  0.00     0.162 HD
BRANCH  10  12
HETATM   12  C7  UNL     1      23.549   1.726  52.579  1.00  0.00     0.084 C 
HETATM   13  C8  UNL     1      24.550   0.912  53.325  1.00  0.00     0.025 C 
HETATM   14  C9  UNL     1      24.190  -0.548  53.434  1.00  0.00     0.002 C 
HETATM   15  C10 UNL     1      22.772  -0.814  53.816  1.00  0.00     0.000 C 
HETATM   16  C11 UNL     1      21.820   0.308  53.532  1.00  0.00     0.002 C 
HETATM   17  C12 UNL     1      22.293   0.957  52.239  1.00  0.00     0.025 C 
ENDBRANCH  10  12
ENDBRANCH   5   8
BRANCH   7  18
HETATM   18  C14 UNL     1      25.531   7.751  48.917  1.00  0.00     0.139 C 
BRANCH  18  19
HETATM   19  C15 UNL     1      26.068   8.936  49.655  1.00  0.00     0.104 C 
HETATM   20  C16 UNL     1      27.079   9.745  48.864  1.00  0.00     0.128 C 
HETATM   21  N3  UNL     1      27.770  10.410  49.963  1.00  0.00    -0.246 NA
HETATM   22  N4  UNL     1      27.604   9.606  51.082  1.00  0.00    -0.193 NA
HETATM   23  H29 UNL     1      27.344  11.349  50.163  1.00  0.00     0.141 HD
HETATM   24  N5  UNL     1      26.964   8.434  50.710  1.00  0.00    -0.240 NA
HETATM   25  H30 UNL     1      28.586   9.389  51.430  1.00  0.00     0.160 HD
HETATM   26  H31 UNL     1      27.697   7.861  50.196  1.00  0.00     0.142 HD
ENDBRANCH  18  19
ENDBRANCH   7  18
TORSDOF 4
ENDMDL
MODEL 3
REMARK VINA RESULT:      -8.2      2.772      4.003
REMARK  4 active torsions:
REMARK  status: ('A' for Active; 'I' for Inactive)
REMARK    1  A    between atoms: C5_5  and  C6_6 
REMARK       I    between atoms: C6_6  and  N1_8 
REMARK    2  A    between atoms: N1_8  and  C7_9 
REMARK    3  A    between atoms: N2_16  and  C14_17 
REMARK    4  A    between atoms: C14_17  and  C15_18 
ROOT
HETATM    1  C1  UNL     1      23.317   6.315  47.425  1.00  0.00     0.032 C 
HETATM    2  C2  UNL     1      24.052   5.868  48.678  1.00  0.00     0.075 C 
HETATM    3  C3  UNL     1      23.779   4.363  48.792  1.00  0.00     0.025 C 
HETATM    4  C4  UNL     1      24.188   4.009  50.204  1.00  0.00     0.017 C 
HETATM    5  C5  UNL     1      25.639   4.360  50.416  1.00  0.00     0.095 C 
HETATM    6  C13 UNL     1      26.259   5.052  49.236  1.00  0.00     0.131 C 
HETATM    7  N2  UNL     1      25.445   6.045  48.639  1.00  0.00    -0.406 N 
ENDROOT
BRANCH   5   8
HETATM    8  C6  UNL     1      26.361   3.157  50.830  1.00  0.00     0.223 C 
HETATM    9  O1  UNL     1      26.835   2.335  49.976  1.00  0.00    -0.273 OA
HETATM   10  N1  UNL     1      26.598   2.795  52.184  1.00  0.00    -0.356 N 
HETATM   11  H10 UNL     1      26.222   3.450  52.910  1.00  0.00     0.162 HD
BRANCH  10  12
HETATM   12  C7  UNL     1      27.316   1.597  52.579  1.00  0.00     0.084 C 
HETATM   13  C8  UNL     1      26.454   0.582  53.246  1.00  0.00     0.025 C 
HETATM   14  C9  UNL     1      26.910   0.213  54.635  1.00  0.00     0.002 C 
HETATM   15  C10 UNL     1      28.374  -0.043  54.764  1.00  0.00     0.000 C 
HETATM   16  C11 UNL     1      29.221   0.584  53.698  1.00  0.00     0.002 C 
HETATM   17  C12 UNL     1      28.570   1.918  53.360  1.00  0.00     0.025 C 
ENDBRANCH  10  12
ENDBRANCH   5   8
BRANCH   7  18
HETATM   18  C14 UNL     1      25.985   7.336  48.491  1.00  0.00     0.139 C 
BRANCH  18  19
HETATM   19  C15 UNL     1      26.677   7.919  49.682  1.00  0.00     0.104 C 
HETATM   20  C16 UNL     1      26.076   9.227  50.162  1.00  0.00     0.128 C 
HETATM   21  N3  UNL     1      27.221   9.768  50.887  1.00  0.00    -0.246 NA
HETATM   22  N4  UNL     1      28.353   9.190  50.330  1.00  0.00    -0.193 NA
HETATM   23  H29 UNL     1      27.181   9.508  51.904  1.00  0.00     0.141 HD
HETATM   24  N5  UNL     1      27.982   8.428  49.232  1.00  0.00    -0.240 NA
HETATM   25  H30 UNL     1      28.967  10.001  50.019  1.00  0.00     0.160 HD
HETATM   26  H31 UNL     1      27.754   9.128  48.465  1.00  0.00     0.142 HD
ENDBRANCH  18  19
ENDBRANCH   7  18
TORSDOF 4
ENDMDL
MODEL 4
REMARK VINA RESULT:      -8.0      2.448      6.573
REMARK  4 active torsions:
REMARK  status: ('A' for Active; 'I' for Inactive)
REMARK    1  A    between atoms: C5_5  and  C6_6 
REMARK       I    between atoms: C6_6  and  N1_8 
REMARK    2  A    between atoms: N1_8  and  C7_9 
REMARK    3  A    between atoms: N2_16  and  C14_17 
REMARK    4  A    between atoms: C14_17  and  C15_18 
ROOT
HETATM    1  C1  UNL     1      23.450  -0.604  54.282  1.00  0.00     0.032 C 
HETATM    2  C2  UNL     1      23.995   0.187  53.103  1.00  0.00     0.075 C 
HETATM    3  C3  UNL     1      22.787   0.940  52.530  1.00  0.00     0.025 C 
HETATM    4  C4  UNL     1      23.248   1.415  51.169  1.00  0.00     0.017 C 
HETATM    5  C5  UNL     1      24.467   2.288  51.322  1.00  0.00     0.095 C 
HETATM    6  C13 UNL     1      24.962   2.373  52.738  1.00  0.00     0.131 C 
HETATM    7  N2  UNL     1      24.971   1.140  53.434  1.00  0.00    -0.406 N 
ENDROOT
BRANCH   5   8
HETATM    8  C6  UNL     1      24.190   3.594  50.724  1.00  0.00     0.223 C 
HETATM    9  O1  UNL     1      23.065   3.856  50.182  1.00  0.00    -0.273 OA
HETATM   10  N1  UNL     1      25.121   4.669  50.688  1.00  0.00    -0.356 N 
HETATM   11  H10 UNL     1      26.054   4.487  51.126  1.00  0.00     0.162 HD
BRANCH  10  12
HETATM   12  C7  UNL     1      24.830   5.959  50.090  1.00  0.00     0.084 C 
HETATM   13  C8  UNL     1      25.934   6.478  49.235  1.00  0.00     0.025 C 
HETATM   14  C9  UNL     1      26.464   7.820  49.670  1.00  0.00     0.002 C 
HETATM   15  C10 UNL     1      25.415   8.829  50.000  1.00  0.00     0.000 C 
HETATM   16  C11 UNL     1      24.077   8.255  50.354  1.00  0.00     0.002 C 
HETATM   17  C12 UNL     1      24.348   6.964  51.112  1.00  0.00     0.025 C 
ENDBRANCH  10  12
ENDBRANCH   5   8
BRANCH   7  18
HETATM   18  C14 UNL     1      26.179   0.730  54.028  1.00  0.00     0.139 C 
BRANCH  18  19
HETATM   19  C15 UNL     1      27.443   1.164  53.356  1.00  0.00     0.104 C 
HETATM   20  C16 UNL     1      28.647   0.308  53.702  1.00  0.00     0.128 C 
HETATM   21  N3  UNL     1      29.714   1.251  53.384  1.00  0.00    -0.246 NA
HETATM   22  N4  UNL     1      29.169   2.522  53.501  1.00  0.00    -0.193 NA
HETATM   23  H29 UNL     1      30.049   1.123  52.397  1.00  0.00     0.141 HD
HETATM   24  N5  UNL     1      27.876   2.420  53.991  1.00  0.00    -0.240 NA
HETATM   25  H30 UNL     1      29.784   3.035  54.203  1.00  0.00     0.160 HD
HETATM   26  H31 UNL     1      27.980   2.184  55.022  1.00  0.00     0.142 HD
ENDBRANCH  18  19
ENDBRANCH   7  18
TORSDOF 4
ENDMDL
MODEL 5
REMARK VINA RESULT:      -8.0      2.911      4.627
REMARK  4 active torsions:
REMARK  status: ('A' for Active; 'I' for Inactive)
REMARK    1  A    between atoms: C5_5  and  C6_6 
REMARK       I    between atoms: C6_6  and  N1_8 
REMARK    2  A    between atoms: N1_8  and  C7_9 
REMARK    3  A    between atoms: N2_16  and  C14_17 
REMARK    4  A    between atoms: C14_17  and  C15_18 
ROOT
HETATM    1  C1  UNL     1      22.580   8.836  49.215  1.00  0.00     0.032 C 
HETATM    2  C2  UNL     1      23.495   7.817  49.875  1.00  0.00     0.075 C 
HETATM    3  C3  UNL     1      22.590   6.628  50.224  1.00  0.00     0.025 C 
HETATM    4  C4  UNL     1      23.408   5.800  51.190  1.00  0.00     0.017 C 
HETATM    5  C5  UNL     1      24.700   5.383  50.534  1.00  0.00     0.095 C 
HETATM    6  C13 UNL     1      24.886   5.971  49.165  1.00  0.00     0.131 C 
HETATM    7  N2  UNL     1      24.530   7.336  49.055  1.00  0.00    -0.406 N 
ENDROOT
BRANCH   5   8
HETATM    8  C6  UNL     1      24.792   3.923  50.558  1.00  0.00     0.223 C 
HETATM    9  O1  UNL     1      24.415   3.214  49.566  1.00  0.00    -0.273 OA
HETATM   10  N1  UNL     1      25.295   3.174  51.656  1.00  0.00    -0.356 N 
HETATM   11  H10 UNL     1      25.614   3.727  52.486  1.00  0.00     0.162 HD
BRANCH  10  12
HETATM   12  C7  UNL     1      25.379   1.724  51.664  1.00  0.00     0.084 C 
HETATM   13  C8  UNL     1      24.252   1.069  52.385  1.00  0.00     0.025 C 
HETATM   14  C9  UNL     1      24.688   0.192  53.531  1.00  0.00     0.002 C 
HETATM   15  C10 UNL     1      25.831  -0.716  53.222  1.00  0.00     0.000 C 
HETATM   16  C11 UNL     1      26.687  -0.284  52.070  1.00  0.00     0.002 C 
HETATM   17  C12 UNL     1      26.737   1.236  52.116  1.00  0.00     0.025 C 
ENDBRANCH  10  12
ENDBRANCH   5   8
BRANCH   7  18
HETATM   18  C14 UNL     1      25.491   8.228  48.544  1.00  0.00     0.139 C 
BRANCH  18  19
HETATM   19  C15 UNL     1      26.090   9.202  49.509  1.00  0.00     0.104 C 
HETATM   20  C16 UNL     1      27.162  10.087  48.901  1.00  0.00     0.128 C 
HETATM   21  N3  UNL     1      27.876  10.470  50.114  1.00  0.00    -0.246 NA
HETATM   22  N4  UNL     1      27.642   9.469  51.046  1.00  0.00    -0.193 NA
HETATM   23  H29 UNL     1      27.506  11.375  50.499  1.00  0.00     0.141 HD
HETATM   24  N5  UNL     1      26.936   8.440  50.441  1.00  0.00    -0.240 NA
HETATM   25  H30 UNL     1      28.603   9.123  51.345  1.00  0.00     0.160 HD
HETATM   26  H31 UNL     1      27.640   7.937  49.824  1.00  0.00     0.142 HD
ENDBRANCH  18  19
ENDBRANCH   7  18
TORSDOF 4
ENDMDL
MODEL 6
REMARK VINA RESULT:      -7.8      2.949      7.144
REMARK  4 active torsions:
REMARK  status: ('A' for Active; 'I' for Inactive)
REMARK    1  A    between atoms: C5_5  and  C6_6 
REMARK       I    between atoms: C6_6  and  N1_8 
REMARK    2  A    between atoms: N1_8  and  C7_9 
REMARK    3  A    between atoms: N2_16  and  C14_17 
REMARK    4  A    between atoms: C14_17  and  C15_18 
ROOT
HETATM    1  C1  UNL     1      26.441  -1.837  52.987  1.00  0.00     0.032 C 
HETATM    2  C2  UNL     1      26.187  -0.339  53.004  1.00  0.00     0.075 C 
HETATM    3  C3  UNL     1      26.745   0.182  51.673  1.00  0.00     0.025 C 
HETATM    4  C4  UNL     1      26.826   1.681  51.856  1.00  0.00     0.017 C 
HETATM    5  C5  UNL     1      25.457   2.228  52.173  1.00  0.00     0.095 C 
HETATM    6  C13 UNL     1      24.413   1.160  52.328  1.00  0.00     0.131 C 
HETATM    7  N2  UNL     1      24.832   0.028  53.068  1.00  0.00    -0.406 N 
ENDROOT
BRANCH   5   8
HETATM    8  C6  UNL     1      25.110   3.240  51.175  1.00  0.00     0.223 C 
HETATM    9  O1  UNL     1      23.954   3.277  50.635  1.00  0.00    -0.273 OA
HETATM   10  N1  UNL     1      26.000   4.251  50.722  1.00  0.00    -0.356 N 
HETATM   11  H10 UNL     1      26.957   4.249  51.147  1.00  0.00     0.162 HD
BRANCH  10  12
HETATM   12  C7  UNL     1      25.641   5.249  49.730  1.00  0.00     0.084 C 
HETATM   13  C8  UNL     1      26.666   5.420  48.663  1.00  0.00     0.025 C 
HETATM   14  C9  UNL     1      27.202   6.825  48.552  1.00  0.00     0.002 C 
HETATM   15  C10 UNL     1      26.162   7.894  48.584  1.00  0.00     0.000 C 
HETATM   16  C11 UNL     1      24.866   7.496  49.221  1.00  0.00     0.002 C 
HETATM   17  C12 UNL     1      25.219   6.555  50.364  1.00  0.00     0.025 C 
ENDBRANCH  10  12
ENDBRANCH   5   8
BRANCH   7  18
HETATM   18  C14 UNL     1      24.052  -0.361  54.172  1.00  0.00     0.139 C 
BRANCH  18  19
HETATM   19  C15 UNL     1      22.658  -0.823  53.885  1.00  0.00     0.104 C 
HETATM   20  C16 UNL     1      21.609   0.265  54.032  1.00  0.00     0.128 C 
HETATM   21  N3  UNL     1      20.428  -0.566  54.237  1.00  0.00    -0.246 NA
HETATM   22  N4  UNL     1      20.875  -1.773  54.756  1.00  0.00    -0.193 NA
HETATM   23  H29 UNL     1      19.938  -0.757  53.327  1.00  0.00     0.141 HD
HETATM   24  N5  UNL     1      22.237  -1.687  54.999  1.00  0.00    -0.240 NA
HETATM   25  H30 UNL     1      20.350  -1.903  55.673  1.00  0.00     0.160 HD
HETATM   26  H31 UNL     1      22.334  -1.082  55.867  1.00  0.00     0.142 HD
ENDBRANCH  18  19
ENDBRANCH   7  18
TORSDOF 4
ENDMDL
MODEL 7
REMARK VINA RESULT:      -7.4      2.807      6.771
REMARK  4 active torsions:
REMARK  status: ('A' for Active; 'I' for Inactive)
REMARK    1  A    between atoms: C5_5  and  C6_6 
REMARK       I    between atoms: C6_6  and  N1_8 
REMARK    2  A    between atoms: N1_8  and  C7_9 
REMARK    3  A    between atoms: N2_16  and  C14_17 
REMARK    4  A    between atoms: C14_17  and  C15_18 
ROOT
HETATM    1  C1  UNL     1      24.168  -1.189  55.515  1.00  0.00     0.032 C 
HETATM    2  C2  UNL     1      24.187  -0.634  54.100  1.00  0.00     0.075 C 
HETATM    3  C3  UNL     1      22.768  -0.105  53.854  1.00  0.00     0.025 C 
HETATM    4  C4  UNL     1      22.692   0.098  52.358  1.00  0.00     0.017 C 
HETATM    5  C5  UNL     1      23.764   1.065  51.921  1.00  0.00     0.095 C 
HETATM    6  C13 UNL     1      24.675   1.484  53.039  1.00  0.00     0.131 C 
HETATM    7  N2  UNL     1      25.078   0.432  53.897  1.00  0.00    -0.406 N 
ENDROOT
BRANCH   5   8
HETATM    8  C6  UNL     1      23.132   2.191  51.233  1.00  0.00     0.223 C 
HETATM    9  O1  UNL     1      22.596   3.153  51.878  1.00  0.00    -0.273 OA
HETATM   10  N1  UNL     1      23.055   2.319  49.819  1.00  0.00    -0.356 N 
HETATM   11  H10 UNL     1      23.486   1.546  49.260  1.00  0.00     0.162 HD
BRANCH  10  12
HETATM   12  C7  UNL     1      22.424   3.443  49.151  1.00  0.00     0.084 C 
HETATM   13  C8  UNL     1      21.505   3.039  48.051  1.00  0.00     0.025 C 
HETATM   14  C9  UNL     1      21.869   3.618  46.707  1.00  0.00     0.002 C 
HETATM   15  C10 UNL     1      22.207   5.071  46.725  1.00  0.00     0.000 C 
HETATM   16  C11 UNL     1      22.637   5.604  48.058  1.00  0.00     0.002 C 
HETATM   17  C12 UNL     1      23.429   4.492  48.731  1.00  0.00     0.025 C 
ENDBRANCH  10  12
ENDBRANCH   5   8
BRANCH   7  18
HETATM   18  C14 UNL     1      26.458   0.242  54.099  1.00  0.00     0.139 C 
BRANCH  18  19
HETATM   19  C15 UNL     1      27.313   1.469  54.116  1.00  0.00     0.104 C 
HETATM   20  C16 UNL     1      27.983   1.769  52.788  1.00  0.00     0.128 C 
HETATM   21  N3  UNL     1      29.088   2.597  53.256  1.00  0.00    -0.246 NA
HETATM   22  N4  UNL     1      29.323   2.239  54.576  1.00  0.00    -0.193 NA
HETATM   23  H29 UNL     1      28.834   3.616  53.229  1.00  0.00     0.141 HD
HETATM   24  N5  UNL     1      28.517   1.160  54.905  1.00  0.00    -0.240 NA
HETATM   25  H30 UNL     1      30.347   1.954  54.619  1.00  0.00     0.160 HD
HETATM   26  H31 UNL     1      28.954   0.321  54.421  1.00  0.00     0.142 HD
ENDBRANCH  18  19
ENDBRANCH   7  18
TORSDOF 4
ENDMDL
MODEL 8
REMARK VINA RESULT:      -7.4      3.894      5.881
REMARK  4 active torsions:
REMARK  status: ('A' for Active; 'I' for Inactive)
REMARK    1  A    between atoms: C5_5  and  C6_6 
REMARK       I    between atoms: C6_6  and  N1_8 
REMARK    2  A    between atoms: N1_8  and  C7_9 
REMARK    3  A    between atoms: N2_16  and  C14_17 
REMARK    4  A    between atoms: C14_17  and  C15_18 
ROOT
HETATM    1  C1  UNL     1      25.742   8.528  46.884  1.00  0.00     0.032 C 
HETATM    2  C2  UNL     1      26.034   7.641  48.084  1.00  0.00     0.075 C 
HETATM    3  C3  UNL     1      24.905   6.601  48.101  1.00  0.00     0.025 C 
HETATM    4  C4  UNL     1      24.990   5.972  49.474  1.00  0.00     0.017 C 
HETATM    5  C5  UNL     1      26.355   5.362  49.670  1.00  0.00     0.095 C 
HETATM    6  C13 UNL     1      27.291   5.622  48.525  1.00  0.00     0.131 C 
HETATM    7  N2  UNL     1      27.252   6.944  48.019  1.00  0.00    -0.406 N 
ENDROOT
BRANCH   5   8
HETATM    8  C6  UNL     1      26.197   3.941  49.981  1.00  0.00     0.223 C 
HETATM    9  O1  UNL     1      26.664   3.033  49.215  1.00  0.00    -0.273 OA
HETATM   10  N1  UNL     1      25.526   3.447  51.133  1.00  0.00    -0.356 N 
HETATM   11  H10 UNL     1      25.132   4.167  51.783  1.00  0.00     0.162 HD
BRANCH  10  12
HETATM   12  C7  UNL     1      25.378   2.033  51.427  1.00  0.00     0.084 C 
HETATM   13  C8  UNL     1      23.973   1.633  51.719  1.00  0.00     0.025 C 
HETATM   14  C9  UNL     1      23.787   1.003  53.076  1.00  0.00     0.002 C 
HETATM   15  C10 UNL     1      24.807  -0.027  53.430  1.00  0.00     0.000 C 
HETATM   16  C11 UNL     1      26.099   0.079  52.679  1.00  0.00     0.002 C 
HETATM   17  C12 UNL     1      26.360   1.565  52.477  1.00  0.00     0.025 C 
ENDBRANCH  10  12
ENDBRANCH   5   8
BRANCH   7  18
HETATM   18  C14 UNL     1      28.463   7.656  47.946  1.00  0.00     0.139 C 
BRANCH  18  19
HETATM   19  C15 UNL     1      28.689   8.714  48.978  1.00  0.00     0.104 C 
HETATM   20  C16 UNL     1      28.814  10.114  48.405  1.00  0.00     0.128 C 
HETATM   21  N3  UNL     1      29.538  10.758  49.495  1.00  0.00    -0.246 NA
HETATM   22  N4  UNL     1      30.222   9.754  50.167  1.00  0.00    -0.193 NA
HETATM   23  H29 UNL     1      28.876  11.216  50.169  1.00  0.00     0.141 HD
HETATM   24  N5  UNL     1      30.063   8.558  49.482  1.00  0.00    -0.240 NA
HETATM   25  H30 UNL     1      31.245  10.045  50.155  1.00  0.00     0.160 HD
HETATM   26  H31 UNL     1      30.681   8.639  48.622  1.00  0.00     0.142 HD
ENDBRANCH  18  19
ENDBRANCH   7  18
TORSDOF 4
ENDMDL
MODEL 9
REMARK VINA RESULT:      -7.3      5.621      7.324
REMARK  4 active torsions:
REMARK  status: ('A' for Active; 'I' for Inactive)
REMARK    1  A    between atoms: C5_5  and  C6_6 
REMARK       I    between atoms: C6_6  and  N1_8 
REMARK    2  A    between atoms: N1_8  and  C7_9 
REMARK    3  A    between atoms: N2_16  and  C14_17 
REMARK    4  A    between atoms: C14_17  and  C15_18 
ROOT
HETATM    1  C1  UNL     1      14.234   0.408  50.643  1.00  0.00     0.032 C 
HETATM    2  C2  UNL     1      15.534   0.603  51.407  1.00  0.00     0.075 C 
HETATM    3  C3  UNL     1      16.446  -0.545  50.954  1.00  0.00     0.025 C 
HETATM    4  C4  UNL     1      17.567  -0.562  51.968  1.00  0.00     0.017 C 
HETATM    5  C5  UNL     1      18.265   0.775  51.977  1.00  0.00     0.095 C 
HETATM    6  C13 UNL     1      17.617   1.788  51.078  1.00  0.00     0.131 C 
HETATM    7  N2  UNL     1      16.202   1.808  51.135  1.00  0.00    -0.406 N 
ENDROOT
BRANCH   5   8
HETATM    8  C6  UNL     1      19.685   0.568  51.692  1.00  0.00     0.223 C 
HETATM    9  O1  UNL     1      20.127   0.525  50.495  1.00  0.00    -0.273 OA
HETATM   10  N1  UNL     1      20.683   0.399  52.690  1.00  0.00    -0.356 N 
HETATM   11  H10 UNL     1      20.353   0.430  53.683  1.00  0.00     0.162 HD
BRANCH  10  12
HETATM   12  C7  UNL     1      22.088   0.194  52.390  1.00  0.00     0.084 C 
HETATM   13  C8  UNL     1      22.690  -0.955  53.123  1.00  0.00     0.025 C 
HETATM   14  C9  UNL     1      23.866  -0.579  53.988  1.00  0.00     0.002 C 
HETATM   15  C10 UNL     1      24.860   0.321  53.333  1.00  0.00     0.000 C 
HETATM   16  C11 UNL     1      24.328   1.114  52.178  1.00  0.00     0.002 C 
HETATM   17  C12 UNL     1      22.889   1.470  52.525  1.00  0.00     0.025 C 
ENDBRANCH  10  12
ENDBRANCH   5   8
BRANCH   7  18
HETATM   18  C14 UNL     1      15.574   3.036  51.412  1.00  0.00     0.139 C 
BRANCH  18  19
HETATM   19  C15 UNL     1      15.058   3.233  52.803  1.00  0.00     0.104 C 
HETATM   20  C16 UNL     1      13.585   3.590  52.866  1.00  0.00     0.128 C 
HETATM   21  N3  UNL     1      13.546   4.224  54.179  1.00  0.00    -0.246 NA
HETATM   22  N4  UNL     1      14.827   4.694  54.432  1.00  0.00    -0.193 NA
HETATM   23  H29 UNL     1      13.294   3.529  54.926  1.00  0.00     0.141 HD
HETATM   24  N5  UNL     1      15.614   4.499  53.307  1.00  0.00    -0.240 NA
HETATM   25  H30 UNL     1      14.719   5.735  54.624  1.00  0.00     0.160 HD
HETATM   26  H31 UNL     1      15.297   5.235  52.609  1.00  0.00     0.142 HD
ENDBRANCH  18  19
ENDBRANCH   7  18
TORSDOF 4
ENDMDL
