MODEL 1
REMARK VINA RESULT:      -7.4      0.000      0.000
REMARK  4 active torsions:
REMARK  status: ('A' for Active; 'I' for Inactive)
REMARK    1  A    between atoms: O1_2  and  C2_3 
REMARK    2  A    between atoms: C2_3  and  C3_4 
REMARK    3  A    between atoms: N1_7  and  C6_8 
REMARK    4  A    between atoms: C11_15  and  O2_16 
ROOT
HETATM    1  C6  UNL     1      23.283   1.927  52.704  1.00  0.00     0.141 A 
HETATM    2  N2  UNL     1      22.185   1.134  52.537  1.00  0.00    -0.224 NA
HETATM    3  C7  UNL     1      22.154  -0.144  52.876  1.00  0.00     0.236 A 
HETATM    4  N3  UNL     1      23.216  -0.736  53.411  1.00  0.00    -0.241 NA
HETATM    5  C8  UNL     1      24.323  -0.012  53.600  1.00  0.00     0.072 A 
HETATM    6  C9  UNL     1      25.454  -0.611  54.160  1.00  0.00     0.035 A 
HETATM    7  C10 UNL     1      26.580   0.154  54.345  1.00  0.00     0.039 A 
HETATM    8  C11 UNL     1      26.612   1.482  53.991  1.00  0.00     0.069 A 
HETATM    9  C13 UNL     1      25.515   2.112  53.435  1.00  0.00     0.054 A 
HETATM   10  C14 UNL     1      24.399   1.335  53.257  1.00  0.00     0.041 A 
ENDROOT
BRANCH   1  11
HETATM   11  N1  UNL     1      23.197   3.294  52.299  1.00  0.00    -0.349 N 
HETATM   12  C5  UNL     1      23.075   4.697  52.660  1.00  0.00     0.163 C 
HETATM   13  C4  UNL     1      23.663   5.139  51.370  1.00  0.00    -0.027 C 
HETATM   14  C3  UNL     1      24.270   5.924  50.490  1.00  0.00    -0.027 C 
HETATM   15  C15 UNL     1      23.221   3.786  50.949  1.00  0.00     0.141 C 
HETATM   16  C18 UNL     1      24.458   5.376  49.140  1.00  0.00     0.021 C 
HETATM   17  C17 UNL     1      24.467   4.075  48.985  1.00  0.00    -0.027 C 
HETATM   18  C16 UNL     1      24.233   3.292  50.022  1.00  0.00     0.015 C 
BRANCH  14  19
HETATM   19  C2  UNL     1      24.751   7.293  50.810  1.00  0.00     0.206 C 
BRANCH  19  20
HETATM   20  O1  UNL     1      26.044   7.419  50.296  1.00  0.00    -0.391 OA
HETATM   21  C1  UNL     1      26.285   8.773  50.083  1.00  0.00     0.201 C 
ENDBRANCH  19  20
ENDBRANCH  14  19
ENDBRANCH   1  11
BRANCH   8  22
HETATM   22  O2  UNL     1      27.777   2.210  54.200  1.00  0.00    -0.356 OA
HETATM   23  C12 UNL     1      29.042   1.595  54.158  1.00  0.00     0.210 C 
ENDBRANCH   8  22
TORSDOF 4
ENDMDL
MODEL 2
REMARK VINA RESULT:      -7.1      2.297      3.609
REMARK  4 active torsions:
REMARK  status: ('A' for Active; 'I' for Inactive)
REMARK    1  A    between atoms: O1_2  and  C2_3 
REMARK    2  A    between atoms: C2_3  and  C3_4 
REMARK    3  A    between atoms: N1_7  and  C6_8 
REMARK    4  A    between atoms: C11_15  and  O2_16 
ROOT
HETATM    1  C6  UNL     1      24.712   2.255  52.540  1.00  0.00     0.141 A 
HETATM    2  N2  UNL     1      25.891   2.161  53.221  1.00  0.00    -0.224 NA
HETATM    3  C7  UNL     1      26.204   1.135  53.994  1.00  0.00     0.236 A 
HETATM    4  N3  UNL     1      25.365   0.116  54.152  1.00  0.00    -0.241 NA
HETATM    5  C8  UNL     1      24.193   0.149  53.511  1.00  0.00     0.072 A 
HETATM    6  C9  UNL     1      23.293  -0.909  53.661  1.00  0.00     0.035 A 
HETATM    7  C10 UNL     1      22.094  -0.852  52.992  1.00  0.00     0.039 A 
HETATM    8  C11 UNL     1      21.769   0.215  52.188  1.00  0.00     0.069 A 
HETATM    9  C13 UNL     1      22.631   1.281  52.014  1.00  0.00     0.054 A 
HETATM   10  C14 UNL     1      23.824   1.210  52.688  1.00  0.00     0.041 A 
ENDROOT
BRANCH   1  11
HETATM   11  N1  UNL     1      24.486   3.413  51.736  1.00  0.00    -0.349 N 
HETATM   12  C5  UNL     1      23.845   4.707  51.563  1.00  0.00     0.163 C 
HETATM   13  C4  UNL     1      24.851   5.134  50.558  1.00  0.00    -0.027 C 
HETATM   14  C3  UNL     1      25.585   5.945  49.807  1.00  0.00    -0.027 C 
HETATM   15  C15 UNL     1      25.038   3.666  50.433  1.00  0.00     0.141 C 
HETATM   16  C18 UNL     1      26.542   5.308  48.893  1.00  0.00     0.021 C 
HETATM   17  C17 UNL     1      26.961   4.098  49.165  1.00  0.00    -0.027 C 
HETATM   18  C16 UNL     1      26.462   3.451  50.202  1.00  0.00     0.015 C 
BRANCH  14  19
HETATM   19  C2  UNL     1      25.475   7.426  49.855  1.00  0.00     0.206 C 
BRANCH  19  20
HETATM   20  O1  UNL     1      26.589   7.954  49.198  1.00  0.00    -0.391 OA
HETATM   21  C1  UNL     1      27.153   8.920  50.027  1.00  0.00     0.201 C 
ENDBRANCH  19  20
ENDBRANCH  14  19
ENDBRANCH   1  11
BRANCH   8  22
HETATM   22  O2  UNL     1      20.544   0.222  51.534  1.00  0.00    -0.356 OA
HETATM   23  C12 UNL     1      19.676   1.326  51.615  1.00  0.00     0.210 C 
ENDBRANCH   8  22
TORSDOF 4
ENDMDL
MODEL 3
REMARK VINA RESULT:      -7.1      1.990      2.552
REMARK  4 active torsions:
REMARK  status: ('A' for Active; 'I' for Inactive)
REMARK    1  A    between atoms: O1_2  and  C2_3 
REMARK    2  A    between atoms: C2_3  and  C3_4 
REMARK    3  A    between atoms: N1_7  and  C6_8 
REMARK    4  A    between atoms: C11_15  and  O2_16 
ROOT
HETATM    1  C6  UNL     1      23.945   1.472  51.659  1.00  0.00     0.141 A 
HETATM    2  N2  UNL     1      22.763   1.457  50.976  1.00  0.00    -0.224 NA
HETATM    3  C7  UNL     1      21.743   0.684  51.306  1.00  0.00     0.236 A 
HETATM    4  N3  UNL     1      21.817  -0.140  52.347  1.00  0.00    -0.241 NA
HETATM    5  C8  UNL     1      22.949  -0.172  53.056  1.00  0.00     0.072 A 
HETATM    6  C9  UNL     1      23.053  -1.029  54.154  1.00  0.00     0.035 A 
HETATM    7  C10 UNL     1      24.227  -1.045  54.867  1.00  0.00     0.039 A 
HETATM    8  C11 UNL     1      25.288  -0.241  54.523  1.00  0.00     0.069 A 
HETATM    9  C13 UNL     1      25.225   0.621  53.445  1.00  0.00     0.054 A 
HETATM   10  C14 UNL     1      24.047   0.625  52.742  1.00  0.00     0.041 A 
ENDROOT
BRANCH   1  11
HETATM   11  N1  UNL     1      24.977   2.350  51.207  1.00  0.00    -0.349 N 
HETATM   12  C5  UNL     1      26.242   2.537  50.515  1.00  0.00     0.163 C 
HETATM   13  C4  UNL     1      25.950   3.969  50.251  1.00  0.00    -0.027 C 
HETATM   14  C3  UNL     1      26.018   5.161  49.672  1.00  0.00    -0.027 C 
HETATM   15  C15 UNL     1      25.029   3.773  51.399  1.00  0.00     0.141 C 
HETATM   16  C18 UNL     1      25.155   6.211  50.228  1.00  0.00     0.021 C 
HETATM   17  C17 UNL     1      24.084   5.859  50.895  1.00  0.00    -0.027 C 
HETATM   18  C16 UNL     1      23.846   4.579  51.118  1.00  0.00     0.015 C 
BRANCH  14  19
HETATM   19  C2  UNL     1      26.907   5.461  48.520  1.00  0.00     0.206 C 
BRANCH  19  20
HETATM   20  O1  UNL     1      28.102   4.764  48.714  1.00  0.00    -0.391 OA
HETATM   21  C1  UNL     1      29.142   5.570  48.259  1.00  0.00     0.201 C 
ENDBRANCH  19  20
ENDBRANCH  14  19
ENDBRANCH   1  11
BRANCH   8  22
HETATM   22  O2  UNL     1      26.451  -0.296  55.279  1.00  0.00    -0.356 OA
HETATM   23  C12 UNL     1      27.687   0.126  54.754  1.00  0.00     0.210 C 
ENDBRANCH   8  22
TORSDOF 4
ENDMDL
MODEL 4
REMARK VINA RESULT:      -6.8      2.834      3.367
REMARK  4 active torsions:
REMARK  status: ('A' for Active; 'I' for Inactive)
REMARK    1  A    between atoms: O1_2  and  C2_3 
REMARK    2  A    between atoms: C2_3  and  C3_4 
REMARK    3  A    between atoms: N1_7  and  C6_8 
REMARK    4  A    between atoms: C11_15  and  O2_16 
ROOT
HETATM    1  C6  UNL     1      22.365   0.917  53.130  1.00  0.00     0.141 A 
HETATM    2  N2  UNL     1      21.590   0.200  53.993  1.00  0.00    -0.224 NA
HETATM    3  C7  UNL     1      22.061  -0.769  54.760  1.00  0.00     0.236 A 
HETATM    4  N3  UNL     1      23.348  -1.101  54.729  1.00  0.00    -0.241 NA
HETATM    5  C8  UNL     1      24.160  -0.435  53.904  1.00  0.00     0.072 A 
HETATM    6  C9  UNL     1      25.516  -0.765  53.852  1.00  0.00     0.035 A 
HETATM    7  C10 UNL     1      26.331  -0.066  52.995  1.00  0.00     0.039 A 
HETATM    8  C11 UNL     1      25.840   0.940  52.197  1.00  0.00     0.069 A 
HETATM    9  C13 UNL     1      24.505   1.297  52.218  1.00  0.00     0.054 A 
HETATM   10  C14 UNL     1      23.704   0.590  53.079  1.00  0.00     0.041 A 
ENDROOT
BRANCH   1  11
HETATM   11  N1  UNL     1      21.743   1.940  52.351  1.00  0.00    -0.349 N 
HETATM   12  C5  UNL     1      21.421   3.346  52.167  1.00  0.00     0.163 C 
HETATM   13  C4  UNL     1      21.228   3.168  50.705  1.00  0.00    -0.027 C 
HETATM   14  C3  UNL     1      21.140   3.484  49.420  1.00  0.00    -0.027 C 
HETATM   15  C15 UNL     1      21.027   1.756  51.119  1.00  0.00     0.141 C 
HETATM   16  C18 UNL     1      20.845   2.384  48.492  1.00  0.00     0.021 C 
HETATM   17  C17 UNL     1      21.135   1.159  48.855  1.00  0.00    -0.027 C 
HETATM   18  C16 UNL     1      21.610   0.932  50.066  1.00  0.00     0.015 C 
BRANCH  14  19
HETATM   19  C2  UNL     1      21.323   4.864  48.902  1.00  0.00     0.206 C 
BRANCH  19  20
HETATM   20  O1  UNL     1      20.607   5.727  49.735  1.00  0.00    -0.391 OA
HETATM   21  C1  UNL     1      19.408   6.034  49.098  1.00  0.00     0.201 C 
ENDBRANCH  19  20
ENDBRANCH  14  19
ENDBRANCH   1  11
BRANCH   8  22
HETATM   22  O2  UNL     1      26.708   1.615  51.349  1.00  0.00    -0.356 OA
HETATM   23  C12 UNL     1      26.371   2.866  50.800  1.00  0.00     0.210 C 
ENDBRANCH   8  22
TORSDOF 4
ENDMDL
MODEL 5
REMARK VINA RESULT:      -6.7      2.699      3.691
REMARK  4 active torsions:
REMARK  status: ('A' for Active; 'I' for Inactive)
REMARK    1  A    between atoms: O1_2  and  C2_3 
REMARK    2  A    between atoms: C2_3  and  C3_4 
REMARK    3  A    between atoms: N1_7  and  C6_8 
REMARK    4  A    between atoms: C11_15  and  O2_16 
ROOT
HETATM    1  C6  UNL     1      20.200   1.082  52.011  1.00  0.00     0.141 A 
HETATM    2  N2  UNL     1      18.879   0.747  51.952  1.00  0.00    -0.224 NA
HETATM    3  C7  UNL     1      18.355  -0.265  52.622  1.00  0.00     0.236 A 
HETATM    4  N3  UNL     1      19.107  -1.027  53.409  1.00  0.00    -0.241 NA
HETATM    5  C8  UNL     1      20.411  -0.750  53.510  1.00  0.00     0.072 A 
HETATM    6  C9  UNL     1      21.223  -1.536  54.330  1.00  0.00     0.035 A 
HETATM    7  C10 UNL     1      22.561  -1.231  54.417  1.00  0.00     0.039 A 
HETATM    8  C11 UNL     1      23.105  -0.180  53.719  1.00  0.00     0.069 A 
HETATM    9  C13 UNL     1      22.335   0.622  52.897  1.00  0.00     0.054 A 
HETATM   10  C14 UNL     1      21.002   0.305  52.821  1.00  0.00     0.041 A 
ENDROOT
BRANCH   1  11
HETATM   11  N1  UNL     1      20.651   2.196  51.241  1.00  0.00    -0.349 N 
HETATM   12  C5  UNL     1      21.108   3.576  51.191  1.00  0.00     0.163 C 
HETATM   13  C4  UNL     1      21.779   3.366  49.883  1.00  0.00    -0.027 C 
HETATM   14  C3  UNL     1      22.617   3.566  48.875  1.00  0.00    -0.027 C 
HETATM   15  C15 UNL     1      20.821   2.234  49.814  1.00  0.00     0.141 C 
HETATM   16  C18 UNL     1      22.526   2.628  47.748  1.00  0.00     0.021 C 
HETATM   17  C17 UNL     1      22.013   1.442  47.957  1.00  0.00    -0.027 C 
HETATM   18  C16 UNL     1      21.522   1.142  49.146  1.00  0.00     0.015 C 
BRANCH  14  19
HETATM   19  C2  UNL     1      23.613   4.669  48.845  1.00  0.00     0.206 C 
BRANCH  19  20
HETATM   20  O1  UNL     1      24.409   4.551  49.986  1.00  0.00    -0.391 OA
HETATM   21  C1  UNL     1      25.647   4.052  49.589  1.00  0.00     0.201 C 
ENDBRANCH  19  20
ENDBRANCH  14  19
ENDBRANCH   1  11
BRANCH   8  22
HETATM   22  O2  UNL     1      24.462   0.085  53.844  1.00  0.00    -0.356 OA
HETATM   23  C12 UNL     1      25.291  -0.707  54.660  1.00  0.00     0.210 C 
ENDBRANCH   8  22
TORSDOF 4
ENDMDL
MODEL 6
REMARK VINA RESULT:      -6.7      3.521      6.353
REMARK  4 active torsions:
REMARK  status: ('A' for Active; 'I' for Inactive)
REMARK    1  A    between atoms: O1_2  and  C2_3 
REMARK    2  A    between atoms: C2_3  and  C3_4 
REMARK    3  A    between atoms: N1_7  and  C6_8 
REMARK    4  A    between atoms: C11_15  and  O2_16 
ROOT
HETATM    1  C6  UNL     1      23.632   1.045  53.014  1.00  0.00     0.141 A 
HETATM    2  N2  UNL     1      23.380   2.386  53.042  1.00  0.00    -0.224 NA
HETATM    3  C7  UNL     1      24.332   3.304  53.045  1.00  0.00     0.236 A 
HETATM    4  N3  UNL     1      25.615   2.959  53.020  1.00  0.00    -0.241 NA
HETATM    5  C8  UNL     1      25.927   1.660  52.991  1.00  0.00     0.072 A 
HETATM    6  C9  UNL     1      27.268   1.271  52.964  1.00  0.00     0.035 A 
HETATM    7  C10 UNL     1      27.564  -0.070  52.936  1.00  0.00     0.039 A 
HETATM    8  C11 UNL     1      26.574  -1.024  52.933  1.00  0.00     0.069 A 
HETATM    9  C13 UNL     1      25.235  -0.681  52.959  1.00  0.00     0.054 A 
HETATM   10  C14 UNL     1      24.956   0.662  52.988  1.00  0.00     0.041 A 
ENDROOT
BRANCH   1  11
HETATM   11  N1  UNL     1      22.521   0.148  53.015  1.00  0.00    -0.349 N 
HETATM   12  C5  UNL     1      21.734  -0.863  53.702  1.00  0.00     0.163 C 
HETATM   13  C4  UNL     1      20.540  -0.585  52.864  1.00  0.00    -0.027 C 
HETATM   14  C3  UNL     1      19.265  -0.542  52.500  1.00  0.00    -0.027 C 
HETATM   15  C15 UNL     1      21.573  -0.036  51.950  1.00  0.00     0.141 C 
HETATM   16  C18 UNL     1      18.976   0.059  51.191  1.00  0.00     0.021 C 
HETATM   17  C17 UNL     1      19.839   0.902  50.681  1.00  0.00    -0.027 C 
HETATM   18  C16 UNL     1      20.977   1.132  51.310  1.00  0.00     0.015 C 
BRANCH  14  19
HETATM   19  C2  UNL     1      18.156  -1.064  53.339  1.00  0.00     0.206 C 
BRANCH  19  20
HETATM   20  O1  UNL     1      18.523  -2.337  53.781  1.00  0.00    -0.391 OA
HETATM   21  C1  UNL     1      17.417  -3.171  53.639  1.00  0.00     0.201 C 
ENDBRANCH  19  20
ENDBRANCH  14  19
ENDBRANCH   1  11
BRANCH   8  22
HETATM   22  O2  UNL     1      26.928  -2.367  52.903  1.00  0.00    -0.356 OA
HETATM   23  C12 UNL     1      28.274  -2.771  52.971  1.00  0.00     0.210 C 
ENDBRANCH   8  22
TORSDOF 4
ENDMDL
MODEL 7
REMARK VINA RESULT:      -6.6      2.678      6.821
REMARK  4 active torsions:
REMARK  status: ('A' for Active; 'I' for Inactive)
REMARK    1  A    between atoms: O1_2  and  C2_3 
REMARK    2  A    between atoms: C2_3  and  C3_4 
REMARK    3  A    between atoms: N1_7  and  C6_8 
REMARK    4  A    between atoms: C11_15  and  O2_16 
ROOT
HETATM    1  C6  UNL     1      23.781   3.589  51.345  1.00  0.00     0.141 A 
HETATM    2  N2  UNL     1      23.619   4.289  52.506  1.00  0.00    -0.224 NA
HETATM    3  C7  UNL     1      22.730   5.256  52.652  1.00  0.00     0.236 A 
HETATM    4  N3  UNL     1      21.927   5.605  51.652  1.00  0.00    -0.241 NA
HETATM    5  C8  UNL     1      22.037   4.956  50.489  1.00  0.00     0.072 A 
HETATM    6  C9  UNL     1      21.205   5.304  49.423  1.00  0.00     0.035 A 
HETATM    7  C10 UNL     1      21.337   4.623  48.236  1.00  0.00     0.039 A 
HETATM    8  C11 UNL     1      22.263   3.618  48.084  1.00  0.00     0.069 A 
HETATM    9  C13 UNL     1      23.104   3.244  49.115  1.00  0.00     0.054 A 
HETATM   10  C14 UNL     1      22.960   3.933  50.292  1.00  0.00     0.041 A 
ENDROOT
BRANCH   1  11
HETATM   11  N1  UNL     1      24.777   2.566  51.306  1.00  0.00    -0.349 N 
HETATM   12  C5  UNL     1      26.145   2.167  51.020  1.00  0.00     0.163 C 
HETATM   13  C4  UNL     1      26.048   0.986  51.915  1.00  0.00    -0.027 C 
HETATM   14  C3  UNL     1      26.441  -0.009  52.700  1.00  0.00    -0.027 C 
HETATM   15  C15 UNL     1      24.598   1.188  51.673  1.00  0.00     0.141 C 
HETATM   16  C18 UNL     1      25.381  -0.848  53.277  1.00  0.00     0.021 C 
HETATM   17  C17 UNL     1      24.176  -0.348  53.393  1.00  0.00    -0.027 C 
HETATM   18  C16 UNL     1      23.922   0.860  52.924  1.00  0.00     0.015 C 
BRANCH  14  19
HETATM   19  C2  UNL     1      27.866  -0.296  53.006  1.00  0.00     0.206 C 
BRANCH  19  20
HETATM   20  O1  UNL     1      27.957  -0.582  54.370  1.00  0.00    -0.391 OA
HETATM   21  C1  UNL     1      28.775   0.382  54.952  1.00  0.00     0.201 C 
ENDBRANCH  19  20
ENDBRANCH  14  19
ENDBRANCH   1  11
BRANCH   8  22
HETATM   22  O2  UNL     1      22.354   2.961  46.864  1.00  0.00    -0.356 OA
HETATM   23  C12 UNL     1      21.908   3.563  45.673  1.00  0.00     0.210 C 
ENDBRANCH   8  22
TORSDOF 4
ENDMDL
MODEL 8
REMARK VINA RESULT:      -6.6      2.540      4.031
REMARK  4 active torsions:
REMARK  status: ('A' for Active; 'I' for Inactive)
REMARK    1  A    between atoms: O1_2  and  C2_3 
REMARK    2  A    between atoms: C2_3  and  C3_4 
REMARK    3  A    between atoms: N1_7  and  C6_8 
REMARK    4  A    between atoms: C11_15  and  O2_16 
ROOT
HETATM    1  C6  UNL     1      23.250   1.579  52.907  1.00  0.00     0.141 A 
HETATM    2  N2  UNL     1      24.590   1.453  53.132  1.00  0.00    -0.224 NA
HETATM    3  C7  UNL     1      25.132   0.401  53.721  1.00  0.00     0.236 A 
HETATM    4  N3  UNL     1      24.381  -0.614  54.134  1.00  0.00    -0.241 NA
HETATM    5  C8  UNL     1      23.060  -0.551  53.942  1.00  0.00     0.072 A 
HETATM    6  C9  UNL     1      22.248  -1.605  54.367  1.00  0.00     0.035 A 
HETATM    7  C10 UNL     1      20.893  -1.517  54.158  1.00  0.00     0.039 A 
HETATM    8  C11 UNL     1      20.330  -0.422  53.547  1.00  0.00     0.069 A 
HETATM    9  C13 UNL     1      21.098   0.641  53.112  1.00  0.00     0.054 A 
HETATM   10  C14 UNL     1      22.449   0.538  53.327  1.00  0.00     0.041 A 
ENDROOT
BRANCH   1  11
HETATM   11  N1  UNL     1      22.781   2.764  52.262  1.00  0.00    -0.349 N 
HETATM   12  C5  UNL     1      22.418   4.170  52.345  1.00  0.00     0.163 C 
HETATM   13  C4  UNL     1      22.627   4.368  50.889  1.00  0.00    -0.027 C 
HETATM   14  C3  UNL     1      22.856   4.999  49.745  1.00  0.00    -0.027 C 
HETATM   15  C15 UNL     1      22.427   2.897  50.875  1.00  0.00     0.141 C 
HETATM   16  C18 UNL     1      22.895   4.170  48.532  1.00  0.00     0.021 C 
HETATM   17  C17 UNL     1      23.167   2.895  48.651  1.00  0.00    -0.027 C 
HETATM   18  C16 UNL     1      23.324   2.369  49.852  1.00  0.00     0.015 C 
BRANCH  14  19
HETATM   19  C2  UNL     1      23.068   6.467  49.648  1.00  0.00     0.206 C 
BRANCH  19  20
HETATM   20  O1  UNL     1      24.374   6.677  49.200  1.00  0.00    -0.391 OA
HETATM   21  C1  UNL     1      25.152   7.019  50.303  1.00  0.00     0.201 C 
ENDBRANCH  19  20
ENDBRANCH  14  19
ENDBRANCH   1  11
BRANCH   8  22
HETATM   22  O2  UNL     1      18.954  -0.384  53.360  1.00  0.00    -0.356 OA
HETATM   23  C12 UNL     1      18.392  -0.287  52.074  1.00  0.00     0.210 C 
ENDBRANCH   8  22
TORSDOF 4
ENDMDL
MODEL 9
REMARK VINA RESULT:      -6.6      1.688      2.372
REMARK  4 active torsions:
REMARK  status: ('A' for Active; 'I' for Inactive)
REMARK    1  A    between atoms: O1_2  and  C2_3 
REMARK    2  A    between atoms: C2_3  and  C3_4 
REMARK    3  A    between atoms: N1_7  and  C6_8 
REMARK    4  A    between atoms: C11_15  and  O2_16 
ROOT
HETATM    1  C6  UNL     1      23.695   1.465  51.944  1.00  0.00     0.141 A 
HETATM    2  N2  UNL     1      22.489   0.889  51.668  1.00  0.00    -0.224 NA
HETATM    3  C7  UNL     1      22.030  -0.176  52.303  1.00  0.00     0.236 A 
HETATM    4  N3  UNL     1      22.737  -0.755  53.268  1.00  0.00    -0.241 NA
HETATM    5  C8  UNL     1      23.928  -0.238  53.585  1.00  0.00     0.072 A 
HETATM    6  C9  UNL     1      24.691  -0.827  54.595  1.00  0.00     0.035 A 
HETATM    7  C10 UNL     1      25.912  -0.277  54.904  1.00  0.00     0.039 A 
HETATM    8  C11 UNL     1      26.388   0.830  54.243  1.00  0.00     0.069 A 
HETATM    9  C13 UNL     1      25.664   1.443  53.238  1.00  0.00     0.054 A 
HETATM   10  C14 UNL     1      24.448   0.882  52.942  1.00  0.00     0.041 A 
ENDROOT
BRANCH   1  11
HETATM   11  N1  UNL     1      24.084   2.613  51.190  1.00  0.00    -0.349 N 
HETATM   12  C5  UNL     1      24.801   3.179  50.059  1.00  0.00     0.163 C 
HETATM   13  C4  UNL     1      23.966   4.407  50.071  1.00  0.00    -0.027 C 
HETATM   14  C3  UNL     1      23.384   5.514  49.628  1.00  0.00    -0.027 C 
HETATM   15  C15 UNL     1      23.733   3.978  51.474  1.00  0.00     0.141 C 
HETATM   16  C18 UNL     1      22.537   6.239  50.585  1.00  0.00     0.021 C 
HETATM   17  C17 UNL     1      22.028   5.582  51.598  1.00  0.00    -0.027 C 
HETATM   18  C16 UNL     1      22.347   4.314  51.781  1.00  0.00     0.015 C 
BRANCH  14  19
HETATM   19  C2  UNL     1      23.552   6.030  48.245  1.00  0.00     0.206 C 
BRANCH  19  20
HETATM   20  O1  UNL     1      22.279   6.185  47.693  1.00  0.00    -0.391 OA
HETATM   21  C1  UNL     1      22.189   5.342  46.589  1.00  0.00     0.201 C 
ENDBRANCH  19  20
ENDBRANCH  14  19
ENDBRANCH   1  11
BRANCH   8  22
HETATM   22  O2  UNL     1      27.629   1.346  54.595  1.00  0.00    -0.356 OA
HETATM   23  C12 UNL     1      28.770   0.526  54.667  1.00  0.00     0.210 C 
ENDBRANCH   8  22
TORSDOF 4
ENDMDL
