MODEL 1
REMARK VINA RESULT:      -7.7      0.000      0.000
REMARK  7 active torsions:
REMARK  status: ('A' for Active; 'I' for Inactive)
REMARK    1  A    between atoms: C2_2  and  C3_3 
REMARK    2  A    between atoms: C3_3  and  C16_19 
REMARK    3  A    between atoms: C4_4  and  C5_5 
REMARK    4  A    between atoms: C6_6  and  O1_7 
REMARK    5  A    between atoms: O1_7  and  C7_8 
REMARK    6  A    between atoms: C8_9  and  C9_10 
REMARK    7  A    between atoms: C12_13  and  S1_14 
ROOT
HETATM    1  C5  UNL     1      22.647  -0.223  53.005  1.00  0.00     0.025 C 
HETATM    2  C6  UNL     1      21.656   0.037  53.828  1.00  0.00     0.141 C 
ENDROOT
BRANCH   2   3
HETATM    3  O1  UNL     1      20.348   0.328  53.456  1.00  0.00    -0.335 OA
BRANCH   3   4
HETATM    4  C7  UNL     1      19.433  -0.741  53.516  1.00  0.00     0.142 C 
HETATM    5  C8  UNL     1      18.277  -0.871  52.885  1.00  0.00     0.036 C 
BRANCH   5   6
HETATM    6  C9  UNL     1      17.348  -1.995  52.968  1.00  0.00    -0.034 A 
HETATM    7  C10 UNL     1      16.146  -1.879  52.302  1.00  0.00     0.013 A 
HETATM    8  C11 UNL     1      15.309  -2.979  52.419  1.00  0.00     0.022 A 
HETATM    9  C12 UNL     1      15.606  -4.115  53.129  1.00  0.00     0.031 A 
HETATM   10  C14 UNL     1      16.833  -4.182  53.783  1.00  0.00     0.022 A 
HETATM   11  C15 UNL     1      17.699  -3.101  53.689  1.00  0.00     0.013 A 
BRANCH   9  12
HETATM   12  S1  UNL     1      14.493  -5.465  53.230  1.00  0.00     0.045 S 
HETATM   13  C13 UNL     1      13.815  -5.966  51.659  1.00  0.00     0.133 C 
HETATM   14  O2  UNL     1      15.027  -6.616  54.038  1.00  0.00    -0.253 OA
ENDBRANCH   9  12
ENDBRANCH   5   6
ENDBRANCH   3   4
ENDBRANCH   2   3
BRANCH   1  15
HETATM   15  C4  UNL     1      23.994  -0.521  53.480  1.00  0.00     0.016 C 
HETATM   16  C3  UNL     1      24.971   0.312  53.174  1.00  0.00    -0.006 C 
BRANCH  16  17
HETATM   17  C2  UNL     1      24.723   1.502  52.383  1.00  0.00    -0.012 C 
HETATM   18  C1  UNL     1      24.455   2.699  52.915  1.00  0.00     0.032 C 
ENDBRANCH  16  17
BRANCH  16  19
HETATM   19  C16 UNL     1      26.341   0.087  53.610  1.00  0.00     0.085 A 
HETATM   20  C17 UNL     1      26.860   0.555  54.775  1.00  0.00     0.040 A 
HETATM   21  C18 UNL     1      28.184   0.153  54.869  1.00  0.00     0.035 A 
HETATM   22  C19 UNL     1      28.394  -0.559  53.716  1.00  0.00     0.050 A 
HETATM   23  C20 UNL     1      29.633  -1.236  53.258  1.00  0.00     0.076 C 
HETATM   24  O3  UNL     1      27.299  -0.573  53.013  1.00  0.00    -0.315 OA
ENDBRANCH  16  19
ENDBRANCH   1  15
TORSDOF 7
ENDMDL
MODEL 2
REMARK VINA RESULT:      -7.7      3.503      5.922
REMARK  7 active torsions:
REMARK  status: ('A' for Active; 'I' for Inactive)
REMARK    1  A    between atoms: C2_2  and  C3_3 
REMARK    2  A    between atoms: C3_3  and  C16_19 
REMARK    3  A    between atoms: C4_4  and  C5_5 
REMARK    4  A    between atoms: C6_6  and  O1_7 
REMARK    5  A    between atoms: O1_7  and  C7_8 
REMARK    6  A    between atoms: C8_9  and  C9_10 
REMARK    7  A    between atoms: C12_13  and  S1_14 
ROOT
HETATM    1  C5  UNL     1      26.365   1.191  51.746  1.00  0.00     0.025 C 
HETATM    2  C6  UNL     1      26.457   0.989  53.041  1.00  0.00     0.141 C 
ENDROOT
BRANCH   2   3
HETATM    3  O1  UNL     1      26.110  -0.182  53.706  1.00  0.00    -0.335 OA
BRANCH   3   4
HETATM    4  C7  UNL     1      24.744  -0.524  53.690  1.00  0.00     0.142 C 
HETATM    5  C8  UNL     1      23.710   0.237  53.371  1.00  0.00     0.036 C 
BRANCH   5   6
HETATM    6  C9  UNL     1      22.300  -0.148  53.364  1.00  0.00    -0.034 A 
HETATM    7  C10 UNL     1      21.468   0.497  52.474  1.00  0.00     0.013 A 
HETATM    8  C11 UNL     1      20.143   0.087  52.516  1.00  0.00     0.022 A 
HETATM    9  C12 UNL     1      19.650  -0.879  53.358  1.00  0.00     0.031 A 
HETATM   10  C14 UNL     1      20.532  -1.500  54.237  1.00  0.00     0.022 A 
HETATM   11  C15 UNL     1      21.867  -1.117  54.224  1.00  0.00     0.013 A 
BRANCH   9  12
HETATM   12  S1  UNL     1      17.960  -1.343  53.351  1.00  0.00     0.045 S 
HETATM   13  C13 UNL     1      17.036  -0.696  51.971  1.00  0.00     0.133 C 
HETATM   14  O2  UNL     1      17.748  -2.815  53.567  1.00  0.00    -0.253 OA
ENDBRANCH   9  12
ENDBRANCH   5   6
ENDBRANCH   3   4
ENDBRANCH   2   3
BRANCH   1  15
HETATM   15  C4  UNL     1      26.753   2.454  51.127  1.00  0.00     0.016 C 
HETATM   16  C3  UNL     1      25.822   3.187  50.545  1.00  0.00    -0.006 C 
BRANCH  16  17
HETATM   17  C2  UNL     1      24.437   2.756  50.516  1.00  0.00    -0.012 C 
HETATM   18  C1  UNL     1      23.631   2.934  49.464  1.00  0.00     0.032 C 
ENDBRANCH  16  17
BRANCH  16  19
HETATM   19  C16 UNL     1      26.128   4.458  49.907  1.00  0.00     0.085 A 
HETATM   20  C17 UNL     1      27.039   4.614  48.912  1.00  0.00     0.040 A 
HETATM   21  C18 UNL     1      27.072   5.951  48.541  1.00  0.00     0.035 A 
HETATM   22  C19 UNL     1      26.146   6.542  49.361  1.00  0.00     0.050 A 
HETATM   23  C20 UNL     1      25.743   7.969  49.425  1.00  0.00     0.076 C 
HETATM   24  O3  UNL     1      25.621   5.641  50.139  1.00  0.00    -0.315 OA
ENDBRANCH  16  19
ENDBRANCH   1  15
TORSDOF 7
ENDMDL
MODEL 3
REMARK VINA RESULT:      -7.4      3.576     10.010
REMARK  7 active torsions:
REMARK  status: ('A' for Active; 'I' for Inactive)
REMARK    1  A    between atoms: C2_2  and  C3_3 
REMARK    2  A    between atoms: C3_3  and  C16_19 
REMARK    3  A    between atoms: C4_4  and  C5_5 
REMARK    4  A    between atoms: C6_6  and  O1_7 
REMARK    5  A    between atoms: O1_7  and  C7_8 
REMARK    6  A    between atoms: C8_9  and  C9_10 
REMARK    7  A    between atoms: C12_13  and  S1_14 
ROOT
HETATM    1  C5  UNL     1      19.500   1.036  51.613  1.00  0.00     0.025 C 
HETATM    2  C6  UNL     1      20.468   1.028  50.723  1.00  0.00     0.141 C 
ENDROOT
BRANCH   2   3
HETATM    3  O1  UNL     1      21.419   2.027  50.550  1.00  0.00    -0.335 OA
BRANCH   3   4
HETATM    4  C7  UNL     1      22.673   1.801  51.148  1.00  0.00     0.142 C 
HETATM    5  C8  UNL     1      23.002   0.894  52.053  1.00  0.00     0.036 C 
BRANCH   5   6
HETATM    6  C9  UNL     1      24.316   0.684  52.655  1.00  0.00    -0.034 A 
HETATM    7  C10 UNL     1      25.388   1.345  52.094  1.00  0.00     0.013 A 
HETATM    8  C11 UNL     1      26.607   1.103  52.711  1.00  0.00     0.022 A 
HETATM    9  C12 UNL     1      26.785   0.281  53.796  1.00  0.00     0.031 A 
HETATM   10  C14 UNL     1      25.670  -0.363  54.325  1.00  0.00     0.022 A 
HETATM   11  C15 UNL     1      24.431  -0.146  53.735  1.00  0.00     0.013 A 
BRANCH   9  12
HETATM   12  S1  UNL     1      28.360   0.026  54.520  1.00  0.00     0.045 S 
HETATM   13  C13 UNL     1      29.462  -0.966  53.532  1.00  0.00     0.133 C 
HETATM   14  O2  UNL     1      28.994   1.294  55.022  1.00  0.00    -0.253 OA
ENDBRANCH   9  12
ENDBRANCH   5   6
ENDBRANCH   3   4
ENDBRANCH   2   3
BRANCH   1  15
HETATM   15  C4  UNL     1      18.542  -0.057  51.729  1.00  0.00     0.016 C 
HETATM   16  C3  UNL     1      18.588  -0.829  52.800  1.00  0.00    -0.006 C 
BRANCH  16  17
HETATM   17  C2  UNL     1      19.567  -0.603  53.845  1.00  0.00    -0.012 C 
HETATM   18  C1  UNL     1      20.707  -1.293  53.949  1.00  0.00     0.032 C 
ENDBRANCH  16  17
BRANCH  16  19
HETATM   19  C16 UNL     1      17.667  -1.939  52.991  1.00  0.00     0.085 A 
HETATM   20  C17 UNL     1      17.929  -3.027  53.760  1.00  0.00     0.040 A 
HETATM   21  C18 UNL     1      16.837  -3.880  53.717  1.00  0.00     0.035 A 
HETATM   22  C19 UNL     1      15.948  -3.234  52.897  1.00  0.00     0.050 A 
HETATM   23  C20 UNL     1      14.592  -3.668  52.476  1.00  0.00     0.076 C 
HETATM   24  O3  UNL     1      16.468  -2.111  52.497  1.00  0.00    -0.315 OA
ENDBRANCH  16  19
ENDBRANCH   1  15
TORSDOF 7
ENDMDL
MODEL 4
REMARK VINA RESULT:      -7.4      3.130      3.919
REMARK  7 active torsions:
REMARK  status: ('A' for Active; 'I' for Inactive)
REMARK    1  A    between atoms: C2_2  and  C3_3 
REMARK    2  A    between atoms: C3_3  and  C16_19 
REMARK    3  A    between atoms: C4_4  and  C5_5 
REMARK    4  A    between atoms: C6_6  and  O1_7 
REMARK    5  A    between atoms: O1_7  and  C7_8 
REMARK    6  A    between atoms: C8_9  and  C9_10 
REMARK    7  A    between atoms: C12_13  and  S1_14 
ROOT
HETATM    1  C5  UNL     1      23.189  -0.709  53.936  1.00  0.00     0.025 C 
HETATM    2  C6  UNL     1      22.508  -1.223  54.936  1.00  0.00     0.141 C 
ENDROOT
BRANCH   2   3
HETATM    3  O1  UNL     1      21.134  -1.435  54.958  1.00  0.00    -0.335 OA
BRANCH   3   4
HETATM    4  C7  UNL     1      20.404  -0.883  53.888  1.00  0.00     0.142 C 
HETATM    5  C8  UNL     1      19.177  -1.179  53.491  1.00  0.00     0.036 C 
BRANCH   5   6
HETATM    6  C9  UNL     1      18.444  -0.587  52.375  1.00  0.00    -0.034 A 
HETATM    7  C10 UNL     1      17.087  -0.824  52.306  1.00  0.00     0.013 A 
HETATM    8  C11 UNL     1      16.449  -0.233  51.224  1.00  0.00     0.022 A 
HETATM    9  C12 UNL     1      17.072   0.533  50.271  1.00  0.00     0.031 A 
HETATM   10  C14 UNL     1      18.443   0.742  50.387  1.00  0.00     0.022 A 
HETATM   11  C15 UNL     1      19.118   0.168  51.457  1.00  0.00     0.013 A 
BRANCH   9  12
HETATM   12  S1  UNL     1      16.195   1.245  48.932  1.00  0.00     0.045 S 
HETATM   13  C13 UNL     1      14.545   0.604  48.722  1.00  0.00     0.133 C 
HETATM   14  O2  UNL     1      16.253   2.747  48.917  1.00  0.00    -0.253 OA
ENDBRANCH   9  12
ENDBRANCH   5   6
ENDBRANCH   3   4
ENDBRANCH   2   3
BRANCH   1  15
HETATM   15  C4  UNL     1      24.634  -0.521  53.994  1.00  0.00     0.016 C 
HETATM   16  C3  UNL     1      25.149   0.588  53.497  1.00  0.00    -0.006 C 
BRANCH  16  17
HETATM   17  C2  UNL     1      24.305   1.607  52.903  1.00  0.00    -0.012 C 
HETATM   18  C1  UNL     1      24.201   1.801  51.584  1.00  0.00     0.032 C 
ENDBRANCH  16  17
BRANCH  16  19
HETATM   19  C16 UNL     1      26.580   0.851  53.518  1.00  0.00     0.085 A 
HETATM   20  C17 UNL     1      27.130   2.093  53.535  1.00  0.00     0.040 A 
HETATM   21  C18 UNL     1      28.511   1.972  53.554  1.00  0.00     0.035 A 
HETATM   22  C19 UNL     1      28.722   0.616  53.547  1.00  0.00     0.050 A 
HETATM   23  C20 UNL     1      30.010  -0.121  53.560  1.00  0.00     0.076 C 
HETATM   24  O3  UNL     1      27.575   0.002  53.526  1.00  0.00    -0.315 OA
ENDBRANCH  16  19
ENDBRANCH   1  15
TORSDOF 7
ENDMDL
MODEL 5
REMARK VINA RESULT:      -7.4      3.983      5.664
REMARK  7 active torsions:
REMARK  status: ('A' for Active; 'I' for Inactive)
REMARK    1  A    between atoms: C2_2  and  C3_3 
REMARK    2  A    between atoms: C3_3  and  C16_19 
REMARK    3  A    between atoms: C4_4  and  C5_5 
REMARK    4  A    between atoms: C6_6  and  O1_7 
REMARK    5  A    between atoms: O1_7  and  C7_8 
REMARK    6  A    between atoms: C8_9  and  C9_10 
REMARK    7  A    between atoms: C12_13  and  S1_14 
ROOT
HETATM    1  C5  UNL     1      25.479   1.749  51.455  1.00  0.00     0.025 C 
HETATM    2  C6  UNL     1      25.589   1.470  52.735  1.00  0.00     0.141 C 
ENDROOT
BRANCH   2   3
HETATM    3  O1  UNL     1      24.751   0.626  53.456  1.00  0.00    -0.335 OA
BRANCH   3   4
HETATM    4  C7  UNL     1      23.416   0.551  53.015  1.00  0.00     0.142 C 
HETATM    5  C8  UNL     1      22.435  -0.200  53.487  1.00  0.00     0.036 C 
BRANCH   5   6
HETATM    6  C9  UNL     1      21.056  -0.255  53.007  1.00  0.00    -0.034 A 
HETATM    7  C10 UNL     1      20.137  -0.928  53.784  1.00  0.00     0.013 A 
HETATM    8  C11 UNL     1      18.847  -0.944  53.275  1.00  0.00     0.022 A 
HETATM    9  C12 UNL     1      18.464  -0.353  52.096  1.00  0.00     0.031 A 
HETATM   10  C14 UNL     1      19.430   0.315  51.350  1.00  0.00     0.022 A 
HETATM   11  C15 UNL     1      20.734   0.353  51.827  1.00  0.00     0.013 A 
BRANCH   9  12
HETATM   12  S1  UNL     1      16.811  -0.416  51.519  1.00  0.00     0.045 S 
HETATM   13  C13 UNL     1      16.662  -0.425  49.743  1.00  0.00     0.133 C 
HETATM   14  O2  UNL     1      15.989  -1.484  52.187  1.00  0.00    -0.253 OA
ENDBRANCH   9  12
ENDBRANCH   5   6
ENDBRANCH   3   4
ENDBRANCH   2   3
BRANCH   1  15
HETATM   15  C4  UNL     1      26.404   2.646  50.773  1.00  0.00     0.016 C 
HETATM   16  C3  UNL     1      25.911   3.625  50.037  1.00  0.00    -0.006 C 
BRANCH  16  17
HETATM   17  C2  UNL     1      24.479   3.813  49.902  1.00  0.00    -0.012 C 
HETATM   18  C1  UNL     1      23.748   3.243  48.939  1.00  0.00     0.032 C 
ENDBRANCH  16  17
BRANCH  16  19
HETATM   19  C16 UNL     1      26.767   4.562  49.326  1.00  0.00     0.085 A 
HETATM   20  C17 UNL     1      26.366   5.784  48.888  1.00  0.00     0.040 A 
HETATM   21  C18 UNL     1      27.433   6.406  48.257  1.00  0.00     0.035 A 
HETATM   22  C19 UNL     1      28.451   5.492  48.355  1.00  0.00     0.050 A 
HETATM   23  C20 UNL     1      29.844   5.601  47.856  1.00  0.00     0.076 C 
HETATM   24  O3  UNL     1      28.022   4.436  48.982  1.00  0.00    -0.315 OA
ENDBRANCH  16  19
ENDBRANCH   1  15
TORSDOF 7
ENDMDL
MODEL 6
REMARK VINA RESULT:      -7.2      5.670     11.224
REMARK  7 active torsions:
REMARK  status: ('A' for Active; 'I' for Inactive)
REMARK    1  A    between atoms: C2_2  and  C3_3 
REMARK    2  A    between atoms: C3_3  and  C16_19 
REMARK    3  A    between atoms: C4_4  and  C5_5 
REMARK    4  A    between atoms: C6_6  and  O1_7 
REMARK    5  A    between atoms: O1_7  and  C7_8 
REMARK    6  A    between atoms: C8_9  and  C9_10 
REMARK    7  A    between atoms: C12_13  and  S1_14 
ROOT
HETATM    1  C5  UNL     1      24.662   1.169  52.770  1.00  0.00     0.025 C 
HETATM    2  C6  UNL     1      25.700   0.620  52.180  1.00  0.00     0.141 C 
ENDROOT
BRANCH   2   3
HETATM    3  O1  UNL     1      26.905   1.255  51.902  1.00  0.00    -0.335 OA
BRANCH   3   4
HETATM    4  C7  UNL     1      26.813   2.525  51.301  1.00  0.00     0.142 C 
HETATM    5  C8  UNL     1      26.490   2.823  50.053  1.00  0.00     0.036 C 
BRANCH   5   6
HETATM    6  C9  UNL     1      26.402   4.155  49.458  1.00  0.00    -0.034 A 
HETATM    7  C10 UNL     1      25.167   4.766  49.444  1.00  0.00     0.013 A 
HETATM    8  C11 UNL     1      25.150   6.028  48.866  1.00  0.00     0.022 A 
HETATM    9  C12 UNL     1      26.248   6.660  48.336  1.00  0.00     0.031 A 
HETATM   10  C14 UNL     1      27.472   5.999  48.376  1.00  0.00     0.022 A 
HETATM   11  C15 UNL     1      27.529   4.734  48.947  1.00  0.00     0.013 A 
BRANCH   9  12
HETATM   12  S1  UNL     1      26.146   8.256  47.622  1.00  0.00     0.045 S 
HETATM   13  C13 UNL     1      26.628   9.575  48.720  1.00  0.00     0.133 C 
HETATM   14  O2  UNL     1      26.796   8.345  46.269  1.00  0.00    -0.253 OA
ENDBRANCH   9  12
ENDBRANCH   5   6
ENDBRANCH   3   4
ENDBRANCH   2   3
BRANCH   1  15
HETATM   15  C4  UNL     1      23.432   0.428  53.026  1.00  0.00     0.016 C 
HETATM   16  C3  UNL     1      22.298   0.896  52.538  1.00  0.00    -0.006 C 
BRANCH  16  17
HETATM   17  C2  UNL     1      22.263   2.120  51.761  1.00  0.00    -0.012 C 
HETATM   18  C1  UNL     1      21.617   3.223  52.151  1.00  0.00     0.032 C 
ENDBRANCH  16  17
BRANCH  16  19
HETATM   19  C16 UNL     1      21.029   0.215  52.748  1.00  0.00     0.085 A 
HETATM   20  C17 UNL     1      20.802  -0.693  53.732  1.00  0.00     0.040 A 
HETATM   21  C18 UNL     1      19.490  -1.136  53.639  1.00  0.00     0.035 A 
HETATM   22  C19 UNL     1      18.985  -0.444  52.568  1.00  0.00     0.050 A 
HETATM   23  C20 UNL     1      17.621  -0.503  51.988  1.00  0.00     0.076 C 
HETATM   24  O3  UNL     1      19.911   0.329  52.079  1.00  0.00    -0.315 OA
ENDBRANCH  16  19
ENDBRANCH   1  15
TORSDOF 7
ENDMDL
MODEL 7
REMARK VINA RESULT:      -7.1      5.037      7.109
REMARK  7 active torsions:
REMARK  status: ('A' for Active; 'I' for Inactive)
REMARK    1  A    between atoms: C2_2  and  C3_3 
REMARK    2  A    between atoms: C3_3  and  C16_19 
REMARK    3  A    between atoms: C4_4  and  C5_5 
REMARK    4  A    between atoms: C6_6  and  O1_7 
REMARK    5  A    between atoms: O1_7  and  C7_8 
REMARK    6  A    between atoms: C8_9  and  C9_10 
REMARK    7  A    between atoms: C12_13  and  S1_14 
ROOT
HETATM    1  C5  UNL     1      22.885   0.095  53.487  1.00  0.00     0.025 C 
HETATM    2  C6  UNL     1      22.149  -0.458  52.549  1.00  0.00     0.141 C 
ENDROOT
BRANCH   2   3
HETATM    3  O1  UNL     1      20.835  -0.120  52.244  1.00  0.00    -0.335 OA
BRANCH   3   4
HETATM    4  C7  UNL     1      20.642   0.612  51.058  1.00  0.00     0.142 C 
HETATM    5  C8  UNL     1      21.554   1.158  50.269  1.00  0.00     0.036 C 
BRANCH   5   6
HETATM    6  C9  UNL     1      21.321   1.913  49.041  1.00  0.00    -0.034 A 
HETATM    7  C10 UNL     1      20.030   2.321  48.779  1.00  0.00     0.013 A 
HETATM    8  C11 UNL     1      19.875   3.034  47.598  1.00  0.00     0.022 A 
HETATM    9  C12 UNL     1      20.892   3.334  46.727  1.00  0.00     0.031 A 
HETATM   10  C14 UNL     1      22.177   2.900  47.039  1.00  0.00     0.022 A 
HETATM   11  C15 UNL     1      22.373   2.183  48.213  1.00  0.00     0.013 A 
BRANCH   9  12
HETATM   12  S1  UNL     1      20.616   4.241  45.253  1.00  0.00     0.045 S 
HETATM   13  C13 UNL     1      21.037   5.969  45.374  1.00  0.00     0.133 C 
HETATM   14  O2  UNL     1      21.187   3.576  44.031  1.00  0.00    -0.253 OA
ENDBRANCH   9  12
ENDBRANCH   5   6
ENDBRANCH   3   4
ENDBRANCH   2   3
BRANCH   1  15
HETATM   15  C4  UNL     1      24.261  -0.319  53.742  1.00  0.00     0.016 C 
HETATM   16  C3  UNL     1      25.241   0.498  53.403  1.00  0.00    -0.006 C 
BRANCH  16  17
HETATM   17  C2  UNL     1      24.968   1.784  52.790  1.00  0.00    -0.012 C 
HETATM   18  C1  UNL     1      25.144   2.032  51.488  1.00  0.00     0.032 C 
ENDBRANCH  16  17
BRANCH  16  19
HETATM   19  C16 UNL     1      26.639   0.159  53.625  1.00  0.00     0.085 A 
HETATM   20  C17 UNL     1      27.509   0.926  54.331  1.00  0.00     0.040 A 
HETATM   21  C18 UNL     1      28.748   0.303  54.342  1.00  0.00     0.035 A 
HETATM   22  C19 UNL     1      28.546  -0.843  53.617  1.00  0.00     0.050 A 
HETATM   23  C20 UNL     1      29.519  -1.914  53.288  1.00  0.00     0.076 C 
HETATM   24  O3  UNL     1      27.308  -0.888  53.219  1.00  0.00    -0.315 OA
ENDBRANCH  16  19
ENDBRANCH   1  15
TORSDOF 7
ENDMDL
MODEL 8
REMARK VINA RESULT:      -7.1      7.265     10.426
REMARK  7 active torsions:
REMARK  status: ('A' for Active; 'I' for Inactive)
REMARK    1  A    between atoms: C2_2  and  C3_3 
REMARK    2  A    between atoms: C3_3  and  C16_19 
REMARK    3  A    between atoms: C4_4  and  C5_5 
REMARK    4  A    between atoms: C6_6  and  O1_7 
REMARK    5  A    between atoms: O1_7  and  C7_8 
REMARK    6  A    between atoms: C8_9  and  C9_10 
REMARK    7  A    between atoms: C12_13  and  S1_14 
ROOT
HETATM    1  C5  UNL     1      28.977   5.495  48.097  1.00  0.00     0.025 C 
HETATM    2  C6  UNL     1      27.893   6.089  48.546  1.00  0.00     0.141 C 
ENDROOT
BRANCH   2   3
HETATM    3  O1  UNL     1      26.595   5.605  48.427  1.00  0.00    -0.335 OA
BRANCH   3   4
HETATM    4  C7  UNL     1      26.161   4.733  49.443  1.00  0.00     0.142 C 
HETATM    5  C8  UNL     1      26.400   3.438  49.573  1.00  0.00     0.036 C 
BRANCH   5   6
HETATM    6  C9  UNL     1      25.935   2.558  50.642  1.00  0.00    -0.034 A 
HETATM    7  C10 UNL     1      26.889   1.990  51.460  1.00  0.00     0.013 A 
HETATM    8  C11 UNL     1      26.384   1.166  52.455  1.00  0.00     0.022 A 
HETATM    9  C12 UNL     1      25.051   0.903  52.651  1.00  0.00     0.031 A 
HETATM   10  C14 UNL     1      24.129   1.501  51.798  1.00  0.00     0.022 A 
HETATM   11  C15 UNL     1      24.596   2.335  50.789  1.00  0.00     0.013 A 
BRANCH   9  12
HETATM   12  S1  UNL     1      24.491  -0.152  53.933  1.00  0.00     0.045 S 
HETATM   13  C13 UNL     1      22.879  -0.856  53.642  1.00  0.00     0.133 C 
HETATM   14  O2  UNL     1      25.514  -1.170  54.354  1.00  0.00    -0.253 OA
ENDBRANCH   9  12
ENDBRANCH   5   6
ENDBRANCH   3   4
ENDBRANCH   2   3
BRANCH   1  15
HETATM   15  C4  UNL     1      30.306   6.072  48.266  1.00  0.00     0.016 C 
HETATM   16  C3  UNL     1      31.345   5.422  47.775  1.00  0.00    -0.006 C 
BRANCH  16  17
HETATM   17  C2  UNL     1      31.181   4.159  47.081  1.00  0.00    -0.012 C 
HETATM   18  C1  UNL     1      32.196   3.339  46.792  1.00  0.00     0.032 C 
ENDBRANCH  16  17
BRANCH  16  19
HETATM   19  C16 UNL     1      32.702   5.931  47.902  1.00  0.00     0.085 A 
HETATM   20  C17 UNL     1      33.195   6.979  47.192  1.00  0.00     0.040 A 
HETATM   21  C18 UNL     1      34.515   7.191  47.564  1.00  0.00     0.035 A 
HETATM   22  C19 UNL     1      34.748   6.225  48.509  1.00  0.00     0.050 A 
HETATM   23  C20 UNL     1      35.994   5.956  49.270  1.00  0.00     0.076 C 
HETATM   24  O3  UNL     1      33.671   5.515  48.675  1.00  0.00    -0.315 OA
ENDBRANCH  16  19
ENDBRANCH   1  15
TORSDOF 7
ENDMDL
MODEL 9
REMARK VINA RESULT:      -7.1      6.054     11.943
REMARK  7 active torsions:
REMARK  status: ('A' for Active; 'I' for Inactive)
REMARK    1  A    between atoms: C2_2  and  C3_3 
REMARK    2  A    between atoms: C3_3  and  C16_19 
REMARK    3  A    between atoms: C4_4  and  C5_5 
REMARK    4  A    between atoms: C6_6  and  O1_7 
REMARK    5  A    between atoms: O1_7  and  C7_8 
REMARK    6  A    between atoms: C8_9  and  C9_10 
REMARK    7  A    between atoms: C12_13  and  S1_14 
ROOT
HETATM    1  C5  UNL     1      23.534   1.471  52.307  1.00  0.00     0.025 C 
HETATM    2  C6  UNL     1      24.534   1.457  51.454  1.00  0.00     0.141 C 
ENDROOT
BRANCH   2   3
HETATM    3  O1  UNL     1      25.846   1.819  51.737  1.00  0.00    -0.335 OA
BRANCH   3   4
HETATM    4  C7  UNL     1      26.325   2.974  51.091  1.00  0.00     0.142 C 
HETATM    5  C8  UNL     1      25.917   3.508  49.951  1.00  0.00     0.036 C 
BRANCH   5   6
HETATM    6  C9  UNL     1      26.435   4.712  49.305  1.00  0.00    -0.034 A 
HETATM    7  C10 UNL     1      27.700   4.650  48.762  1.00  0.00     0.013 A 
HETATM    8  C11 UNL     1      28.134   5.824  48.163  1.00  0.00     0.022 A 
HETATM    9  C12 UNL     1      27.400   6.982  48.091  1.00  0.00     0.031 A 
HETATM   10  C14 UNL     1      26.128   6.992  48.655  1.00  0.00     0.022 A 
HETATM   11  C15 UNL     1      25.658   5.835  49.263  1.00  0.00     0.013 A 
BRANCH   9  12
HETATM   12  S1  UNL     1      28.018   8.427  47.316  1.00  0.00     0.045 S 
HETATM   13  C13 UNL     1      26.877   9.796  47.316  1.00  0.00     0.133 C 
HETATM   14  O2  UNL     1      29.397   8.806  47.780  1.00  0.00    -0.253 OA
ENDBRANCH   9  12
ENDBRANCH   5   6
ENDBRANCH   3   4
ENDBRANCH   2   3
BRANCH   1  15
HETATM   15  C4  UNL     1      22.183   1.073  51.927  1.00  0.00     0.016 C 
HETATM   16  C3  UNL     1      21.443   0.424  52.807  1.00  0.00    -0.006 C 
BRANCH  16  17
HETATM   17  C2  UNL     1      21.953   0.107  54.128  1.00  0.00    -0.012 C 
HETATM   18  C1  UNL     1      22.353  -1.116  54.489  1.00  0.00     0.032 C 
ENDBRANCH  16  17
BRANCH  16  19
HETATM   19  C16 UNL     1      20.086  -0.007  52.506  1.00  0.00     0.085 A 
HETATM   20  C17 UNL     1      19.408   0.334  51.380  1.00  0.00     0.040 A 
HETATM   21  C18 UNL     1      18.150  -0.249  51.420  1.00  0.00     0.035 A 
HETATM   22  C19 UNL     1      18.143  -0.932  52.610  1.00  0.00     0.050 A 
HETATM   23  C20 UNL     1      17.056  -1.752  53.200  1.00  0.00     0.076 C 
HETATM   24  O3  UNL     1      19.286  -0.765  53.209  1.00  0.00    -0.315 OA
ENDBRANCH  16  19
ENDBRANCH   1  15
TORSDOF 7
ENDMDL
