MODEL 1
REMARK VINA RESULT:      -9.8      0.000      0.000
REMARK  7 active torsions:
REMARK  status: ('A' for Active; 'I' for Inactive)
REMARK    1  A    between atoms: C7_7  and  C8_8 
REMARK    2  A    between atoms: C8_8  and  C9_9 
REMARK    3  A    between atoms: C9_9  and  O1_10 
REMARK    4  A    between atoms: O1_10  and  C10_11 
REMARK    5  A    between atoms: C10_11  and  P1_12 
REMARK    6  A    between atoms: P1_12  and  C11_13 
REMARK    7  A    between atoms: C14_16  and  O2_17 
ROOT
HETATM    1  C9  UNL     1      26.164   2.155  52.777  1.00  0.00     0.170 C 
HETATM    2  N1  UNL     1      27.031   2.427  53.972  1.00  0.00    -0.348 N 
HETATM    3  C17 UNL     1      27.806   1.314  53.547  1.00  0.00     0.083 C 
HETATM    4  S1  UNL     1      29.272   0.533  53.563  1.00  0.00    -0.084 SA
HETATM    5  C18 UNL     1      29.461  -1.107  53.367  1.00  0.00     0.052 C 
HETATM    6  C19 UNL     1      28.335  -2.015  53.025  1.00  0.00     0.007 C 
HETATM    7  C20 UNL     1      27.097  -1.723  52.669  1.00  0.00     0.001 C 
HETATM    8  C21 UNL     1      26.411  -0.483  52.488  1.00  0.00     0.015 C 
HETATM    9  C22 UNL     1      26.635   0.769  52.815  1.00  0.00     0.031 C 
HETATM   10  H19 UNL     1      27.163   3.043  54.788  1.00  0.00     0.163 HD
ENDROOT
BRANCH   1  11
HETATM   11  C8  UNL     1      24.737   2.477  53.095  1.00  0.00     0.105 C 
BRANCH  11  12
HETATM   12  C7  UNL     1      23.767   1.460  52.719  1.00  0.00    -0.053 C 
HETATM   13  C6  UNL     1      23.502   0.196  53.393  1.00  0.00     0.003 C 
HETATM   14  C5  UNL     1      22.387  -0.514  53.495  1.00  0.00    -0.022 C 
HETATM   15  C4  UNL     1      21.058  -0.188  52.920  1.00  0.00     0.054 C 
HETATM   16  C3  UNL     1      21.184   0.221  51.482  1.00  0.00    -0.016 C 
HETATM   17  C2  UNL     1      22.017   1.052  50.819  1.00  0.00    -0.065 C 
HETATM   18  C1  UNL     1      21.948   1.309  49.337  1.00  0.00     0.048 C 
HETATM   19  C23 UNL     1      23.069   1.760  51.589  1.00  0.00     0.013 C 
ENDBRANCH  11  12
ENDBRANCH   1  11
BRANCH   1  20
HETATM   20  O1  UNL     1      26.729   2.849  51.750  1.00  0.00    -0.351 OA
BRANCH  20  21
HETATM   21  C10 UNL     1      26.355   2.691  50.476  1.00  0.00     0.206 C 
BRANCH  21  22
HETATM   22  P1  UNL     1      25.405   4.094  49.726  1.00  0.00    -0.070 P 
HETATM   23  H13 UNL     1      24.441   3.577  48.797  1.00  0.00     0.064 HD
BRANCH  22  24
HETATM   24  C11 UNL     1      26.592   5.227  48.937  1.00  0.00    -0.032 A 
HETATM   25  C12 UNL     1      27.865   4.737  48.704  1.00  0.00     0.015 A 
HETATM   26  C13 UNL     1      28.871   5.480  48.112  1.00  0.00     0.037 A 
HETATM   27  C14 UNL     1      28.583   6.785  47.734  1.00  0.00     0.065 A 
HETATM   28  C15 UNL     1      27.307   7.254  47.976  1.00  0.00     0.037 A 
HETATM   29  C16 UNL     1      26.318   6.505  48.563  1.00  0.00     0.015 A 
BRANCH  27  30
HETATM   30  O2  UNL     1      29.605   7.509  47.145  1.00  0.00    -0.361 OA
HETATM   31  H16 UNL     1      30.456   7.795  47.570  1.00  0.00     0.217 HD
ENDBRANCH  27  30
ENDBRANCH  22  24
ENDBRANCH  21  22
ENDBRANCH  20  21
ENDBRANCH   1  20
TORSDOF 7
ENDMDL
MODEL 2
REMARK VINA RESULT:      -9.7      2.021      2.741
REMARK  7 active torsions:
REMARK  status: ('A' for Active; 'I' for Inactive)
REMARK    1  A    between atoms: C7_7  and  C8_8 
REMARK    2  A    between atoms: C8_8  and  C9_9 
REMARK    3  A    between atoms: C9_9  and  O1_10 
REMARK    4  A    between atoms: O1_10  and  C10_11 
REMARK    5  A    between atoms: C10_11  and  P1_12 
REMARK    6  A    between atoms: P1_12  and  C11_13 
REMARK    7  A    between atoms: C14_16  and  O2_17 
ROOT
HETATM    1  C9  UNL     1      26.387   2.106  52.615  1.00  0.00     0.170 C 
HETATM    2  N1  UNL     1      27.245   2.369  53.817  1.00  0.00    -0.348 N 
HETATM    3  C17 UNL     1      27.968   1.205  53.441  1.00  0.00     0.083 C 
HETATM    4  S1  UNL     1      29.391   0.350  53.508  1.00  0.00    -0.084 SA
HETATM    5  C18 UNL     1      29.496  -1.304  53.365  1.00  0.00     0.052 C 
HETATM    6  C19 UNL     1      28.330  -2.162  53.029  1.00  0.00     0.007 C 
HETATM    7  C20 UNL     1      27.116  -1.817  52.641  1.00  0.00     0.001 C 
HETATM    8  C21 UNL     1      26.499  -0.549  52.410  1.00  0.00     0.015 C 
HETATM    9  C22 UNL     1      26.783   0.700  52.703  1.00  0.00     0.031 C 
HETATM   10  H19 UNL     1      27.396   3.003  54.617  1.00  0.00     0.163 HD
ENDROOT
BRANCH   1  11
HETATM   11  C8  UNL     1      24.973   2.512  52.895  1.00  0.00     0.105 C 
BRANCH  11  12
HETATM   12  C7  UNL     1      23.962   1.508  52.597  1.00  0.00    -0.053 C 
HETATM   13  C6  UNL     1      23.705   0.268  53.317  1.00  0.00     0.003 C 
HETATM   14  C5  UNL     1      22.582  -0.413  53.495  1.00  0.00    -0.022 C 
HETATM   15  C4  UNL     1      21.232  -0.070  52.980  1.00  0.00     0.054 C 
HETATM   16  C3  UNL     1      21.293   0.299  51.528  1.00  0.00    -0.016 C 
HETATM   17  C2  UNL     1      22.108   1.092  50.801  1.00  0.00    -0.065 C 
HETATM   18  C1  UNL     1      21.968   1.314  49.318  1.00  0.00     0.048 C 
HETATM   19  C23 UNL     1      23.214   1.796  51.497  1.00  0.00     0.013 C 
ENDBRANCH  11  12
ENDBRANCH   1  11
BRANCH   1  20
HETATM   20  O1  UNL     1      27.005   2.738  51.579  1.00  0.00    -0.351 OA
BRANCH  20  21
HETATM   21  C10 UNL     1      26.505   2.756  50.339  1.00  0.00     0.206 C 
BRANCH  21  22
HETATM   22  P1  UNL     1      26.573   4.385  49.457  1.00  0.00    -0.070 P 
HETATM   23  H13 UNL     1      27.838   5.014  49.712  1.00  0.00     0.064 HD
BRANCH  22  24
HETATM   24  C11 UNL     1      25.168   5.395  50.019  1.00  0.00    -0.032 A 
HETATM   25  C12 UNL     1      23.922   4.793  50.016  1.00  0.00     0.015 A 
HETATM   26  C13 UNL     1      22.764   5.436  50.416  1.00  0.00     0.037 A 
HETATM   27  C14 UNL     1      22.862   6.754  50.843  1.00  0.00     0.065 A 
HETATM   28  C15 UNL     1      24.114   7.335  50.838  1.00  0.00     0.037 A 
HETATM   29  C16 UNL     1      25.255   6.686  50.440  1.00  0.00     0.015 A 
BRANCH  27  30
HETATM   30  O2  UNL     1      21.691   7.375  51.238  1.00  0.00    -0.361 OA
HETATM   31  H16 UNL     1      21.604   8.158  51.843  1.00  0.00     0.217 HD
ENDBRANCH  27  30
ENDBRANCH  22  24
ENDBRANCH  21  22
ENDBRANCH  20  21
ENDBRANCH   1  20
TORSDOF 7
ENDMDL
MODEL 3
REMARK VINA RESULT:      -9.6      3.322      6.810
REMARK  7 active torsions:
REMARK  status: ('A' for Active; 'I' for Inactive)
REMARK    1  A    between atoms: C7_7  and  C8_8 
REMARK    2  A    between atoms: C8_8  and  C9_9 
REMARK    3  A    between atoms: C9_9  and  O1_10 
REMARK    4  A    between atoms: O1_10  and  C10_11 
REMARK    5  A    between atoms: C10_11  and  P1_12 
REMARK    6  A    between atoms: P1_12  and  C11_13 
REMARK    7  A    between atoms: C14_16  and  O2_17 
ROOT
HETATM    1  C9  UNL     1      23.930   2.936  50.958  1.00  0.00     0.170 C 
HETATM    2  N1  UNL     1      24.489   3.312  49.618  1.00  0.00    -0.348 N 
HETATM    3  C17 UNL     1      24.229   4.659  49.990  1.00  0.00     0.083 C 
HETATM    4  S1  UNL     1      24.588   6.268  49.787  1.00  0.00    -0.084 SA
HETATM    5  C18 UNL     1      23.519   7.508  50.074  1.00  0.00     0.052 C 
HETATM    6  C19 UNL     1      22.174   7.295  50.669  1.00  0.00     0.007 C 
HETATM    7  C20 UNL     1      21.655   6.204  51.206  1.00  0.00     0.001 C 
HETATM    8  C21 UNL     1      22.169   4.886  51.404  1.00  0.00     0.015 C 
HETATM    9  C22 UNL     1      23.193   4.201  50.948  1.00  0.00     0.031 C 
HETATM   10  H19 UNL     1      24.897   2.941  48.746  1.00  0.00     0.163 HD
ENDROOT
BRANCH   1  11
HETATM   11  C8  UNL     1      23.197   1.633  50.862  1.00  0.00     0.105 C 
BRANCH  11  12
HETATM   12  C7  UNL     1      22.558   1.182  52.089  1.00  0.00    -0.053 C 
HETATM   13  C6  UNL     1      21.285   1.627  52.640  1.00  0.00     0.003 C 
HETATM   14  C5  UNL     1      20.388   0.986  53.376  1.00  0.00    -0.022 C 
HETATM   15  C4  UNL     1      20.454  -0.419  53.850  1.00  0.00     0.054 C 
HETATM   16  C3  UNL     1      21.800  -0.721  54.442  1.00  0.00    -0.016 C 
HETATM   17  C2  UNL     1      23.067  -0.469  54.051  1.00  0.00    -0.065 C 
HETATM   18  C1  UNL     1      24.288  -0.881  54.831  1.00  0.00     0.048 C 
HETATM   19  C23 UNL     1      23.282   0.255  52.775  1.00  0.00     0.013 C 
ENDBRANCH  11  12
ENDBRANCH   1  11
BRANCH   1  20
HETATM   20  O1  UNL     1      24.985   2.976  51.819  1.00  0.00    -0.351 OA
BRANCH  20  21
HETATM   21  C10 UNL     1      26.144   2.357  51.574  1.00  0.00     0.206 C 
BRANCH  21  22
HETATM   22  P1  UNL     1      27.276   2.143  53.025  1.00  0.00    -0.070 P 
HETATM   23  H13 UNL     1      28.385   3.046  52.904  1.00  0.00     0.064 HD
BRANCH  22  24
HETATM   24  C11 UNL     1      27.801   0.401  53.086  1.00  0.00    -0.032 A 
HETATM   25  C12 UNL     1      26.891  -0.543  52.644  1.00  0.00     0.015 A 
HETATM   26  C13 UNL     1      27.149  -1.902  52.631  1.00  0.00     0.037 A 
HETATM   27  C14 UNL     1      28.387  -2.336  53.085  1.00  0.00     0.065 A 
HETATM   28  C15 UNL     1      29.280  -1.378  53.522  1.00  0.00     0.037 A 
HETATM   29  C16 UNL     1      29.011  -0.033  53.529  1.00  0.00     0.015 A 
BRANCH  27  30
HETATM   30  O2  UNL     1      28.622  -3.700  53.063  1.00  0.00    -0.361 OA
HETATM   31  H16 UNL     1      29.093  -4.236  53.753  1.00  0.00     0.217 HD
ENDBRANCH  27  30
ENDBRANCH  22  24
ENDBRANCH  21  22
ENDBRANCH  20  21
ENDBRANCH   1  20
TORSDOF 7
ENDMDL
MODEL 4
REMARK VINA RESULT:      -9.4      2.928      7.345
REMARK  7 active torsions:
REMARK  status: ('A' for Active; 'I' for Inactive)
REMARK    1  A    between atoms: C7_7  and  C8_8 
REMARK    2  A    between atoms: C8_8  and  C9_9 
REMARK    3  A    between atoms: C9_9  and  O1_10 
REMARK    4  A    between atoms: O1_10  and  C10_11 
REMARK    5  A    between atoms: C10_11  and  P1_12 
REMARK    6  A    between atoms: P1_12  and  C11_13 
REMARK    7  A    between atoms: C14_16  and  O2_17 
ROOT
HETATM    1  C9  UNL     1      24.103   3.323  51.674  1.00  0.00     0.170 C 
HETATM    2  N1  UNL     1      24.133   4.725  52.210  1.00  0.00    -0.348 N 
HETATM    3  C17 UNL     1      24.696   5.093  50.958  1.00  0.00     0.083 C 
HETATM    4  S1  UNL     1      24.966   6.287  49.834  1.00  0.00    -0.084 SA
HETATM    5  C18 UNL     1      26.244   6.298  48.771  1.00  0.00     0.052 C 
HETATM    6  C19 UNL     1      27.196   5.165  48.638  1.00  0.00     0.007 C 
HETATM    7  C20 UNL     1      27.139   3.953  49.162  1.00  0.00     0.001 C 
HETATM    8  C21 UNL     1      26.185   3.311  50.010  1.00  0.00     0.015 C 
HETATM    9  C22 UNL     1      25.182   3.705  50.760  1.00  0.00     0.031 C 
HETATM   10  H19 UNL     1      23.910   5.314  53.026  1.00  0.00     0.163 HD
ENDROOT
BRANCH   1  11
HETATM   11  C8  UNL     1      24.359   2.346  52.779  1.00  0.00     0.105 C 
BRANCH  11  12
HETATM   12  C7  UNL     1      25.707   1.801  52.834  1.00  0.00    -0.053 C 
HETATM   13  C6  UNL     1      26.957   2.541  52.957  1.00  0.00     0.003 C 
HETATM   14  C5  UNL     1      28.108   2.207  53.523  1.00  0.00    -0.022 C 
HETATM   15  C4  UNL     1      28.436   0.931  54.208  1.00  0.00     0.054 C 
HETATM   16  C3  UNL     1      27.996  -0.245  53.388  1.00  0.00    -0.016 C 
HETATM   17  C2  UNL     1      26.863  -0.541  52.715  1.00  0.00    -0.065 C 
HETATM   18  C1  UNL     1      26.648  -1.817  51.945  1.00  0.00     0.048 C 
HETATM   19  C23 UNL     1      25.754   0.445  52.731  1.00  0.00     0.013 C 
ENDBRANCH  11  12
ENDBRANCH   1  11
BRANCH   1  20
HETATM   20  O1  UNL     1      22.912   3.206  51.023  1.00  0.00    -0.351 OA
BRANCH  20  21
HETATM   21  C10 UNL     1      22.531   2.082  50.407  1.00  0.00     0.206 C 
BRANCH  21  22
HETATM   22  P1  UNL     1      20.997   1.275  51.063  1.00  0.00    -0.070 P 
HETATM   23  H13 UNL     1      19.993   2.274  51.296  1.00  0.00     0.064 HD
BRANCH  22  24
HETATM   24  C11 UNL     1      21.436   0.365  52.577  1.00  0.00    -0.032 A 
HETATM   25  C12 UNL     1      22.360  -0.658  52.447  1.00  0.00     0.015 A 
HETATM   26  C13 UNL     1      22.790  -1.436  53.508  1.00  0.00     0.037 A 
HETATM   27  C14 UNL     1      22.265  -1.171  54.766  1.00  0.00     0.065 A 
HETATM   28  C15 UNL     1      21.345  -0.147  54.873  1.00  0.00     0.037 A 
HETATM   29  C16 UNL     1      20.928   0.617  53.813  1.00  0.00     0.015 A 
BRANCH  27  30
HETATM   30  O2  UNL     1      22.710  -1.962  55.811  1.00  0.00    -0.361 OA
HETATM   31  H16 UNL     1      22.593  -2.943  55.910  1.00  0.00     0.217 HD
ENDBRANCH  27  30
ENDBRANCH  22  24
ENDBRANCH  21  22
ENDBRANCH  20  21
ENDBRANCH   1  20
TORSDOF 7
ENDMDL
MODEL 5
REMARK VINA RESULT:      -9.2      2.894      7.576
REMARK  7 active torsions:
REMARK  status: ('A' for Active; 'I' for Inactive)
REMARK    1  A    between atoms: C7_7  and  C8_8 
REMARK    2  A    between atoms: C8_8  and  C9_9 
REMARK    3  A    between atoms: C9_9  and  O1_10 
REMARK    4  A    between atoms: O1_10  and  C10_11 
REMARK    5  A    between atoms: C10_11  and  P1_12 
REMARK    6  A    between atoms: P1_12  and  C11_13 
REMARK    7  A    between atoms: C14_16  and  O2_17 
ROOT
HETATM    1  C9  UNL     1      23.892   3.453  50.353  1.00  0.00     0.170 C 
HETATM    2  N1  UNL     1      22.952   4.515  50.844  1.00  0.00    -0.348 N 
HETATM    3  C17 UNL     1      22.185   3.452  51.394  1.00  0.00     0.083 C 
HETATM    4  S1  UNL     1      21.073   2.958  52.525  1.00  0.00    -0.084 SA
HETATM    5  C18 UNL     1      20.053   1.659  52.330  1.00  0.00     0.052 C 
HETATM    6  C19 UNL     1      20.136   0.734  51.170  1.00  0.00     0.007 C 
HETATM    7  C20 UNL     1      21.056   0.649  50.225  1.00  0.00     0.001 C 
HETATM    8  C21 UNL     1      22.258   1.381  49.979  1.00  0.00     0.015 C 
HETATM    9  C22 UNL     1      22.773   2.510  50.409  1.00  0.00     0.031 C 
HETATM   10  H19 UNL     1      22.776   5.531  50.873  1.00  0.00     0.163 HD
ENDROOT
BRANCH   1  11
HETATM   11  C8  UNL     1      24.475   3.856  49.034  1.00  0.00     0.105 C 
BRANCH  11  12
HETATM   12  C7  UNL     1      25.628   4.741  49.103  1.00  0.00    -0.053 C 
HETATM   13  C6  UNL     1      27.036   4.366  49.079  1.00  0.00     0.003 C 
HETATM   14  C5  UNL     1      28.097   5.014  48.620  1.00  0.00    -0.022 C 
HETATM   15  C4  UNL     1      28.125   6.354  47.982  1.00  0.00     0.054 C 
HETATM   16  C3  UNL     1      27.321   7.341  48.777  1.00  0.00    -0.016 C 
HETATM   17  C2  UNL     1      26.101   7.301  49.352  1.00  0.00    -0.065 C 
HETATM   18  C1  UNL     1      25.490   8.445  50.118  1.00  0.00     0.048 C 
HETATM   19  C23 UNL     1      25.302   6.057  49.227  1.00  0.00     0.013 C 
ENDBRANCH  11  12
ENDBRANCH   1  11
BRANCH   1  20
HETATM   20  O1  UNL     1      24.775   3.247  51.369  1.00  0.00    -0.351 OA
BRANCH  20  21
HETATM   21  C10 UNL     1      25.451   2.104  51.521  1.00  0.00     0.206 C 
BRANCH  21  22
HETATM   22  P1  UNL     1      26.866   2.147  52.716  1.00  0.00    -0.070 P 
HETATM   23  H13 UNL     1      27.869   3.056  52.237  1.00  0.00     0.064 HD
BRANCH  22  24
HETATM   24  C11 UNL     1      27.500   0.452  52.909  1.00  0.00    -0.032 A 
HETATM   25  C12 UNL     1      26.658  -0.578  52.528  1.00  0.00     0.015 A 
HETATM   26  C13 UNL     1      27.003  -1.916  52.617  1.00  0.00     0.037 A 
HETATM   27  C14 UNL     1      28.259  -2.235  53.115  1.00  0.00     0.065 A 
HETATM   28  C15 UNL     1      29.083  -1.192  53.489  1.00  0.00     0.037 A 
HETATM   29  C16 UNL     1      28.729   0.130  53.395  1.00  0.00     0.015 A 
BRANCH  27  30
HETATM   30  O2  UNL     1      28.581  -3.579  53.195  1.00  0.00    -0.361 OA
HETATM   31  H16 UNL     1      28.575  -4.239  52.453  1.00  0.00     0.217 HD
ENDBRANCH  27  30
ENDBRANCH  22  24
ENDBRANCH  21  22
ENDBRANCH  20  21
ENDBRANCH   1  20
TORSDOF 7
ENDMDL
MODEL 6
REMARK VINA RESULT:      -9.1      2.361      3.385
REMARK  7 active torsions:
REMARK  status: ('A' for Active; 'I' for Inactive)
REMARK    1  A    between atoms: C7_7  and  C8_8 
REMARK    2  A    between atoms: C8_8  and  C9_9 
REMARK    3  A    between atoms: C9_9  and  O1_10 
REMARK    4  A    between atoms: O1_10  and  C10_11 
REMARK    5  A    between atoms: C10_11  and  P1_12 
REMARK    6  A    between atoms: P1_12  and  C11_13 
REMARK    7  A    between atoms: C14_16  and  O2_17 
ROOT
HETATM    1  C9  UNL     1      25.922   2.310  51.371  1.00  0.00     0.170 C 
HETATM    2  N1  UNL     1      25.856   2.911  52.745  1.00  0.00    -0.348 N 
HETATM    3  C17 UNL     1      26.924   2.035  53.079  1.00  0.00     0.083 C 
HETATM    4  S1  UNL     1      28.218   1.708  54.069  1.00  0.00    -0.084 SA
HETATM    5  C18 UNL     1      28.788   0.179  54.389  1.00  0.00     0.052 C 
HETATM    6  C19 UNL     1      28.269  -1.036  53.708  1.00  0.00     0.007 C 
HETATM    7  C20 UNL     1      27.445  -1.137  52.680  1.00  0.00     0.001 C 
HETATM    8  C21 UNL     1      26.778  -0.162  51.877  1.00  0.00     0.015 C 
HETATM    9  C22 UNL     1      26.530   1.124  51.976  1.00  0.00     0.031 C 
HETATM   10  H19 UNL     1      25.368   3.603  53.335  1.00  0.00     0.163 HD
ENDROOT
BRANCH   1  11
HETATM   11  C8  UNL     1      24.549   2.237  50.778  1.00  0.00     0.105 C 
BRANCH  11  12
HETATM   12  C7  UNL     1      23.454   2.206  51.735  1.00  0.00    -0.053 C 
HETATM   13  C6  UNL     1      22.623   3.323  52.167  1.00  0.00     0.003 C 
HETATM   14  C5  UNL     1      21.360   3.359  52.567  1.00  0.00    -0.022 C 
HETATM   15  C4  UNL     1      20.421   2.214  52.683  1.00  0.00     0.054 C 
HETATM   16  C3  UNL     1      21.070   1.061  53.390  1.00  0.00    -0.016 C 
HETATM   17  C2  UNL     1      22.274   0.460  53.283  1.00  0.00    -0.065 C 
HETATM   18  C1  UNL     1      22.710  -0.712  54.123  1.00  0.00     0.048 C 
HETATM   19  C23 UNL     1      23.235   0.977  52.277  1.00  0.00     0.013 C 
ENDBRANCH  11  12
ENDBRANCH   1  11
BRANCH   1  20
HETATM   20  O1  UNL     1      26.838   3.053  50.691  1.00  0.00    -0.351 OA
BRANCH  20  21
HETATM   21  C10 UNL     1      26.685   3.394  49.407  1.00  0.00     0.206 C 
BRANCH  21  22
HETATM   22  P1  UNL     1      26.610   5.211  49.050  1.00  0.00    -0.070 P 
HETATM   23  H13 UNL     1      27.704   5.872  49.702  1.00  0.00     0.064 HD
BRANCH  22  24
HETATM   24  C11 UNL     1      24.992   5.833  49.604  1.00  0.00    -0.032 A 
HETATM   25  C12 UNL     1      24.999   6.815  50.579  1.00  0.00     0.015 A 
HETATM   26  C13 UNL     1      23.848   7.382  51.098  1.00  0.00     0.037 A 
HETATM   27  C14 UNL     1      22.625   6.941  50.610  1.00  0.00     0.065 A 
HETATM   28  C15 UNL     1      22.641   5.961  49.637  1.00  0.00     0.037 A 
HETATM   29  C16 UNL     1      23.790   5.407  49.132  1.00  0.00     0.015 A 
BRANCH  27  30
HETATM   30  O2  UNL     1      21.489   7.523  51.143  1.00  0.00    -0.361 OA
HETATM   31  H16 UNL     1      20.759   7.065  51.638  1.00  0.00     0.217 HD
ENDBRANCH  27  30
ENDBRANCH  22  24
ENDBRANCH  21  22
ENDBRANCH  20  21
ENDBRANCH   1  20
TORSDOF 7
ENDMDL
MODEL 7
REMARK VINA RESULT:      -9.1      3.189      7.711
REMARK  7 active torsions:
REMARK  status: ('A' for Active; 'I' for Inactive)
REMARK    1  A    between atoms: C7_7  and  C8_8 
REMARK    2  A    between atoms: C8_8  and  C9_9 
REMARK    3  A    between atoms: C9_9  and  O1_10 
REMARK    4  A    between atoms: O1_10  and  C10_11 
REMARK    5  A    between atoms: C10_11  and  P1_12 
REMARK    6  A    between atoms: P1_12  and  C11_13 
REMARK    7  A    between atoms: C14_16  and  O2_17 
ROOT
HETATM    1  C9  UNL     1      24.039   3.415  52.238  1.00  0.00     0.170 C 
HETATM    2  N1  UNL     1      23.702   4.873  52.355  1.00  0.00    -0.348 N 
HETATM    3  C17 UNL     1      24.200   5.000  51.030  1.00  0.00     0.083 C 
HETATM    4  S1  UNL     1      24.206   5.855  49.606  1.00  0.00    -0.084 SA
HETATM    5  C18 UNL     1      25.479   5.881  48.536  1.00  0.00     0.052 C 
HETATM    6  C19 UNL     1      26.686   5.029  48.695  1.00  0.00     0.007 C 
HETATM    7  C20 UNL     1      26.913   4.040  49.542  1.00  0.00     0.001 C 
HETATM    8  C21 UNL     1      26.118   3.449  50.571  1.00  0.00     0.015 C 
HETATM    9  C22 UNL     1      25.022   3.778  51.215  1.00  0.00     0.031 C 
HETATM   10  H19 UNL     1      23.310   5.595  52.979  1.00  0.00     0.163 HD
ENDROOT
BRANCH   1  11
HETATM   11  C8  UNL     1      24.489   2.885  53.565  1.00  0.00     0.105 C 
BRANCH  11  12
HETATM   12  C7  UNL     1      25.334   1.702  53.512  1.00  0.00    -0.053 C 
HETATM   13  C6  UNL     1      24.907   0.311  53.421  1.00  0.00     0.003 C 
HETATM   14  C5  UNL     1      25.491  -0.739  52.861  1.00  0.00    -0.022 C 
HETATM   15  C4  UNL     1      26.792  -0.770  52.148  1.00  0.00     0.054 C 
HETATM   16  C3  UNL     1      27.849  -0.052  52.934  1.00  0.00    -0.016 C 
HETATM   17  C2  UNL     1      27.885   1.130  53.585  1.00  0.00    -0.065 C 
HETATM   18  C1  UNL     1      29.091   1.653  54.321  1.00  0.00     0.048 C 
HETATM   19  C23 UNL     1      26.666   1.976  53.581  1.00  0.00     0.013 C 
ENDBRANCH  11  12
ENDBRANCH   1  11
BRANCH   1  20
HETATM   20  O1  UNL     1      22.939   2.827  51.692  1.00  0.00    -0.351 OA
BRANCH  20  21
HETATM   21  C10 UNL     1      23.012   1.778  50.867  1.00  0.00     0.206 C 
BRANCH  21  22
HETATM   22  P1  UNL     1      21.418   1.239  50.092  1.00  0.00    -0.070 P 
HETATM   23  H13 UNL     1      20.766   2.372  49.500  1.00  0.00     0.064 HD
BRANCH  22  24
HETATM   24  C11 UNL     1      20.401   0.444  51.376  1.00  0.00    -0.032 A 
HETATM   25  C12 UNL     1      19.066   0.235  51.077  1.00  0.00     0.015 A 
HETATM   26  C13 UNL     1      18.173  -0.357  51.953  1.00  0.00     0.037 A 
HETATM   27  C14 UNL     1      18.647  -0.761  53.194  1.00  0.00     0.065 A 
HETATM   28  C15 UNL     1      19.982  -0.543  53.472  1.00  0.00     0.037 A 
HETATM   29  C16 UNL     1      20.857   0.044  52.593  1.00  0.00     0.015 A 
BRANCH  27  30
HETATM   30  O2  UNL     1      17.736  -1.351  54.053  1.00  0.00    -0.361 OA
HETATM   31  H16 UNL     1      17.039  -2.018  53.818  1.00  0.00     0.217 HD
ENDBRANCH  27  30
ENDBRANCH  22  24
ENDBRANCH  21  22
ENDBRANCH  20  21
ENDBRANCH   1  20
TORSDOF 7
ENDMDL
MODEL 8
REMARK VINA RESULT:      -9.0      3.987      7.444
REMARK  7 active torsions:
REMARK  status: ('A' for Active; 'I' for Inactive)
REMARK    1  A    between atoms: C7_7  and  C8_8 
REMARK    2  A    between atoms: C8_8  and  C9_9 
REMARK    3  A    between atoms: C9_9  and  O1_10 
REMARK    4  A    between atoms: O1_10  and  C10_11 
REMARK    5  A    between atoms: C10_11  and  P1_12 
REMARK    6  A    between atoms: P1_12  and  C11_13 
REMARK    7  A    between atoms: C14_16  and  O2_17 
ROOT
HETATM    1  C9  UNL     1      24.969   1.715  52.045  1.00  0.00     0.170 C 
HETATM    2  N1  UNL     1      25.469   3.022  52.587  1.00  0.00    -0.348 N 
HETATM    3  C17 UNL     1      24.201   3.552  52.226  1.00  0.00     0.083 C 
HETATM    4  S1  UNL     1      23.044   4.719  52.468  1.00  0.00    -0.084 SA
HETATM    5  C18 UNL     1      21.964   5.220  51.307  1.00  0.00     0.052 C 
HETATM    6  C19 UNL     1      21.848   4.569  49.976  1.00  0.00     0.007 C 
HETATM    7  C20 UNL     1      22.402   3.454  49.534  1.00  0.00     0.001 C 
HETATM    8  C21 UNL     1      23.279   2.504  50.141  1.00  0.00     0.015 C 
HETATM    9  C22 UNL     1      24.032   2.477  51.217  1.00  0.00     0.031 C 
HETATM   10  H19 UNL     1      26.274   3.492  53.030  1.00  0.00     0.163 HD
ENDROOT
BRANCH   1  11
HETATM   11  C8  UNL     1      26.095   0.958  51.411  1.00  0.00     0.105 C 
BRANCH  11  12
HETATM   12  C7  UNL     1      26.966   0.244  52.333  1.00  0.00    -0.053 C 
HETATM   13  C6  UNL     1      26.879  -1.156  52.729  1.00  0.00     0.003 C 
HETATM   14  C5  UNL     1      27.824  -2.015  53.087  1.00  0.00    -0.022 C 
HETATM   15  C4  UNL     1      29.283  -1.758  53.181  1.00  0.00     0.054 C 
HETATM   16  C3  UNL     1      29.554  -0.479  53.918  1.00  0.00    -0.016 C 
HETATM   17  C2  UNL     1      29.028   0.763  53.855  1.00  0.00    -0.065 C 
HETATM   18  C1  UNL     1      29.475   1.913  54.718  1.00  0.00     0.048 C 
HETATM   19  C23 UNL     1      27.942   1.021  52.877  1.00  0.00     0.013 C 
ENDBRANCH  11  12
ENDBRANCH   1  11
BRANCH   1  20
HETATM   20  O1  UNL     1      24.338   1.104  53.086  1.00  0.00    -0.351 OA
BRANCH  20  21
HETATM   21  C10 UNL     1      23.522   0.057  52.925  1.00  0.00     0.206 C 
BRANCH  21  22
HETATM   22  P1  UNL     1      21.824   0.231  53.646  1.00  0.00    -0.070 P 
HETATM   23  H13 UNL     1      21.369  -1.049  54.112  1.00  0.00     0.064 HD
BRANCH  22  24
HETATM   24  C11 UNL     1      20.733   0.934  52.370  1.00  0.00    -0.032 A 
HETATM   25  C12 UNL     1      20.133   2.147  52.659  1.00  0.00     0.015 A 
HETATM   26  C13 UNL     1      19.280   2.802  51.787  1.00  0.00     0.037 A 
HETATM   27  C14 UNL     1      19.017   2.207  50.560  1.00  0.00     0.065 A 
HETATM   28  C15 UNL     1      19.626   0.997  50.293  1.00  0.00     0.037 A 
HETATM   29  C16 UNL     1      20.470   0.359  51.166  1.00  0.00     0.015 A 
BRANCH  27  30
HETATM   30  O2  UNL     1      18.162   2.880  49.706  1.00  0.00    -0.361 OA
HETATM   31  H16 UNL     1      18.017   3.861  49.656  1.00  0.00     0.217 HD
ENDBRANCH  27  30
ENDBRANCH  22  24
ENDBRANCH  21  22
ENDBRANCH  20  21
ENDBRANCH   1  20
TORSDOF 7
ENDMDL
MODEL 9
REMARK VINA RESULT:      -9.0      3.120      6.958
REMARK  7 active torsions:
REMARK  status: ('A' for Active; 'I' for Inactive)
REMARK    1  A    between atoms: C7_7  and  C8_8 
REMARK    2  A    between atoms: C8_8  and  C9_9 
REMARK    3  A    between atoms: C9_9  and  O1_10 
REMARK    4  A    between atoms: O1_10  and  C10_11 
REMARK    5  A    between atoms: C10_11  and  P1_12 
REMARK    6  A    between atoms: P1_12  and  C11_13 
REMARK    7  A    between atoms: C14_16  and  O2_17 
ROOT
HETATM    1  C9  UNL     1      24.882   2.373  52.799  1.00  0.00     0.170 C 
HETATM    2  N1  UNL     1      24.186   3.665  53.113  1.00  0.00    -0.348 N 
HETATM    3  C17 UNL     1      24.294   3.954  51.726  1.00  0.00     0.083 C 
HETATM    4  S1  UNL     1      23.717   4.796  50.416  1.00  0.00    -0.084 SA
HETATM    5  C18 UNL     1      24.635   5.214  49.094  1.00  0.00     0.052 C 
HETATM    6  C19 UNL     1      26.035   4.752  48.903  1.00  0.00     0.007 C 
HETATM    7  C20 UNL     1      26.727   3.859  49.589  1.00  0.00     0.001 C 
HETATM    8  C21 UNL     1      26.403   3.044  50.716  1.00  0.00     0.015 C 
HETATM    9  C22 UNL     1      25.447   3.026  51.616  1.00  0.00     0.031 C 
HETATM   10  H19 UNL     1      23.768   4.230  53.869  1.00  0.00     0.163 HD
ENDROOT
BRANCH   1  11
HETATM   11  C8  UNL     1      25.767   1.977  53.940  1.00  0.00     0.105 C 
BRANCH  11  12
HETATM   12  C7  UNL     1      26.933   1.184  53.581  1.00  0.00    -0.053 C 
HETATM   13  C6  UNL     1      28.310   1.642  53.448  1.00  0.00     0.003 C 
HETATM   14  C5  UNL     1      29.457   1.010  53.653  1.00  0.00    -0.022 C 
HETATM   15  C4  UNL     1      29.641  -0.397  54.090  1.00  0.00     0.054 C 
HETATM   16  C3  UNL     1      28.769  -1.323  53.296  1.00  0.00    -0.016 C 
HETATM   17  C2  UNL     1      27.473  -1.287  52.918  1.00  0.00    -0.065 C 
HETATM   18  C1  UNL     1      26.802  -2.361  52.101  1.00  0.00     0.048 C 
HETATM   19  C23 UNL     1      26.650  -0.123  53.328  1.00  0.00     0.013 C 
ENDBRANCH  11  12
ENDBRANCH   1  11
BRANCH   1  20
HETATM   20  O1  UNL     1      23.894   1.497  52.466  1.00  0.00    -0.351 OA
BRANCH  20  21
HETATM   21  C10 UNL     1      23.144   0.869  53.378  1.00  0.00     0.206 C 
BRANCH  21  22
HETATM   22  P1  UNL     1      21.844  -0.274  52.716  1.00  0.00    -0.070 P 
HETATM   23  H13 UNL     1      22.436  -1.547  52.413  1.00  0.00     0.064 HD
BRANCH  22  24
HETATM   24  C11 UNL     1      21.090   0.507  51.255  1.00  0.00    -0.032 A 
HETATM   25  C12 UNL     1      19.717   0.680  51.276  1.00  0.00     0.015 A 
HETATM   26  C13 UNL     1      19.006   1.258  50.239  1.00  0.00     0.037 A 
HETATM   27  C14 UNL     1      19.712   1.686  49.122  1.00  0.00     0.065 A 
HETATM   28  C15 UNL     1      21.081   1.504  49.122  1.00  0.00     0.037 A 
HETATM   29  C16 UNL     1      21.773   0.930  50.157  1.00  0.00     0.015 A 
BRANCH  27  30
HETATM   30  O2  UNL     1      18.980   2.261  48.098  1.00  0.00    -0.361 OA
HETATM   31  H16 UNL     1      19.020   2.031  47.133  1.00  0.00     0.217 HD
ENDBRANCH  27  30
ENDBRANCH  22  24
ENDBRANCH  21  22
ENDBRANCH  20  21
ENDBRANCH   1  20
TORSDOF 7
ENDMDL
