MODEL 1
REMARK VINA RESULT:      -8.3      0.000      0.000
REMARK  4 active torsions:
REMARK  status: ('A' for Active; 'I' for Inactive)
REMARK    1  A    between atoms: N2_9  and  C8_10 
REMARK    2  A    between atoms: C9_12  and  O1_13 
REMARK    3  A    between atoms: C11_16  and  C12_17 
REMARK    4  A    between atoms: C18_23  and  N4_24 
ROOT
HETATM    1  C1  UNL     1      21.952   4.728  47.541  1.00  0.00     0.048 C 
HETATM    2  C2  UNL     1      22.939   4.256  48.584  1.00  0.00    -0.060 A 
HETATM    3  C3  UNL     1      24.134   4.882  48.871  1.00  0.00     0.007 A 
HETATM    4  C4  UNL     1      24.966   4.365  49.843  1.00  0.00     0.012 A 
HETATM    5  C5  UNL     1      24.645   3.228  50.551  1.00  0.00     0.005 A 
HETATM    6  C6  UNL     1      23.445   2.604  50.258  1.00  0.00     0.057 A 
HETATM    7  C7  UNL     1      22.615   3.119  49.291  1.00  0.00     0.038 A 
HETATM    8  N1  UNL     1      23.218   1.440  51.029  1.00  0.00    -0.295 N 
HETATM    9  N2  UNL     1      24.141   0.954  52.004  1.00  0.00    -0.257 N 
HETATM   10  C11 UNL     1      25.506   1.230  51.676  1.00  0.00     0.181 C 
HETATM   11  C18 UNL     1      25.591   2.754  51.587  1.00  0.00     0.282 C 
HETATM   12  H7  UNL     1      22.282   0.946  50.822  1.00  0.00     0.187 HD
ENDROOT
BRANCH   9  13
HETATM   13  C8  UNL     1      23.397   0.277  53.110  1.00  0.00     0.190 A 
HETATM   14  N3  UNL     1      22.300   0.379  53.222  1.00  0.00    -0.198 NA
HETATM   15  C9  UNL     1      21.365  -0.053  54.019  1.00  0.00     0.171 A 
HETATM   16  C10 UNL     1      21.912  -0.867  54.994  1.00  0.00     0.111 A 
HETATM   17  S1  UNL     1      23.750  -0.867  54.579  1.00  0.00    -0.058 SA
BRANCH  15  18
HETATM   18  O1  UNL     1      20.014  -0.066  54.338  1.00  0.00    -0.344 OA
HETATM   19  H8  UNL     1      19.634  -0.323  55.244  1.00  0.00     0.219 HD
ENDBRANCH  15  18
ENDBRANCH   9  13
BRANCH  10  20
HETATM   20  C12 UNL     1      26.517   0.699  52.619  1.00  0.00    -0.031 A 
HETATM   21  C13 UNL     1      27.136  -0.519  52.326  1.00  0.00     0.009 A 
HETATM   22  C14 UNL     1      28.114  -1.186  53.054  1.00  0.00     0.001 A 
HETATM   23  C15 UNL     1      28.517  -0.550  54.217  1.00  0.00     0.000 A 
HETATM   24  C16 UNL     1      27.943   0.657  54.557  1.00  0.00     0.001 A 
HETATM   25  C17 UNL     1      26.967   1.272  53.785  1.00  0.00     0.009 A 
ENDBRANCH  10  20
BRANCH  11  26
HETATM   26  N4  UNL     1      26.937   3.194  51.381  1.00  0.00     0.089 N 
HETATM   27  H17 UNL     1      27.319   3.479  52.290  1.00  0.00     0.313 HD
HETATM   28  H18 UNL     1      26.997   3.915  50.662  1.00  0.00     0.313 HD
ENDBRANCH  11  26
TORSDOF 4
ENDMDL
MODEL 2
REMARK VINA RESULT:      -8.3      2.444      4.631
REMARK  4 active torsions:
REMARK  status: ('A' for Active; 'I' for Inactive)
REMARK    1  A    between atoms: N2_9  and  C8_10 
REMARK    2  A    between atoms: C9_12  and  O1_13 
REMARK    3  A    between atoms: C11_16  and  C12_17 
REMARK    4  A    between atoms: C18_23  and  N4_24 
ROOT
HETATM    1  C1  UNL     1      25.234   6.608  48.394  1.00  0.00     0.048 C 
HETATM    2  C2  UNL     1      24.697   5.341  49.019  1.00  0.00    -0.060 A 
HETATM    3  C3  UNL     1      23.662   4.590  48.501  1.00  0.00     0.007 A 
HETATM    4  C4  UNL     1      23.246   3.448  49.154  1.00  0.00     0.012 A 
HETATM    5  C5  UNL     1      23.834   3.020  50.324  1.00  0.00     0.005 A 
HETATM    6  C6  UNL     1      24.871   3.777  50.840  1.00  0.00     0.057 A 
HETATM    7  C7  UNL     1      25.287   4.914  50.190  1.00  0.00     0.038 A 
HETATM    8  N1  UNL     1      25.393   3.260  52.048  1.00  0.00    -0.295 N 
HETATM    9  N2  UNL     1      24.892   2.081  52.677  1.00  0.00    -0.257 N 
HETATM   10  C11 UNL     1      23.491   1.879  52.465  1.00  0.00     0.181 C 
HETATM   11  C18 UNL     1      23.332   1.773  50.948  1.00  0.00     0.282 C 
HETATM   12  H7  UNL     1      26.210   3.832  52.460  1.00  0.00     0.187 HD
ENDROOT
BRANCH   9  13
HETATM   13  C8  UNL     1      26.001   1.381  53.396  1.00  0.00     0.190 A 
HETATM   14  N3  UNL     1      27.059   1.497  53.088  1.00  0.00    -0.198 NA
HETATM   15  C9  UNL     1      28.229   1.069  53.468  1.00  0.00     0.171 A 
HETATM   16  C10 UNL     1      28.096   0.238  54.566  1.00  0.00     0.111 A 
HETATM   17  S1  UNL     1      26.236   0.215  54.871  1.00  0.00    -0.058 SA
BRANCH  15  18
HETATM   18  O1  UNL     1      29.601   1.077  53.259  1.00  0.00    -0.344 OA
HETATM   19  H8  UNL     1      30.270   0.511  53.773  1.00  0.00     0.219 HD
ENDBRANCH  15  18
ENDBRANCH   9  13
BRANCH  10  20
HETATM   20  C12 UNL     1      22.899   0.703  53.142  1.00  0.00    -0.031 A 
HETATM   21  C13 UNL     1      21.751   0.881  53.917  1.00  0.00     0.009 A 
HETATM   22  C14 UNL     1      21.026  -0.076  54.618  1.00  0.00     0.001 A 
HETATM   23  C15 UNL     1      21.518  -1.369  54.526  1.00  0.00     0.000 A 
HETATM   24  C16 UNL     1      22.648  -1.606  53.772  1.00  0.00     0.001 A 
HETATM   25  C17 UNL     1      23.327  -0.603  53.095  1.00  0.00     0.009 A 
ENDBRANCH  10  20
BRANCH  11  26
HETATM   26  N4  UNL     1      21.988   1.448  50.583  1.00  0.00     0.089 N 
HETATM   27  H17 UNL     1      21.558   0.950  51.370  1.00  0.00     0.313 HD
HETATM   28  H18 UNL     1      21.945   0.940  49.699  1.00  0.00     0.313 HD
ENDBRANCH  11  26
TORSDOF 4
ENDMDL
MODEL 3
REMARK VINA RESULT:      -8.1      3.175      6.725
REMARK  4 active torsions:
REMARK  status: ('A' for Active; 'I' for Inactive)
REMARK    1  A    between atoms: N2_9  and  C8_10 
REMARK    2  A    between atoms: C9_12  and  O1_13 
REMARK    3  A    between atoms: C11_16  and  C12_17 
REMARK    4  A    between atoms: C18_23  and  N4_24 
ROOT
HETATM    1  C1  UNL     1      29.547   0.227  53.645  1.00  0.00     0.048 C 
HETATM    2  C2  UNL     1      28.048   0.378  53.536  1.00  0.00    -0.060 A 
HETATM    3  C3  UNL     1      27.134  -0.297  54.319  1.00  0.00     0.007 A 
HETATM    4  C4  UNL     1      25.782  -0.088  54.135  1.00  0.00     0.012 A 
HETATM    5  C5  UNL     1      25.300   0.783  53.182  1.00  0.00     0.005 A 
HETATM    6  C6  UNL     1      26.222   1.457  52.400  1.00  0.00     0.057 A 
HETATM    7  C7  UNL     1      27.568   1.250  52.583  1.00  0.00     0.038 A 
HETATM    8  N1  UNL     1      25.624   2.313  51.445  1.00  0.00    -0.295 N 
HETATM    9  N2  UNL     1      24.212   2.459  51.300  1.00  0.00    -0.257 N 
HETATM   10  C11 UNL     1      23.485   1.265  51.610  1.00  0.00     0.181 C 
HETATM   11  C18 UNL     1      23.834   0.957  53.066  1.00  0.00     0.282 C 
HETATM   12  H7  UNL     1      26.327   2.855  50.833  1.00  0.00     0.187 HD
ENDROOT
BRANCH   9  13
HETATM   13  C8  UNL     1      23.891   3.849  50.852  1.00  0.00     0.190 A 
HETATM   14  N3  UNL     1      24.185   4.735  51.448  1.00  0.00    -0.198 NA
HETATM   15  C9  UNL     1      24.086   6.032  51.366  1.00  0.00     0.171 A 
HETATM   16  C10 UNL     1      23.426   6.384  50.202  1.00  0.00     0.111 A 
HETATM   17  S1  UNL     1      23.047   4.723  49.397  1.00  0.00    -0.058 SA
BRANCH  15  18
HETATM   18  O1  UNL     1      24.359   7.263  51.943  1.00  0.00    -0.344 OA
HETATM   19  H8  UNL     1      24.959   7.406  52.751  1.00  0.00     0.219 HD
ENDBRANCH  15  18
ENDBRANCH   9  13
BRANCH  10  20
HETATM   20  C12 UNL     1      22.019   1.334  51.420  1.00  0.00    -0.031 A 
HETATM   21  C13 UNL     1      21.271   2.170  52.253  1.00  0.00     0.009 A 
HETATM   22  C14 UNL     1      19.900   2.399  52.240  1.00  0.00     0.001 A 
HETATM   23  C15 UNL     1      19.198   1.702  51.270  1.00  0.00     0.000 A 
HETATM   24  C16 UNL     1      19.883   0.862  50.417  1.00  0.00     0.001 A 
HETATM   25  C17 UNL     1      21.256   0.676  50.483  1.00  0.00     0.009 A 
ENDBRANCH  10  20
BRANCH  11  26
HETATM   26  N4  UNL     1      23.082  -0.155  53.561  1.00  0.00     0.089 N 
HETATM   27  H17 UNL     1      22.106   0.144  53.663  1.00  0.00     0.313 HD
HETATM   28  H18 UNL     1      23.489  -0.540  54.414  1.00  0.00     0.313 HD
ENDBRANCH  11  26
TORSDOF 4
ENDMDL
MODEL 4
REMARK VINA RESULT:      -7.4      3.290      7.125
REMARK  4 active torsions:
REMARK  status: ('A' for Active; 'I' for Inactive)
REMARK    1  A    between atoms: N2_9  and  C8_10 
REMARK    2  A    between atoms: C9_12  and  O1_13 
REMARK    3  A    between atoms: C11_16  and  C12_17 
REMARK    4  A    between atoms: C18_23  and  N4_24 
ROOT
HETATM    1  C1  UNL     1      28.792  -0.055  54.516  1.00  0.00     0.048 C 
HETATM    2  C2  UNL     1      27.444   0.340  53.957  1.00  0.00    -0.060 A 
HETATM    3  C3  UNL     1      26.252  -0.275  54.281  1.00  0.00     0.007 A 
HETATM    4  C4  UNL     1      25.074   0.164  53.710  1.00  0.00     0.012 A 
HETATM    5  C5  UNL     1      25.041   1.209  52.814  1.00  0.00     0.005 A 
HETATM    6  C6  UNL     1      26.240   1.822  52.493  1.00  0.00     0.057 A 
HETATM    7  C7  UNL     1      27.414   1.387  53.061  1.00  0.00     0.038 A 
HETATM    8  N1  UNL     1      26.098   2.871  51.555  1.00  0.00    -0.295 N 
HETATM    9  N2  UNL     1      24.843   3.252  50.991  1.00  0.00    -0.257 N 
HETATM   10  C11 UNL     1      23.933   2.157  50.846  1.00  0.00     0.181 C 
HETATM   11  C18 UNL     1      23.729   1.622  52.264  1.00  0.00     0.282 C 
HETATM   12  H7  UNL     1      27.021   3.367  51.301  1.00  0.00     0.187 HD
ENDROOT
BRANCH   9  13
HETATM   13  C8  UNL     1      24.843   4.720  50.703  1.00  0.00     0.190 A 
HETATM   14  N3  UNL     1      25.599   5.182  50.038  1.00  0.00    -0.198 NA
HETATM   15  C9  UNL     1      25.886   6.366  49.577  1.00  0.00     0.171 A 
HETATM   16  C10 UNL     1      24.984   7.295  50.063  1.00  0.00     0.111 A 
HETATM   17  S1  UNL     1      23.835   6.262  51.142  1.00  0.00    -0.058 SA
BRANCH  15  18
HETATM   18  O1  UNL     1      26.721   7.141  48.785  1.00  0.00    -0.344 OA
HETATM   19  H8  UNL     1      27.544   7.635  49.117  1.00  0.00     0.219 HD
ENDBRANCH  15  18
ENDBRANCH   9  13
BRANCH  10  20
HETATM   20  C12 UNL     1      22.635   2.477  50.211  1.00  0.00    -0.031 A 
HETATM   21  C13 UNL     1      22.358   1.954  48.945  1.00  0.00     0.009 A 
HETATM   22  C14 UNL     1      21.208   2.110  48.180  1.00  0.00     0.001 A 
HETATM   23  C15 UNL     1      20.217   2.886  48.760  1.00  0.00     0.000 A 
HETATM   24  C16 UNL     1      20.432   3.427  50.010  1.00  0.00     0.001 A 
HETATM   25  C17 UNL     1      21.607   3.234  50.724  1.00  0.00     0.009 A 
ENDBRANCH  10  20
BRANCH  11  26
HETATM   26  N4  UNL     1      22.741   0.589  52.298  1.00  0.00     0.089 N 
HETATM   27  H17 UNL     1      22.942  -0.067  51.535  1.00  0.00     0.313 HD
HETATM   28  H18 UNL     1      21.793   0.967  52.280  1.00  0.00     0.313 HD
ENDBRANCH  11  26
TORSDOF 4
ENDMDL
MODEL 5
REMARK VINA RESULT:      -7.4      8.849     11.471
REMARK  4 active torsions:
REMARK  status: ('A' for Active; 'I' for Inactive)
REMARK    1  A    between atoms: N2_9  and  C8_10 
REMARK    2  A    between atoms: C9_12  and  O1_13 
REMARK    3  A    between atoms: C11_16  and  C12_17 
REMARK    4  A    between atoms: C18_23  and  N4_24 
ROOT
HETATM    1  C1  UNL     1      26.453   4.015  49.096  1.00  0.00     0.048 C 
HETATM    2  C2  UNL     1      27.271   5.236  48.744  1.00  0.00    -0.060 A 
HETATM    3  C3  UNL     1      26.771   6.520  48.673  1.00  0.00     0.007 A 
HETATM    4  C4  UNL     1      27.606   7.567  48.339  1.00  0.00     0.012 A 
HETATM    5  C5  UNL     1      28.944   7.377  48.069  1.00  0.00     0.005 A 
HETATM    6  C6  UNL     1      29.440   6.087  48.141  1.00  0.00     0.057 A 
HETATM    7  C7  UNL     1      28.609   5.044  48.475  1.00  0.00     0.038 A 
HETATM    8  N1  UNL     1      30.817   6.000  47.832  1.00  0.00    -0.295 N 
HETATM    9  N2  UNL     1      31.612   7.129  47.472  1.00  0.00    -0.257 N 
HETATM   10  C11 UNL     1      30.877   8.137  46.770  1.00  0.00     0.181 C 
HETATM   11  C18 UNL     1      29.768   8.561  47.734  1.00  0.00     0.282 C 
HETATM   12  H7  UNL     1      31.224   5.003  47.893  1.00  0.00     0.187 HD
ENDROOT
BRANCH   9  13
HETATM   13  C8  UNL     1      33.018   6.928  47.939  1.00  0.00     0.190 A 
HETATM   14  N3  UNL     1      33.402   5.925  48.214  1.00  0.00    -0.198 NA
HETATM   15  C9  UNL     1      34.517   5.399  48.633  1.00  0.00     0.171 A 
HETATM   16  C10 UNL     1      35.484   6.379  48.765  1.00  0.00     0.111 A 
HETATM   17  S1  UNL     1      34.583   7.951  48.245  1.00  0.00    -0.058 SA
BRANCH  15  18
HETATM   18  O1  UNL     1      35.196   4.251  49.016  1.00  0.00    -0.344 OA
HETATM   19  H8  UNL     1      34.784   3.324  49.073  1.00  0.00     0.219 HD
ENDBRANCH  15  18
ENDBRANCH   9  13
BRANCH  10  20
HETATM   20  C12 UNL     1      31.659   9.309  46.316  1.00  0.00    -0.031 A 
HETATM   21  C13 UNL     1      31.973   9.424  44.960  1.00  0.00     0.009 A 
HETATM   22  C14 UNL     1      32.675  10.439  44.320  1.00  0.00     0.001 A 
HETATM   23  C15 UNL     1      33.113  11.462  45.147  1.00  0.00     0.000 A 
HETATM   24  C16 UNL     1      32.831  11.404  46.495  1.00  0.00     0.001 A 
HETATM   25  C17 UNL     1      32.124  10.359  47.074  1.00  0.00     0.009 A 
ENDBRANCH  10  20
BRANCH  11  26
HETATM   26  N4  UNL     1      29.013   9.659  47.215  1.00  0.00     0.089 N 
HETATM   27  H17 UNL     1      29.300  10.507  47.718  1.00  0.00     0.313 HD
HETATM   28  H18 UNL     1      28.009   9.481  47.246  1.00  0.00     0.313 HD
ENDBRANCH  11  26
TORSDOF 4
ENDMDL
MODEL 6
REMARK VINA RESULT:      -7.4      2.588      5.176
REMARK  4 active torsions:
REMARK  status: ('A' for Active; 'I' for Inactive)
REMARK    1  A    between atoms: N2_9  and  C8_10 
REMARK    2  A    between atoms: C9_12  and  O1_13 
REMARK    3  A    between atoms: C11_16  and  C12_17 
REMARK    4  A    between atoms: C18_23  and  N4_24 
ROOT
HETATM    1  C1  UNL     1      18.858  -0.661  53.554  1.00  0.00     0.048 C 
HETATM    2  C2  UNL     1      20.368  -0.624  53.545  1.00  0.00    -0.060 A 
HETATM    3  C3  UNL     1      21.179  -1.624  54.040  1.00  0.00     0.007 A 
HETATM    4  C4  UNL     1      22.551  -1.489  53.985  1.00  0.00     0.012 A 
HETATM    5  C5  UNL     1      23.155  -0.374  53.445  1.00  0.00     0.005 A 
HETATM    6  C6  UNL     1      22.336   0.627  52.951  1.00  0.00     0.057 A 
HETATM    7  C7  UNL     1      20.969   0.493  53.004  1.00  0.00     0.038 A 
HETATM    8  N1  UNL     1      23.054   1.731  52.434  1.00  0.00    -0.295 N 
HETATM    9  N2  UNL     1      24.479   1.807  52.433  1.00  0.00    -0.257 N 
HETATM   10  C11 UNL     1      25.082   1.135  53.543  1.00  0.00     0.181 C 
HETATM   11  C18 UNL     1      24.635  -0.321  53.414  1.00  0.00     0.282 C 
HETATM   12  H7  UNL     1      22.433   2.516  52.034  1.00  0.00     0.187 HD
ENDROOT
BRANCH   9  13
HETATM   13  C8  UNL     1      24.943   2.590  51.246  1.00  0.00     0.190 A 
HETATM   14  N3  UNL     1      24.232   3.139  50.598  1.00  0.00    -0.198 NA
HETATM   15  C9  UNL     1      24.276   3.895  49.538  1.00  0.00     0.171 A 
HETATM   16  C10 UNL     1      25.585   4.046  49.117  1.00  0.00     0.111 A 
HETATM   17  S1  UNL     1      26.563   3.031  50.369  1.00  0.00    -0.058 SA
BRANCH  15  18
HETATM   18  O1  UNL     1      23.572   4.649  48.610  1.00  0.00    -0.344 OA
HETATM   19  H8  UNL     1      23.685   4.582  47.602  1.00  0.00     0.219 HD
ENDBRANCH  15  18
ENDBRANCH   9  13
BRANCH  10  20
HETATM   20  C12 UNL     1      26.557   1.229  53.632  1.00  0.00    -0.031 A 
HETATM   21  C13 UNL     1      27.321   0.093  53.355  1.00  0.00     0.009 A 
HETATM   22  C14 UNL     1      28.706  -0.037  53.360  1.00  0.00     0.001 A 
HETATM   23  C15 UNL     1      29.403   1.116  53.683  1.00  0.00     0.000 A 
HETATM   24  C16 UNL     1      28.701   2.269  53.965  1.00  0.00     0.001 A 
HETATM   25  C17 UNL     1      27.315   2.333  53.944  1.00  0.00     0.009 A 
ENDBRANCH  10  20
BRANCH  11  26
HETATM   26  N4  UNL     1      25.260  -1.152  54.396  1.00  0.00     0.089 N 
HETATM   27  H17 UNL     1      25.757  -0.543  55.056  1.00  0.00     0.313 HD
HETATM   28  H18 UNL     1      25.849  -1.869  53.971  1.00  0.00     0.313 HD
ENDBRANCH  11  26
TORSDOF 4
ENDMDL
MODEL 7
REMARK VINA RESULT:      -7.2      3.279      7.314
REMARK  4 active torsions:
REMARK  status: ('A' for Active; 'I' for Inactive)
REMARK    1  A    between atoms: N2_9  and  C8_10 
REMARK    2  A    between atoms: C9_12  and  O1_13 
REMARK    3  A    between atoms: C11_16  and  C12_17 
REMARK    4  A    between atoms: C18_23  and  N4_24 
ROOT
HETATM    1  C1  UNL     1      25.546  -0.904  54.388  1.00  0.00     0.048 C 
HETATM    2  C2  UNL     1      24.672  -0.114  53.442  1.00  0.00    -0.060 A 
HETATM    3  C3  UNL     1      23.323  -0.333  53.253  1.00  0.00     0.007 A 
HETATM    4  C4  UNL     1      22.616   0.446  52.361  1.00  0.00     0.012 A 
HETATM    5  C5  UNL     1      23.215   1.453  51.636  1.00  0.00     0.005 A 
HETATM    6  C6  UNL     1      24.569   1.669  51.829  1.00  0.00     0.057 A 
HETATM    7  C7  UNL     1      25.273   0.894  52.719  1.00  0.00     0.038 A 
HETATM    8  N1  UNL     1      25.087   2.713  51.028  1.00  0.00    -0.295 N 
HETATM    9  N2  UNL     1      24.294   3.462  50.108  1.00  0.00    -0.257 N 
HETATM   10  C11 UNL     1      23.231   2.700  49.528  1.00  0.00     0.181 C 
HETATM   11  C18 UNL     1      22.375   2.250  50.712  1.00  0.00     0.282 C 
HETATM   12  H7  UNL     1      26.139   2.903  51.173  1.00  0.00     0.187 HD
ENDROOT
BRANCH   9  13
HETATM   13  C8  UNL     1      24.818   4.859  50.009  1.00  0.00     0.190 A 
HETATM   14  N3  UNL     1      24.417   5.677  50.639  1.00  0.00    -0.198 NA
HETATM   15  C9  UNL     1      24.627   6.950  50.821  1.00  0.00     0.171 A 
HETATM   16  C10 UNL     1      25.639   7.387  49.985  1.00  0.00     0.111 A 
HETATM   17  S1  UNL     1      26.130   5.829  49.045  1.00  0.00    -0.058 SA
BRANCH  15  18
HETATM   18  O1  UNL     1      24.280   8.106  51.506  1.00  0.00    -0.344 OA
HETATM   19  H8  UNL     1      24.359   9.047  51.133  1.00  0.00     0.219 HD
ENDBRANCH  15  18
ENDBRANCH   9  13
BRANCH  10  20
HETATM   20  C12 UNL     1      22.408   3.403  48.518  1.00  0.00    -0.031 A 
HETATM   21  C13 UNL     1      22.443   2.961  47.194  1.00  0.00     0.009 A 
HETATM   22  C14 UNL     1      21.745   3.458  46.099  1.00  0.00     0.001 A 
HETATM   23  C15 UNL     1      20.910   4.530  46.373  1.00  0.00     0.000 A 
HETATM   24  C16 UNL     1      20.832   5.009  47.663  1.00  0.00     0.001 A 
HETATM   25  C17 UNL     1      21.558   4.468  48.714  1.00  0.00     0.009 A 
ENDBRANCH  10  20
BRANCH  11  26
HETATM   26  N4  UNL     1      21.194   1.570  50.278  1.00  0.00     0.089 N 
HETATM   27  H17 UNL     1      20.391   2.182  50.462  1.00  0.00     0.313 HD
HETATM   28  H18 UNL     1      21.112   0.643  50.696  1.00  0.00     0.313 HD
ENDBRANCH  11  26
TORSDOF 4
ENDMDL
MODEL 8
REMARK VINA RESULT:      -7.0      3.953      7.586
REMARK  4 active torsions:
REMARK  status: ('A' for Active; 'I' for Inactive)
REMARK    1  A    between atoms: N2_9  and  C8_10 
REMARK    2  A    between atoms: C9_12  and  O1_13 
REMARK    3  A    between atoms: C11_16  and  C12_17 
REMARK    4  A    between atoms: C18_23  and  N4_24 
ROOT
HETATM    1  C1  UNL     1      26.309  -0.526  53.418  1.00  0.00     0.048 C 
HETATM    2  C2  UNL     1      24.910   0.010  53.221  1.00  0.00    -0.060 A 
HETATM    3  C3  UNL     1      23.780  -0.513  53.814  1.00  0.00     0.007 A 
HETATM    4  C4  UNL     1      22.547   0.053  53.564  1.00  0.00     0.012 A 
HETATM    5  C5  UNL     1      22.396   1.138  52.729  1.00  0.00     0.005 A 
HETATM    6  C6  UNL     1      23.533   1.658  52.136  1.00  0.00     0.057 A 
HETATM    7  C7  UNL     1      24.762   1.097  52.386  1.00  0.00     0.038 A 
HETATM    8  N1  UNL     1      23.267   2.759  51.288  1.00  0.00    -0.295 N 
HETATM    9  N2  UNL     1      21.956   3.274  51.062  1.00  0.00    -0.257 N 
HETATM   10  C11 UNL     1      20.936   2.270  51.121  1.00  0.00     0.181 C 
HETATM   11  C18 UNL     1      21.035   1.689  52.531  1.00  0.00     0.282 C 
HETATM   12  H7  UNL     1      24.143   3.184  50.825  1.00  0.00     0.187 HD
ENDROOT
BRANCH   9  13
HETATM   13  C8  UNL     1      22.026   4.747  50.818  1.00  0.00     0.190 A 
HETATM   14  N3  UNL     1      22.857   5.364  51.214  1.00  0.00    -0.198 NA
HETATM   15  C9  UNL     1      23.231   6.611  51.192  1.00  0.00     0.171 A 
HETATM   16  C10 UNL     1      22.326   7.365  50.467  1.00  0.00     0.111 A 
HETATM   17  S1  UNL     1      21.043   6.096  49.921  1.00  0.00    -0.058 SA
BRANCH  15  18
HETATM   18  O1  UNL     1      24.168   7.557  51.582  1.00  0.00    -0.344 OA
HETATM   19  H8  UNL     1      25.160   7.377  51.704  1.00  0.00     0.219 HD
ENDBRANCH  15  18
ENDBRANCH   9  13
BRANCH  10  20
HETATM   20  C12 UNL     1      19.559   2.731  50.834  1.00  0.00    -0.031 A 
HETATM   21  C13 UNL     1      18.915   2.256  49.690  1.00  0.00     0.009 A 
HETATM   22  C14 UNL     1      17.629   2.540  49.242  1.00  0.00     0.001 A 
HETATM   23  C15 UNL     1      16.906   3.408  50.046  1.00  0.00     0.000 A 
HETATM   24  C16 UNL     1      17.490   3.908  51.191  1.00  0.00     0.001 A 
HETATM   25  C17 UNL     1      18.781   3.585  51.582  1.00  0.00     0.009 A 
ENDBRANCH  10  20
BRANCH  11  26
HETATM   26  N4  UNL     1      19.990   0.746  52.784  1.00  0.00     0.089 N 
HETATM   27  H17 UNL     1      19.184   1.259  53.158  1.00  0.00     0.313 HD
HETATM   28  H18 UNL     1      20.305  -0.021  53.380  1.00  0.00     0.313 HD
ENDBRANCH  11  26
TORSDOF 4
ENDMDL
MODEL 9
REMARK VINA RESULT:      -6.8      2.287      3.259
REMARK  4 active torsions:
REMARK  status: ('A' for Active; 'I' for Inactive)
REMARK    1  A    between atoms: N2_9  and  C8_10 
REMARK    2  A    between atoms: C9_12  and  O1_13 
REMARK    3  A    between atoms: C11_16  and  C12_17 
REMARK    4  A    between atoms: C18_23  and  N4_24 
ROOT
HETATM    1  C1  UNL     1      22.360   7.254  45.419  1.00  0.00     0.048 C 
HETATM    2  C2  UNL     1      23.027   6.654  46.635  1.00  0.00    -0.060 A 
HETATM    3  C3  UNL     1      24.150   7.169  47.247  1.00  0.00     0.007 A 
HETATM    4  C4  UNL     1      24.682   6.540  48.354  1.00  0.00     0.012 A 
HETATM    5  C5  UNL     1      24.125   5.395  48.882  1.00  0.00     0.005 A 
HETATM    6  C6  UNL     1      22.999   4.882  48.263  1.00  0.00     0.057 A 
HETATM    7  C7  UNL     1      22.467   5.509  47.162  1.00  0.00     0.038 A 
HETATM    8  N1  UNL     1      22.516   3.700  48.873  1.00  0.00    -0.295 N 
HETATM    9  N2  UNL     1      23.137   3.095  50.007  1.00  0.00    -0.257 N 
HETATM   10  C11 UNL     1      24.556   3.281  50.041  1.00  0.00     0.181 C 
HETATM   11  C18 UNL     1      24.754   4.796  50.082  1.00  0.00     0.282 C 
HETATM   12  H7  UNL     1      21.632   3.292  48.411  1.00  0.00     0.187 HD
ENDROOT
BRANCH   9  13
HETATM   13  C8  UNL     1      22.102   2.420  50.850  1.00  0.00     0.190 A 
HETATM   14  N3  UNL     1      21.174   2.940  51.159  1.00  0.00    -0.198 NA
HETATM   15  C9  UNL     1      20.102   2.676  51.850  1.00  0.00     0.171 A 
HETATM   16  C10 UNL     1      20.151   1.377  52.322  1.00  0.00     0.111 A 
HETATM   17  S1  UNL     1      21.797   0.737  51.664  1.00  0.00    -0.058 SA
BRANCH  15  18
HETATM   18  O1  UNL     1      18.885   3.130  52.339  1.00  0.00    -0.344 OA
HETATM   19  H8  UNL     1      18.472   4.032  52.122  1.00  0.00     0.219 HD
ENDBRANCH  15  18
ENDBRANCH   9  13
BRANCH  10  20
HETATM   20  C12 UNL     1      25.266   2.625  51.162  1.00  0.00    -0.031 A 
HETATM   21  C13 UNL     1      24.857   2.896  52.469  1.00  0.00     0.009 A 
HETATM   22  C14 UNL     1      25.365   2.382  53.657  1.00  0.00     0.001 A 
HETATM   23  C15 UNL     1      26.412   1.486  53.508  1.00  0.00     0.000 A 
HETATM   24  C16 UNL     1      26.859   1.178  52.240  1.00  0.00     0.001 A 
HETATM   25  C17 UNL     1      26.307   1.728  51.092  1.00  0.00     0.009 A 
ENDBRANCH  10  20
BRANCH  11  26
HETATM   26  N4  UNL     1      26.134   5.140  50.240  1.00  0.00     0.089 N 
HETATM   27  H17 UNL     1      26.191   5.917  50.908  1.00  0.00     0.313 HD
HETATM   28  H18 UNL     1      26.585   5.330  49.345  1.00  0.00     0.313 HD
ENDBRANCH  11  26
TORSDOF 4
ENDMDL
