MODEL 1
REMARK VINA RESULT:      -7.2      0.000      0.000
REMARK  5 active torsions:
REMARK  status: ('A' for Active; 'I' for Inactive)
REMARK    1  A    between atoms: C3_3  and  N1_4 
REMARK    2  A    between atoms: C4_5  and  C5_7 
REMARK    3  A    between atoms: C5_7  and  C6_8 
REMARK       I    between atoms: C6_8  and  N2_10 
REMARK    4  A    between atoms: N2_10  and  S1_11 
REMARK    5  A    between atoms: S1_11  and  C7_14 
ROOT
HETATM    1  C6  UNL     1      24.256   0.662  52.743  1.00  0.00     0.237 C 
HETATM    2  O1  UNL     1      23.208   1.192  53.195  1.00  0.00    -0.272 OA
HETATM    3  N2  UNL     1      24.927   1.506  51.785  1.00  0.00    -0.250 N 
HETATM    4  H8  UNL     1      25.823   1.137  51.352  1.00  0.00     0.181 HD
ENDROOT
BRANCH   3   5
HETATM    5  S1  UNL     1      24.224   3.044  51.419  1.00  0.00     0.265 S 
HETATM    6  O2  UNL     1      23.865   3.810  52.648  1.00  0.00    -0.200 OA
HETATM    7  O3  UNL     1      22.954   2.872  50.616  1.00  0.00    -0.200 OA
BRANCH   5   8
HETATM    8  C7  UNL     1      25.314   3.965  50.392  1.00  0.00     0.080 A 
HETATM    9  C8  UNL     1      24.997   5.310  50.261  1.00  0.00     0.026 A 
HETATM   10  C9  UNL     1      25.753   6.165  49.490  1.00  0.00     0.008 A 
HETATM   11  C10 UNL     1      26.857   5.680  48.828  1.00  0.00    -0.062 A 
HETATM   12  C11 UNL     1      27.664   6.613  47.999  1.00  0.00     0.048 C 
HETATM   13  C12 UNL     1      27.167   4.357  48.958  1.00  0.00     0.008 A 
HETATM   14  C13 UNL     1      26.420   3.497  49.723  1.00  0.00     0.026 A 
ENDBRANCH   5   8
ENDBRANCH   3   5
BRANCH   1  15
HETATM   15  C5  UNL     1      24.866  -0.663  53.054  1.00  0.00     0.175 C 
BRANCH  15  16
HETATM   16  C4  UNL     1      25.241  -0.645  54.484  1.00  0.00     0.112 C 
HETATM   17  N1  UNL     1      26.185  -0.326  55.300  1.00  0.00    -0.253 NA
HETATM   18 CL1  UNL     1      24.031  -1.267  55.576  1.00  0.00    -0.067 Cl
BRANCH  17  19
HETATM   19  C3  UNL     1      27.376   0.233  54.765  1.00  0.00     0.113 C 
HETATM   20  C2  UNL     1      28.448  -0.307  54.206  1.00  0.00    -0.012 C 
HETATM   21  C1  UNL     1      29.392   0.804  53.833  1.00  0.00     0.037 C 
ENDBRANCH  17  19
ENDBRANCH  15  16
ENDBRANCH   1  15
TORSDOF 5
ENDMDL
MODEL 2
REMARK VINA RESULT:      -7.0      3.781      5.508
REMARK  5 active torsions:
REMARK  status: ('A' for Active; 'I' for Inactive)
REMARK    1  A    between atoms: C3_3  and  N1_4 
REMARK    2  A    between atoms: C4_5  and  C5_7 
REMARK    3  A    between atoms: C5_7  and  C6_8 
REMARK       I    between atoms: C6_8  and  N2_10 
REMARK    4  A    between atoms: N2_10  and  S1_11 
REMARK    5  A    between atoms: S1_11  and  C7_14 
ROOT
HETATM    1  C6  UNL     1      22.551   1.489  51.395  1.00  0.00     0.237 C 
HETATM    2  O1  UNL     1      22.461   2.744  51.395  1.00  0.00    -0.272 OA
HETATM    3  N2  UNL     1      23.836   1.031  51.864  1.00  0.00    -0.250 N 
HETATM    4  H8  UNL     1      23.999  -0.017  51.898  1.00  0.00     0.181 HD
ENDROOT
BRANCH   3   5
HETATM    5  S1  UNL     1      25.003   2.220  52.333  1.00  0.00     0.265 S 
HETATM    6  O2  UNL     1      24.513   3.089  53.441  1.00  0.00    -0.200 OA
HETATM    7  O3  UNL     1      25.336   3.127  51.169  1.00  0.00    -0.200 OA
BRANCH   5   8
HETATM    8  C7  UNL     1      26.513   1.429  52.765  1.00  0.00     0.080 A 
HETATM    9  C8  UNL     1      26.496   0.045  52.671  1.00  0.00     0.026 A 
HETATM   10  C9  UNL     1      27.601  -0.720  52.975  1.00  0.00     0.008 A 
HETATM   11  C10 UNL     1      28.758  -0.101  53.385  1.00  0.00    -0.062 A 
HETATM   12  C11 UNL     1      29.943  -0.937  53.711  1.00  0.00     0.048 C 
HETATM   13  C12 UNL     1      28.773   1.261  53.478  1.00  0.00     0.008 A 
HETATM   14  C13 UNL     1      27.678   2.031  53.176  1.00  0.00     0.026 A 
ENDBRANCH   5   8
ENDBRANCH   3   5
BRANCH   1  15
HETATM   15  C5  UNL     1      21.549   0.460  50.992  1.00  0.00     0.175 C 
BRANCH  15  16
HETATM   16  C4  UNL     1      20.458   0.499  51.989  1.00  0.00     0.112 C 
HETATM   17  N1  UNL     1      20.180   0.267  53.225  1.00  0.00    -0.253 NA
HETATM   18 CL1  UNL     1      18.919   1.052  51.384  1.00  0.00    -0.067 Cl
BRANCH  17  19
HETATM   19  C3  UNL     1      21.217  -0.214  54.069  1.00  0.00     0.113 C 
HETATM   20  C2  UNL     1      21.756  -1.410  54.235  1.00  0.00    -0.012 C 
HETATM   21  C1  UNL     1      22.830  -1.300  55.285  1.00  0.00     0.037 C 
ENDBRANCH  17  19
ENDBRANCH  15  16
ENDBRANCH   1  15
TORSDOF 5
ENDMDL
MODEL 3
REMARK VINA RESULT:      -7.0      1.474      1.570
REMARK  5 active torsions:
REMARK  status: ('A' for Active; 'I' for Inactive)
REMARK    1  A    between atoms: C3_3  and  N1_4 
REMARK    2  A    between atoms: C4_5  and  C5_7 
REMARK    3  A    between atoms: C5_7  and  C6_8 
REMARK       I    between atoms: C6_8  and  N2_10 
REMARK    4  A    between atoms: N2_10  and  S1_11 
REMARK    5  A    between atoms: S1_11  and  C7_14 
ROOT
HETATM    1  C6  UNL     1      25.354   2.194  52.479  1.00  0.00     0.237 C 
HETATM    2  O1  UNL     1      25.309   1.609  51.366  1.00  0.00    -0.272 OA
HETATM    3  N2  UNL     1      24.831   3.537  52.414  1.00  0.00    -0.250 N 
HETATM    4  H8  UNL     1      24.830   4.105  53.310  1.00  0.00     0.181 HD
ENDROOT
BRANCH   3   5
HETATM    5  S1  UNL     1      24.250   4.113  50.889  1.00  0.00     0.265 S 
HETATM    6  O2  UNL     1      23.175   5.136  51.041  1.00  0.00    -0.200 OA
HETATM    7  O3  UNL     1      23.671   2.976  50.076  1.00  0.00    -0.200 OA
BRANCH   5   8
HETATM    8  C7  UNL     1      25.592   4.737  49.940  1.00  0.00     0.080 A 
HETATM    9  C8  UNL     1      25.556   6.105  49.705  1.00  0.00     0.026 A 
HETATM   10  C9  UNL     1      26.535   6.746  48.978  1.00  0.00     0.008 A 
HETATM   11  C10 UNL     1      27.583   6.017  48.467  1.00  0.00    -0.062 A 
HETATM   12  C11 UNL     1      28.632   6.720  47.684  1.00  0.00     0.048 C 
HETATM   13  C12 UNL     1      27.617   4.672  48.699  1.00  0.00     0.008 A 
HETATM   14  C13 UNL     1      26.647   4.024  49.422  1.00  0.00     0.026 A 
ENDBRANCH   5   8
ENDBRANCH   3   5
BRANCH   1  15
HETATM   15  C5  UNL     1      25.853   1.703  53.796  1.00  0.00     0.175 C 
BRANCH  15  16
HETATM   16  C4  UNL     1      25.779   0.227  53.768  1.00  0.00     0.112 C 
HETATM   17  N1  UNL     1      26.489  -0.840  53.642  1.00  0.00    -0.253 NA
HETATM   18 CL1  UNL     1      24.180  -0.439  53.974  1.00  0.00    -0.067 Cl
BRANCH  17  19
HETATM   19  C3  UNL     1      27.889  -0.697  53.450  1.00  0.00     0.113 C 
HETATM   20  C2  UNL     1      28.875  -0.352  54.263  1.00  0.00    -0.012 C 
HETATM   21  C1  UNL     1      30.160  -0.377  53.479  1.00  0.00     0.037 C 
ENDBRANCH  17  19
ENDBRANCH  15  16
ENDBRANCH   1  15
TORSDOF 5
ENDMDL
MODEL 4
REMARK VINA RESULT:      -7.0      3.374      5.121
REMARK  5 active torsions:
REMARK  status: ('A' for Active; 'I' for Inactive)
REMARK    1  A    between atoms: C3_3  and  N1_4 
REMARK    2  A    between atoms: C4_5  and  C5_7 
REMARK    3  A    between atoms: C5_7  and  C6_8 
REMARK       I    between atoms: C6_8  and  N2_10 
REMARK    4  A    between atoms: N2_10  and  S1_11 
REMARK    5  A    between atoms: S1_11  and  C7_14 
ROOT
HETATM    1  C6  UNL     1      25.704   2.014  52.810  1.00  0.00     0.237 C 
HETATM    2  O1  UNL     1      25.628   1.503  51.663  1.00  0.00    -0.272 OA
HETATM    3  N2  UNL     1      24.807   3.132  52.974  1.00  0.00    -0.250 N 
HETATM    4  H8  UNL     1      24.805   3.623  53.914  1.00  0.00     0.181 HD
ENDROOT
BRANCH   3   5
HETATM    5  S1  UNL     1      23.811   3.580  51.632  1.00  0.00     0.265 S 
HETATM    6  O2  UNL     1      24.579   3.654  50.355  1.00  0.00    -0.200 OA
HETATM    7  O3  UNL     1      23.193   4.942  51.859  1.00  0.00    -0.200 OA
BRANCH   5   8
HETATM    8  C7  UNL     1      22.460   2.464  51.497  1.00  0.00     0.080 A 
HETATM    9  C8  UNL     1      21.414   2.702  52.379  1.00  0.00     0.026 A 
HETATM   10  C9  UNL     1      20.283   1.915  52.399  1.00  0.00     0.008 A 
HETATM   11  C10 UNL     1      20.179   0.860  51.522  1.00  0.00    -0.062 A 
HETATM   12  C11 UNL     1      18.955   0.019  51.553  1.00  0.00     0.048 C 
HETATM   13  C12 UNL     1      21.209   0.627  50.656  1.00  0.00     0.008 A 
HETATM   14  C13 UNL     1      22.339   1.405  50.629  1.00  0.00     0.026 A 
ENDBRANCH   5   8
ENDBRANCH   3   5
BRANCH   1  15
HETATM   15  C5  UNL     1      26.561   1.632  53.970  1.00  0.00     0.175 C 
BRANCH  15  16
HETATM   16  C4  UNL     1      26.636   0.156  53.990  1.00  0.00     0.112 C 
HETATM   17  N1  UNL     1      25.930  -0.912  54.132  1.00  0.00    -0.253 NA
HETATM   18 CL1  UNL     1      28.229  -0.509  53.736  1.00  0.00    -0.067 Cl
BRANCH  17  19
HETATM   19  C3  UNL     1      24.536  -0.771  54.364  1.00  0.00     0.113 C 
HETATM   20  C2  UNL     1      23.496  -0.686  53.550  1.00  0.00    -0.012 C 
HETATM   21  C1  UNL     1      22.254  -0.547  54.390  1.00  0.00     0.037 C 
ENDBRANCH  17  19
ENDBRANCH  15  16
ENDBRANCH   1  15
TORSDOF 5
ENDMDL
MODEL 5
REMARK VINA RESULT:      -6.9      2.115      3.183
REMARK  5 active torsions:
REMARK  status: ('A' for Active; 'I' for Inactive)
REMARK    1  A    between atoms: C3_3  and  N1_4 
REMARK    2  A    between atoms: C4_5  and  C5_7 
REMARK    3  A    between atoms: C5_7  and  C6_8 
REMARK       I    between atoms: C6_8  and  N2_10 
REMARK    4  A    between atoms: N2_10  and  S1_11 
REMARK    5  A    between atoms: S1_11  and  C7_14 
ROOT
HETATM    1  C6  UNL     1      24.946   2.635  52.551  1.00  0.00     0.237 C 
HETATM    2  O1  UNL     1      23.729   2.908  52.383  1.00  0.00    -0.272 OA
HETATM    3  N2  UNL     1      25.785   3.225  51.537  1.00  0.00    -0.250 N 
HETATM    4  H8  UNL     1      26.829   3.046  51.602  1.00  0.00     0.181 HD
ENDROOT
BRANCH   3   5
HETATM    5  S1  UNL     1      25.028   4.172  50.302  1.00  0.00     0.265 S 
HETATM    6  O2  UNL     1      24.019   5.122  50.854  1.00  0.00    -0.200 OA
HETATM    7  O3  UNL     1      24.307   3.281  49.315  1.00  0.00    -0.200 OA
BRANCH   5   8
HETATM    8  C7  UNL     1      26.254   5.018  49.369  1.00  0.00     0.080 A 
HETATM    9  C8  UNL     1      25.913   6.309  48.989  1.00  0.00     0.026 A 
HETATM   10  C9  UNL     1      26.765   7.103  48.254  1.00  0.00     0.008 A 
HETATM   11  C10 UNL     1      27.994   6.609  47.881  1.00  0.00    -0.062 A 
HETATM   12  C11 UNL     1      28.905   7.474  47.088  1.00  0.00     0.048 C 
HETATM   13  C12 UNL     1      28.328   5.339  48.255  1.00  0.00     0.008 A 
HETATM   14  C13 UNL     1      27.485   4.541  48.988  1.00  0.00     0.026 A 
ENDBRANCH   5   8
ENDBRANCH   3   5
BRANCH   1  15
HETATM   15  C5  UNL     1      25.604   1.820  53.613  1.00  0.00     0.175 C 
BRANCH  15  16
HETATM   16  C4  UNL     1      25.533   0.407  53.185  1.00  0.00     0.112 C 
HETATM   17  N1  UNL     1      24.795  -0.648  53.226  1.00  0.00    -0.253 NA
HETATM   18 CL1  UNL     1      26.908  -0.162  52.276  1.00  0.00    -0.067 Cl
BRANCH  17  19
HETATM   19  C3  UNL     1      23.550  -0.573  53.904  1.00  0.00     0.113 C 
HETATM   20  C2  UNL     1      22.363  -1.104  53.662  1.00  0.00    -0.012 C 
HETATM   21  C1  UNL     1      21.419  -0.659  54.746  1.00  0.00     0.037 C 
ENDBRANCH  17  19
ENDBRANCH  15  16
ENDBRANCH   1  15
TORSDOF 5
ENDMDL
MODEL 6
REMARK VINA RESULT:      -6.9      4.343      6.662
REMARK  5 active torsions:
REMARK  status: ('A' for Active; 'I' for Inactive)
REMARK    1  A    between atoms: C3_3  and  N1_4 
REMARK    2  A    between atoms: C4_5  and  C5_7 
REMARK    3  A    between atoms: C5_7  and  C6_8 
REMARK       I    between atoms: C6_8  and  N2_10 
REMARK    4  A    between atoms: N2_10  and  S1_11 
REMARK    5  A    between atoms: S1_11  and  C7_14 
ROOT
HETATM    1  C6  UNL     1      23.997  -0.249  53.467  1.00  0.00     0.237 C 
HETATM    2  O1  UNL     1      23.925  -0.814  54.590  1.00  0.00    -0.272 OA
HETATM    3  N2  UNL     1      22.696   0.016  52.903  1.00  0.00    -0.250 N 
HETATM    4  H8  UNL     1      22.662   0.492  51.955  1.00  0.00     0.181 HD
ENDROOT
BRANCH   3   5
HETATM    5  S1  UNL     1      21.301  -0.460  53.810  1.00  0.00     0.265 S 
HETATM    6  O2  UNL     1      21.138   0.339  55.060  1.00  0.00    -0.200 OA
HETATM    7  O3  UNL     1      21.403  -1.912  54.220  1.00  0.00    -0.200 OA
BRANCH   5   8
HETATM    8  C7  UNL     1      19.869  -0.353  52.796  1.00  0.00     0.080 A 
HETATM    9  C8  UNL     1      18.769  -1.059  53.261  1.00  0.00     0.026 A 
HETATM   10  C9  UNL     1      17.572  -1.076  52.580  1.00  0.00     0.008 A 
HETATM   11  C10 UNL     1      17.455  -0.374  51.404  1.00  0.00    -0.062 A 
HETATM   12  C11 UNL     1      16.158  -0.399  50.678  1.00  0.00     0.048 C 
HETATM   13  C12 UNL     1      18.538   0.320  50.947  1.00  0.00     0.008 A 
HETATM   14  C13 UNL     1      19.735   0.343  51.619  1.00  0.00     0.026 A 
ENDBRANCH   5   8
ENDBRANCH   3   5
BRANCH   1  15
HETATM   15  C5  UNL     1      25.195   0.163  52.681  1.00  0.00     0.175 C 
BRANCH  15  16
HETATM   16  C4  UNL     1      25.904   1.191  53.473  1.00  0.00     0.112 C 
HETATM   17  N1  UNL     1      27.011   1.443  54.082  1.00  0.00    -0.253 NA
HETATM   18 CL1  UNL     1      25.007   2.660  53.754  1.00  0.00    -0.067 Cl
BRANCH  17  19
HETATM   19  C3  UNL     1      28.025   0.449  54.072  1.00  0.00     0.113 C 
HETATM   20  C2  UNL     1      29.227   0.400  53.521  1.00  0.00    -0.012 C 
HETATM   21  C1  UNL     1      29.845  -0.930  53.862  1.00  0.00     0.037 C 
ENDBRANCH  17  19
ENDBRANCH  15  16
ENDBRANCH   1  15
TORSDOF 5
ENDMDL
MODEL 7
REMARK VINA RESULT:      -6.8      3.411      7.107
REMARK  5 active torsions:
REMARK  status: ('A' for Active; 'I' for Inactive)
REMARK    1  A    between atoms: C3_3  and  N1_4 
REMARK    2  A    between atoms: C4_5  and  C5_7 
REMARK    3  A    between atoms: C5_7  and  C6_8 
REMARK       I    between atoms: C6_8  and  N2_10 
REMARK    4  A    between atoms: N2_10  and  S1_11 
REMARK    5  A    between atoms: S1_11  and  C7_14 
ROOT
HETATM    1  C6  UNL     1      26.058   2.645  51.173  1.00  0.00     0.237 C 
HETATM    2  O1  UNL     1      25.420   3.229  52.088  1.00  0.00    -0.272 OA
HETATM    3  N2  UNL     1      26.636   1.400  51.618  1.00  0.00    -0.250 N 
HETATM    4  H8  UNL     1      27.192   0.839  50.909  1.00  0.00     0.181 HD
ENDROOT
BRANCH   3   5
HETATM    5  S1  UNL     1      26.379   0.923  53.261  1.00  0.00     0.265 S 
HETATM    6  O2  UNL     1      26.613   2.041  54.220  1.00  0.00    -0.200 OA
HETATM    7  O3  UNL     1      27.322  -0.197  53.643  1.00  0.00    -0.200 OA
BRANCH   5   8
HETATM    8  C7  UNL     1      24.760   0.260  53.440  1.00  0.00     0.080 A 
HETATM    9  C8  UNL     1      24.596  -0.600  54.516  1.00  0.00     0.026 A 
HETATM   10  C9  UNL     1      23.387  -1.201  54.792  1.00  0.00     0.008 A 
HETATM   11  C10 UNL     1      22.306  -0.946  53.981  1.00  0.00    -0.062 A 
HETATM   12  C11 UNL     1      21.007  -1.600  54.288  1.00  0.00     0.048 C 
HETATM   13  C12 UNL     1      22.469  -0.100  52.922  1.00  0.00     0.008 A 
HETATM   14  C13 UNL     1      23.669   0.504  52.639  1.00  0.00     0.026 A 
ENDBRANCH   5   8
ENDBRANCH   3   5
BRANCH   1  15
HETATM   15  C5  UNL     1      26.282   3.051  49.756  1.00  0.00     0.175 C 
BRANCH  15  16
HETATM   16  C4  UNL     1      25.294   4.105  49.442  1.00  0.00     0.112 C 
HETATM   17  N1  UNL     1      24.074   4.301  49.080  1.00  0.00    -0.253 NA
HETATM   18 CL1  UNL     1      25.886   5.740  49.577  1.00  0.00    -0.067 Cl
BRANCH  17  19
HETATM   19  C3  UNL     1      23.246   3.167  48.864  1.00  0.00     0.113 C 
HETATM   20  C2  UNL     1      22.476   2.453  49.669  1.00  0.00    -0.012 C 
HETATM   21  C1  UNL     1      21.837   1.358  48.857  1.00  0.00     0.037 C 
ENDBRANCH  17  19
ENDBRANCH  15  16
ENDBRANCH   1  15
TORSDOF 5
ENDMDL
MODEL 8
REMARK VINA RESULT:      -6.7      2.863      6.453
REMARK  5 active torsions:
REMARK  status: ('A' for Active; 'I' for Inactive)
REMARK    1  A    between atoms: C3_3  and  N1_4 
REMARK    2  A    between atoms: C4_5  and  C5_7 
REMARK    3  A    between atoms: C5_7  and  C6_8 
REMARK       I    between atoms: C6_8  and  N2_10 
REMARK    4  A    between atoms: N2_10  and  S1_11 
REMARK    5  A    between atoms: S1_11  and  C7_14 
ROOT
HETATM    1  C6  UNL     1      23.463   2.916  50.311  1.00  0.00     0.237 C 
HETATM    2  O1  UNL     1      22.515   2.842  51.135  1.00  0.00    -0.272 OA
HETATM    3  N2  UNL     1      24.691   2.371  50.837  1.00  0.00    -0.250 N 
HETATM    4  H8  UNL     1      25.544   2.392  50.207  1.00  0.00     0.181 HD
ENDROOT
BRANCH   3   5
HETATM    5  S1  UNL     1      24.676   1.731  52.445  1.00  0.00     0.265 S 
HETATM    6  O2  UNL     1      23.604   0.711  52.638  1.00  0.00    -0.200 OA
HETATM    7  O3  UNL     1      24.431   2.831  53.454  1.00  0.00    -0.200 OA
BRANCH   5   8
HETATM    8  C7  UNL     1      26.258   1.073  52.836  1.00  0.00     0.080 A 
HETATM    9  C8  UNL     1      26.365  -0.306  52.712  1.00  0.00     0.026 A 
HETATM   10  C9  UNL     1      27.540  -0.973  52.982  1.00  0.00     0.008 A 
HETATM   11  C10 UNL     1      28.644  -0.260  53.387  1.00  0.00    -0.062 A 
HETATM   12  C11 UNL     1      29.905  -0.991  53.675  1.00  0.00     0.048 C 
HETATM   13  C12 UNL     1      28.537   1.096  53.509  1.00  0.00     0.008 A 
HETATM   14  C13 UNL     1      27.371   1.770  53.242  1.00  0.00     0.026 A 
ENDBRANCH   5   8
ENDBRANCH   3   5
BRANCH   1  15
HETATM   15  C5  UNL     1      23.482   3.466  48.925  1.00  0.00     0.175 C 
BRANCH  15  16
HETATM   16  C4  UNL     1      23.662   4.929  49.039  1.00  0.00     0.112 C 
HETATM   17  N1  UNL     1      24.549   5.863  49.038  1.00  0.00    -0.253 NA
HETATM   18 CL1  UNL     1      22.193   5.842  49.259  1.00  0.00    -0.067 Cl
BRANCH  17  19
HETATM   19  C3  UNL     1      25.912   5.496  48.877  1.00  0.00     0.113 C 
HETATM   20  C2  UNL     1      26.974   6.159  48.448  1.00  0.00    -0.012 C 
HETATM   21  C1  UNL     1      28.159   5.232  48.501  1.00  0.00     0.037 C 
ENDBRANCH  17  19
ENDBRANCH  15  16
ENDBRANCH   1  15
TORSDOF 5
ENDMDL
MODEL 9
REMARK VINA RESULT:      -6.7      1.892      2.298
REMARK  5 active torsions:
REMARK  status: ('A' for Active; 'I' for Inactive)
REMARK    1  A    between atoms: C3_3  and  N1_4 
REMARK    2  A    between atoms: C4_5  and  C5_7 
REMARK    3  A    between atoms: C5_7  and  C6_8 
REMARK       I    between atoms: C6_8  and  N2_10 
REMARK    4  A    between atoms: N2_10  and  S1_11 
REMARK    5  A    between atoms: S1_11  and  C7_14 
ROOT
HETATM    1  C6  UNL     1      21.802   1.676  51.849  1.00  0.00     0.237 C 
HETATM    2  O1  UNL     1      21.079   2.627  52.245  1.00  0.00    -0.272 OA
HETATM    3  N2  UNL     1      22.943   2.132  51.094  1.00  0.00    -0.250 N 
HETATM    4  H8  UNL     1      23.608   1.394  50.721  1.00  0.00     0.181 HD
ENDROOT
BRANCH   3   5
HETATM    5  S1  UNL     1      23.136   3.835  50.857  1.00  0.00     0.265 S 
HETATM    6  O2  UNL     1      22.950   4.607  52.120  1.00  0.00    -0.200 OA
HETATM    7  O3  UNL     1      22.119   4.353  49.865  1.00  0.00    -0.200 OA
BRANCH   5   8
HETATM    8  C7  UNL     1      24.707   4.159  50.139  1.00  0.00     0.080 A 
HETATM    9  C8  UNL     1      24.866   5.442  49.633  1.00  0.00     0.026 A 
HETATM   10  C9  UNL     1      26.039   5.851  49.038  1.00  0.00     0.008 A 
HETATM   11  C10 UNL     1      27.090   4.970  48.940  1.00  0.00    -0.062 A 
HETATM   12  C11 UNL     1      28.350   5.423  48.296  1.00  0.00     0.048 C 
HETATM   13  C12 UNL     1      26.932   3.708  49.437  1.00  0.00     0.008 A 
HETATM   14  C13 UNL     1      25.768   3.291  50.032  1.00  0.00     0.026 A 
ENDBRANCH   5   8
ENDBRANCH   3   5
BRANCH   1  15
HETATM   15  C5  UNL     1      21.640   0.206  52.050  1.00  0.00     0.175 C 
BRANCH  15  16
HETATM   16  C4  UNL     1      22.272  -0.129  53.344  1.00  0.00     0.112 C 
HETATM   17  N1  UNL     1      23.402  -0.397  53.902  1.00  0.00    -0.253 NA
HETATM   18 CL1  UNL     1      21.179  -0.230  54.699  1.00  0.00    -0.067 Cl
BRANCH  17  19
HETATM   19  C3  UNL     1      24.567  -0.410  53.091  1.00  0.00     0.113 C 
HETATM   20  C2  UNL     1      25.835  -0.124  53.337  1.00  0.00    -0.012 C 
HETATM   21  C1  UNL     1      26.618  -0.324  52.067  1.00  0.00     0.037 C 
ENDBRANCH  17  19
ENDBRANCH  15  16
ENDBRANCH   1  15
TORSDOF 5
ENDMDL
