MODEL 1
REMARK VINA RESULT:      -8.1      0.000      0.000
REMARK  7 active torsions:
REMARK  status: ('A' for Active; 'I' for Inactive)
REMARK    1  A    between atoms: C2_2  and  C3_3 
REMARK       I    between atoms: C3_3  and  N1_5 
REMARK    2  A    between atoms: N1_5  and  C4_6 
REMARK    3  A    between atoms: C5_7  and  C6_8 
REMARK    4  A    between atoms: C11_13  and  C12_14 
REMARK    5  A    between atoms: C12_14  and  N2_15 
REMARK    6  A    between atoms: N2_15  and  C13_16 
REMARK    7  A    between atoms: C13_16  and  C14_17 
ROOT
HETATM    1  C6  UNL     1      25.701   3.191  50.253  1.00  0.00     0.015 C 
HETATM    2  C7  UNL     1      24.586   3.411  50.818  1.00  0.00    -0.006 C 
HETATM    3  C8  UNL     1      23.689   3.229  51.968  1.00  0.00    -0.038 A 
HETATM    4  C9  UNL     1      22.844   3.112  52.958  1.00  0.00     0.051 A 
HETATM    5  C10 UNL     1      22.067   4.146  52.175  1.00  0.00     0.035 A 
HETATM    6  C11 UNL     1      22.110   3.897  50.706  1.00  0.00     0.074 C 
HETATM    7  C20 UNL     1      23.525   4.264  50.203  1.00  0.00     0.052 C 
HETATM    8  N3  UNL     1      24.136   5.144  49.362  1.00  0.00    -0.243 NA
HETATM    9  C21 UNL     1      24.233   6.570  49.884  1.00  0.00     0.254 C 
HETATM   10  N4  UNL     1      24.269   6.831  51.214  1.00  0.00    -0.172 NA
HETATM   11  N5  UNL     1      23.877   5.879  52.244  1.00  0.00    -0.305 N 
HETATM   12  C22 UNL     1      23.388   4.704  52.610  1.00  0.00     0.121 A 
HETATM   13  H24 UNL     1      24.113   6.444  53.134  1.00  0.00     0.183 HD
ENDROOT
BRANCH   6  14
HETATM   14  C12 UNL     1      21.705   2.540  50.299  1.00  0.00     0.281 C 
BRANCH  14  15
HETATM   15  N2  UNL     1      20.370   2.258  50.806  1.00  0.00     0.088 N 
HETATM   16  H15 UNL     1      20.135   2.822  51.625  1.00  0.00     0.316 HD
BRANCH  15  17
HETATM   17  C13 UNL     1      20.061   0.869  50.920  1.00  0.00     0.308 C 
BRANCH  17  18
HETATM   18  C14 UNL     1      20.782   0.350  52.132  1.00  0.00    -0.030 A 
HETATM   19  C15 UNL     1      21.941  -0.395  52.139  1.00  0.00     0.009 A 
HETATM   20  C16 UNL     1      22.487  -0.800  53.336  1.00  0.00     0.001 A 
HETATM   21  C17 UNL     1      21.916  -0.488  54.564  1.00  0.00     0.000 A 
HETATM   22  C18 UNL     1      20.763   0.253  54.522  1.00  0.00     0.001 A 
HETATM   23  C19 UNL     1      20.180   0.682  53.348  1.00  0.00     0.009 A 
ENDBRANCH  17  18
ENDBRANCH  15  17
ENDBRANCH  14  15
ENDBRANCH   6  14
BRANCH   1  24
HETATM   24  C5  UNL     1      26.786   2.413  50.797  1.00  0.00     0.018 C 
HETATM   25  C4  UNL     1      26.718   1.880  51.982  1.00  0.00     0.091 C 
BRANCH  25  26
HETATM   26  N1  UNL     1      27.697   1.094  52.650  1.00  0.00    -0.337 N 
HETATM   27  C3  UNL     1      28.503   1.491  53.729  1.00  0.00     0.221 C 
HETATM   28  O1  UNL     1      28.295   2.675  54.101  1.00  0.00    -0.273 OA
HETATM   29  H6  UNL     1      27.631   0.206  52.130  1.00  0.00     0.168 HD
BRANCH  27  30
HETATM   30  C2  UNL     1      29.400   0.388  54.147  1.00  0.00     0.098 C 
HETATM   31  C1  UNL     1      29.054  -0.906  53.417  1.00  0.00     0.014 C 
ENDBRANCH  27  30
ENDBRANCH  25  26
ENDBRANCH   1  24
TORSDOF 7
ENDMDL
MODEL 2
REMARK VINA RESULT:      -7.8      3.097      5.175
REMARK  7 active torsions:
REMARK  status: ('A' for Active; 'I' for Inactive)
REMARK    1  A    between atoms: C2_2  and  C3_3 
REMARK       I    between atoms: C3_3  and  N1_5 
REMARK    2  A    between atoms: N1_5  and  C4_6 
REMARK    3  A    between atoms: C5_7  and  C6_8 
REMARK    4  A    between atoms: C11_13  and  C12_14 
REMARK    5  A    between atoms: C12_14  and  N2_15 
REMARK    6  A    between atoms: N2_15  and  C13_16 
REMARK    7  A    between atoms: C13_16  and  C14_17 
ROOT
HETATM    1  C6  UNL     1      25.334   4.177  49.227  1.00  0.00     0.015 C 
HETATM    2  C7  UNL     1      24.594   3.790  50.183  1.00  0.00    -0.006 C 
HETATM    3  C8  UNL     1      24.152   3.922  51.577  1.00  0.00    -0.038 A 
HETATM    4  C9  UNL     1      23.709   3.989  52.806  1.00  0.00     0.051 A 
HETATM    5  C10 UNL     1      22.688   2.996  52.295  1.00  0.00     0.035 A 
HETATM    6  C11 UNL     1      23.287   1.988  51.375  1.00  0.00     0.074 C 
HETATM    7  C20 UNL     1      23.593   2.692  50.033  1.00  0.00     0.052 C 
HETATM    8  N3  UNL     1      23.229   2.639  48.722  1.00  0.00    -0.243 NA
HETATM    9  C21 UNL     1      21.854   3.213  48.413  1.00  0.00     0.254 C 
HETATM   10  N4  UNL     1      21.307   4.183  49.187  1.00  0.00    -0.172 NA
HETATM   11  N5  UNL     1      21.770   4.516  50.526  1.00  0.00    -0.305 N 
HETATM   12  C22 UNL     1      22.559   4.299  51.567  1.00  0.00     0.121 A 
HETATM   13  H24 UNL     1      21.129   5.357  50.752  1.00  0.00     0.183 HD
ENDROOT
BRANCH   6  14
HETATM   14  C12 UNL     1      24.460   1.280  51.916  1.00  0.00     0.281 C 
BRANCH  14  15
HETATM   15  N2  UNL     1      24.111   0.657  53.185  1.00  0.00     0.088 N 
HETATM   16  H15 UNL     1      24.240   1.289  53.979  1.00  0.00     0.316 HD
BRANCH  15  17
HETATM   17  C13 UNL     1      24.638  -0.657  53.366  1.00  0.00     0.308 C 
BRANCH  17  18
HETATM   18  C14 UNL     1      26.099  -0.510  53.686  1.00  0.00    -0.030 A 
HETATM   19  C15 UNL     1      26.645   0.260  54.690  1.00  0.00     0.009 A 
HETATM   20  C16 UNL     1      28.010   0.294  54.859  1.00  0.00     0.001 A 
HETATM   21  C17 UNL     1      28.885  -0.424  54.053  1.00  0.00     0.000 A 
HETATM   22  C18 UNL     1      28.310  -1.179  53.064  1.00  0.00     0.001 A 
HETATM   23  C19 UNL     1      26.949  -1.245  52.855  1.00  0.00     0.009 A 
ENDBRANCH  17  18
ENDBRANCH  15  17
ENDBRANCH  14  15
ENDBRANCH   6  14
BRANCH   1  24
HETATM   24  C5  UNL     1      26.295   5.251  49.282  1.00  0.00     0.018 C 
HETATM   25  C4  UNL     1      27.464   5.151  48.718  1.00  0.00     0.091 C 
BRANCH  25  26
HETATM   26  N1  UNL     1      28.509   6.115  48.686  1.00  0.00    -0.337 N 
HETATM   27  C3  UNL     1      29.829   5.910  48.254  1.00  0.00     0.221 C 
HETATM   28  O1  UNL     1      30.054   4.734  47.867  1.00  0.00    -0.273 OA
HETATM   29  H6  UNL     1      28.025   6.948  49.052  1.00  0.00     0.168 HD
BRANCH  27  30
HETATM   30  C2  UNL     1      30.618   7.159  48.373  1.00  0.00     0.098 C 
HETATM   31  C1  UNL     1      29.727   8.336  48.761  1.00  0.00     0.014 C 
ENDBRANCH  27  30
ENDBRANCH  25  26
ENDBRANCH   1  24
TORSDOF 7
ENDMDL
MODEL 3
REMARK VINA RESULT:      -7.5      1.624      5.664
REMARK  7 active torsions:
REMARK  status: ('A' for Active; 'I' for Inactive)
REMARK    1  A    between atoms: C2_2  and  C3_3 
REMARK       I    between atoms: C3_3  and  N1_5 
REMARK    2  A    between atoms: N1_5  and  C4_6 
REMARK    3  A    between atoms: C5_7  and  C6_8 
REMARK    4  A    between atoms: C11_13  and  C12_14 
REMARK    5  A    between atoms: C12_14  and  N2_15 
REMARK    6  A    between atoms: N2_15  and  C13_16 
REMARK    7  A    between atoms: C13_16  and  C14_17 
ROOT
HETATM    1  C6  UNL     1      23.805   0.967  52.941  1.00  0.00     0.015 C 
HETATM    2  C7  UNL     1      23.544   1.849  52.068  1.00  0.00    -0.006 C 
HETATM    3  C8  UNL     1      23.962   2.648  50.907  1.00  0.00    -0.038 A 
HETATM    4  C9  UNL     1      24.267   3.386  49.872  1.00  0.00     0.051 A 
HETATM    5  C10 UNL     1      22.797   3.741  49.925  1.00  0.00     0.035 A 
HETATM    6  C11 UNL     1      22.305   3.919  51.320  1.00  0.00     0.074 C 
HETATM    7  C20 UNL     1      22.214   2.522  51.975  1.00  0.00     0.052 C 
HETATM    8  N3  UNL     1      21.284   1.679  52.503  1.00  0.00    -0.243 NA
HETATM    9  C21 UNL     1      20.403   0.973  51.482  1.00  0.00     0.254 C 
HETATM   10  N4  UNL     1      20.843   0.729  50.223  1.00  0.00    -0.172 NA
HETATM   11  N5  UNL     1      21.992   1.387  49.618  1.00  0.00    -0.305 N 
HETATM   12  C22 UNL     1      22.972   2.277  49.658  1.00  0.00     0.121 A 
HETATM   13  H24 UNL     1      22.036   0.873  48.668  1.00  0.00     0.183 HD
ENDROOT
BRANCH   6  14
HETATM   14  C12 UNL     1      23.088   4.868  52.133  1.00  0.00     0.281 C 
BRANCH  14  15
HETATM   15  N2  UNL     1      22.977   6.204  51.563  1.00  0.00     0.088 N 
HETATM   16  H15 UNL     1      22.370   6.229  50.741  1.00  0.00     0.316 HD
BRANCH  15  17
HETATM   17  C13 UNL     1      24.220   6.891  51.418  1.00  0.00     0.308 C 
BRANCH  17  18
HETATM   18  C14 UNL     1      24.443   7.101  49.947  1.00  0.00    -0.030 A 
HETATM   19  C15 UNL     1      23.479   7.378  49.003  1.00  0.00     0.009 A 
HETATM   20  C16 UNL     1      23.839   7.545  47.685  1.00  0.00     0.001 A 
HETATM   21  C17 UNL     1      25.155   7.445  47.249  1.00  0.00     0.000 A 
HETATM   22  C18 UNL     1      26.090   7.168  48.212  1.00  0.00     0.001 A 
HETATM   23  C19 UNL     1      25.777   6.994  49.544  1.00  0.00     0.009 A 
ENDBRANCH  17  18
ENDBRANCH  15  17
ENDBRANCH  14  15
ENDBRANCH   6  14
BRANCH   1  24
HETATM   24  C5  UNL     1      25.048   0.247  53.071  1.00  0.00     0.018 C 
HETATM   25  C4  UNL     1      26.163   0.855  53.359  1.00  0.00     0.091 C 
BRANCH  25  26
HETATM   26  N1  UNL     1      27.456   0.288  53.520  1.00  0.00    -0.337 N 
HETATM   27  C3  UNL     1      28.689   0.940  53.345  1.00  0.00     0.221 C 
HETATM   28  O1  UNL     1      28.575   2.148  53.012  1.00  0.00    -0.273 OA
HETATM   29  H6  UNL     1      27.221  -0.679  53.786  1.00  0.00     0.168 HD
BRANCH  27  30
HETATM   30  C2  UNL     1      29.813   0.010  53.605  1.00  0.00     0.098 C 
HETATM   31  C1  UNL     1      29.381  -1.440  53.414  1.00  0.00     0.014 C 
ENDBRANCH  27  30
ENDBRANCH  25  26
ENDBRANCH   1  24
TORSDOF 7
ENDMDL
MODEL 4
REMARK VINA RESULT:      -7.4      1.434      2.002
REMARK  7 active torsions:
REMARK  status: ('A' for Active; 'I' for Inactive)
REMARK    1  A    between atoms: C2_2  and  C3_3 
REMARK       I    between atoms: C3_3  and  N1_5 
REMARK    2  A    between atoms: N1_5  and  C4_6 
REMARK    3  A    between atoms: C5_7  and  C6_8 
REMARK    4  A    between atoms: C11_13  and  C12_14 
REMARK    5  A    between atoms: C12_14  and  N2_15 
REMARK    6  A    between atoms: N2_15  and  C13_16 
REMARK    7  A    between atoms: C13_16  and  C14_17 
ROOT
HETATM    1  C6  UNL     1      25.785   3.494  49.915  1.00  0.00     0.015 C 
HETATM    2  C7  UNL     1      24.776   4.148  50.322  1.00  0.00    -0.006 C 
HETATM    3  C8  UNL     1      23.795   4.438  51.376  1.00  0.00    -0.038 A 
HETATM    4  C9  UNL     1      22.895   4.749  52.272  1.00  0.00     0.051 A 
HETATM    5  C10 UNL     1      22.575   5.860  51.296  1.00  0.00     0.035 A 
HETATM    6  C11 UNL     1      22.631   5.405  49.879  1.00  0.00     0.074 C 
HETATM    7  C20 UNL     1      24.117   5.207  49.501  1.00  0.00     0.052 C 
HETATM    8  N3  UNL     1      25.048   5.707  48.643  1.00  0.00    -0.243 NA
HETATM    9  C21 UNL     1      25.592   7.079  49.011  1.00  0.00     0.254 C 
HETATM   10  N4  UNL     1      25.624   7.500  50.301  1.00  0.00    -0.172 NA
HETATM   11  N5  UNL     1      24.860   6.887  51.378  1.00  0.00    -0.305 N 
HETATM   12  C22 UNL     1      23.973   6.005  51.813  1.00  0.00     0.121 A 
HETATM   13  H24 UNL     1      25.213   7.463  52.221  1.00  0.00     0.183 HD
ENDROOT
BRANCH   6  14
HETATM   14  C12 UNL     1      21.815   4.214  49.581  1.00  0.00     0.281 C 
BRANCH  14  15
HETATM   15  N2  UNL     1      22.396   3.494  48.457  1.00  0.00     0.088 N 
HETATM   16  H15 UNL     1      22.501   4.082  47.627  1.00  0.00     0.316 HD
BRANCH  15  17
HETATM   17  C13 UNL     1      21.825   2.207  48.219  1.00  0.00     0.308 C 
BRANCH  17  18
HETATM   18  C14 UNL     1      21.622   1.555  49.556  1.00  0.00    -0.030 A 
HETATM   19  C15 UNL     1      22.587   1.332  50.515  1.00  0.00     0.009 A 
HETATM   20  C16 UNL     1      22.246   0.718  51.699  1.00  0.00     0.001 A 
HETATM   21  C17 UNL     1      20.951   0.303  51.982  1.00  0.00     0.000 A 
HETATM   22  C18 UNL     1      20.016   0.537  51.009  1.00  0.00     0.001 A 
HETATM   23  C19 UNL     1      20.309   1.149  49.808  1.00  0.00     0.009 A 
ENDBRANCH  17  18
ENDBRANCH  15  17
ENDBRANCH  14  15
ENDBRANCH   6  14
BRANCH   1  24
HETATM   24  C5  UNL     1      26.497   2.486  50.659  1.00  0.00     0.018 C 
HETATM   25  C4  UNL     1      26.365   2.368  51.949  1.00  0.00     0.091 C 
BRANCH  25  26
HETATM   26  N1  UNL     1      26.996   1.433  52.814  1.00  0.00    -0.337 N 
HETATM   27  C3  UNL     1      28.230   1.589  53.467  1.00  0.00     0.221 C 
HETATM   28  O1  UNL     1      28.792   2.688  53.221  1.00  0.00    -0.273 OA
HETATM   29  H6  UNL     1      26.310   0.663  52.813  1.00  0.00     0.168 HD
BRANCH  27  30
HETATM   30  C2  UNL     1      28.545   0.393  54.283  1.00  0.00     0.098 C 
HETATM   31  C1  UNL     1      29.664  -0.426  53.646  1.00  0.00     0.014 C 
ENDBRANCH  27  30
ENDBRANCH  25  26
ENDBRANCH   1  24
TORSDOF 7
ENDMDL
MODEL 5
REMARK VINA RESULT:      -7.1      3.335      4.793
REMARK  7 active torsions:
REMARK  status: ('A' for Active; 'I' for Inactive)
REMARK    1  A    between atoms: C2_2  and  C3_3 
REMARK       I    between atoms: C3_3  and  N1_5 
REMARK    2  A    between atoms: N1_5  and  C4_6 
REMARK    3  A    between atoms: C5_7  and  C6_8 
REMARK    4  A    between atoms: C11_13  and  C12_14 
REMARK    5  A    between atoms: C12_14  and  N2_15 
REMARK    6  A    between atoms: N2_15  and  C13_16 
REMARK    7  A    between atoms: C13_16  and  C14_17 
ROOT
HETATM    1  C6  UNL     1      25.568   3.946  49.218  1.00  0.00     0.015 C 
HETATM    2  C7  UNL     1      24.665   4.614  49.809  1.00  0.00    -0.006 C 
HETATM    3  C8  UNL     1      24.282   5.724  50.692  1.00  0.00    -0.038 A 
HETATM    4  C9  UNL     1      23.872   6.696  51.465  1.00  0.00     0.051 A 
HETATM    5  C10 UNL     1      22.508   6.264  50.972  1.00  0.00     0.035 A 
HETATM    6  C11 UNL     1      22.382   4.783  50.875  1.00  0.00     0.074 C 
HETATM    7  C20 UNL     1      23.210   4.313  49.658  1.00  0.00     0.052 C 
HETATM    8  N3  UNL     1      23.036   3.703  48.453  1.00  0.00    -0.243 NA
HETATM    9  C21 UNL     1      22.423   4.580  47.371  1.00  0.00     0.254 C 
HETATM   10  N4  UNL     1      22.578   5.927  47.386  1.00  0.00    -0.172 NA
HETATM   11  N5  UNL     1      23.007   6.686  48.552  1.00  0.00    -0.305 N 
HETATM   12  C22 UNL     1      23.346   6.753  49.830  1.00  0.00     0.121 A 
HETATM   13  H24 UNL     1      23.062   7.680  48.130  1.00  0.00     0.183 HD
ENDROOT
BRANCH   6  14
HETATM   14  C12 UNL     1      22.733   4.053  52.107  1.00  0.00     0.281 C 
BRANCH  14  15
HETATM   15  N2  UNL     1      22.853   2.632  51.813  1.00  0.00     0.088 N 
HETATM   16  H15 UNL     1      22.092   2.289  51.221  1.00  0.00     0.316 HD
BRANCH  15  17
HETATM   17  C13 UNL     1      23.152   1.816  52.945  1.00  0.00     0.308 C 
BRANCH  17  18
HETATM   18  C14 UNL     1      24.466   1.140  52.673  1.00  0.00    -0.030 A 
HETATM   19  C15 UNL     1      25.507   1.644  51.924  1.00  0.00     0.009 A 
HETATM   20  C16 UNL     1      26.655   0.903  51.763  1.00  0.00     0.001 A 
HETATM   21  C17 UNL     1      26.822  -0.354  52.330  1.00  0.00     0.000 A 
HETATM   22  C18 UNL     1      25.768  -0.828  53.068  1.00  0.00     0.001 A 
HETATM   23  C19 UNL     1      24.599  -0.122  53.258  1.00  0.00     0.009 A 
ENDBRANCH  17  18
ENDBRANCH  15  17
ENDBRANCH  14  15
ENDBRANCH   6  14
BRANCH   1  24
HETATM   24  C5  UNL     1      26.986   4.197  49.284  1.00  0.00     0.018 C 
HETATM   25  C4  UNL     1      27.540   5.169  48.619  1.00  0.00     0.091 C 
BRANCH  25  26
HETATM   26  N1  UNL     1      28.912   5.538  48.583  1.00  0.00    -0.337 N 
HETATM   27  C3  UNL     1      29.442   6.769  48.161  1.00  0.00     0.221 C 
HETATM   28  O1  UNL     1      28.566   7.591  47.787  1.00  0.00    -0.273 OA
HETATM   29  H6  UNL     1      29.361   4.681  48.939  1.00  0.00     0.168 HD
BRANCH  27  30
HETATM   30  C2  UNL     1      30.920   6.768  48.271  1.00  0.00     0.098 C 
HETATM   31  C1  UNL     1      31.560   7.473  47.079  1.00  0.00     0.014 C 
ENDBRANCH  27  30
ENDBRANCH  25  26
ENDBRANCH   1  24
TORSDOF 7
ENDMDL
MODEL 6
REMARK VINA RESULT:      -7.1      2.547      6.360
REMARK  7 active torsions:
REMARK  status: ('A' for Active; 'I' for Inactive)
REMARK    1  A    between atoms: C2_2  and  C3_3 
REMARK       I    between atoms: C3_3  and  N1_5 
REMARK    2  A    between atoms: N1_5  and  C4_6 
REMARK    3  A    between atoms: C5_7  and  C6_8 
REMARK    4  A    between atoms: C11_13  and  C12_14 
REMARK    5  A    between atoms: C12_14  and  N2_15 
REMARK    6  A    between atoms: N2_15  and  C13_16 
REMARK    7  A    between atoms: C13_16  and  C14_17 
ROOT
HETATM    1  C6  UNL     1      24.554   2.838  53.055  1.00  0.00     0.015 C 
HETATM    2  C7  UNL     1      24.400   3.371  51.914  1.00  0.00    -0.006 C 
HETATM    3  C8  UNL     1      24.895   3.621  50.554  1.00  0.00    -0.038 A 
HETATM    4  C9  UNL     1      25.275   3.879  49.329  1.00  0.00     0.051 A 
HETATM    5  C10 UNL     1      23.875   4.443  49.211  1.00  0.00     0.035 A 
HETATM    6  C11 UNL     1      23.459   5.187  50.433  1.00  0.00     0.074 C 
HETATM    7  C20 UNL     1      23.181   4.154  51.549  1.00  0.00     0.052 C 
HETATM    8  N3  UNL     1      22.154   3.708  52.323  1.00  0.00    -0.243 NA
HETATM    9  C21 UNL     1      21.147   2.820  51.607  1.00  0.00     0.254 C 
HETATM   10  N4  UNL     1      21.508   2.072  50.534  1.00  0.00    -0.172 NA
HETATM   11  N5  UNL     1      22.722   2.286  49.761  1.00  0.00    -0.305 N 
HETATM   12  C22 UNL     1      23.824   2.973  49.500  1.00  0.00     0.121 A 
HETATM   13  H24 UNL     1      22.661   1.461  49.065  1.00  0.00     0.183 HD
ENDROOT
BRANCH   6  14
HETATM   14  C12 UNL     1      24.397   6.239  50.864  1.00  0.00     0.281 C 
BRANCH  14  15
HETATM   15  N2  UNL     1      24.638   7.158  49.762  1.00  0.00     0.088 N 
HETATM   16  H15 UNL     1      24.806   6.673  48.877  1.00  0.00     0.316 HD
BRANCH  15  17
HETATM   17  C13 UNL     1      25.558   8.210  50.057  1.00  0.00     0.308 C 
BRANCH  17  18
HETATM   18  C14 UNL     1      26.842   7.892  49.344  1.00  0.00    -0.030 A 
HETATM   19  C15 UNL     1      27.101   6.774  48.581  1.00  0.00     0.009 A 
HETATM   20  C16 UNL     1      28.333   6.622  47.988  1.00  0.00     0.001 A 
HETATM   21  C17 UNL     1      29.351   7.559  48.121  1.00  0.00     0.000 A 
HETATM   22  C18 UNL     1      29.061   8.658  48.886  1.00  0.00     0.001 A 
HETATM   23  C19 UNL     1      27.842   8.855  49.499  1.00  0.00     0.009 A 
ENDBRANCH  17  18
ENDBRANCH  15  17
ENDBRANCH  14  15
ENDBRANCH   6  14
BRANCH   1  24
HETATM   24  C5  UNL     1      25.680   2.039  53.471  1.00  0.00     0.018 C 
HETATM   25  C4  UNL     1      26.383   1.353  52.617  1.00  0.00     0.091 C 
BRANCH  25  26
HETATM   26  N1  UNL     1      27.510   0.525  52.872  1.00  0.00    -0.337 N 
HETATM   27  C3  UNL     1      27.509  -0.869  53.049  1.00  0.00     0.221 C 
HETATM   28  O1  UNL     1      26.364  -1.384  52.965  1.00  0.00    -0.273 OA
HETATM   29  H6  UNL     1      28.272   1.220  52.882  1.00  0.00     0.168 HD
BRANCH  27  30
HETATM   30  C2  UNL     1      28.883  -1.367  53.294  1.00  0.00     0.098 C 
HETATM   31  C1  UNL     1      29.825  -0.222  53.655  1.00  0.00     0.014 C 
ENDBRANCH  27  30
ENDBRANCH  25  26
ENDBRANCH   1  24
TORSDOF 7
ENDMDL
MODEL 7
REMARK VINA RESULT:      -6.8      8.683     11.659
REMARK  7 active torsions:
REMARK  status: ('A' for Active; 'I' for Inactive)
REMARK    1  A    between atoms: C2_2  and  C3_3 
REMARK       I    between atoms: C3_3  and  N1_5 
REMARK    2  A    between atoms: N1_5  and  C4_6 
REMARK    3  A    between atoms: C5_7  and  C6_8 
REMARK    4  A    between atoms: C11_13  and  C12_14 
REMARK    5  A    between atoms: C12_14  and  N2_15 
REMARK    6  A    between atoms: N2_15  and  C13_16 
REMARK    7  A    between atoms: C13_16  and  C14_17 
ROOT
HETATM    1  C6  UNL     1      33.465   6.970  45.590  1.00  0.00     0.015 C 
HETATM    2  C7  UNL     1      32.866   7.022  46.708  1.00  0.00    -0.006 C 
HETATM    3  C8  UNL     1      31.708   6.678  47.543  1.00  0.00    -0.038 A 
HETATM    4  C9  UNL     1      30.710   6.403  48.342  1.00  0.00     0.051 A 
HETATM    5  C10 UNL     1      31.633   6.983  49.392  1.00  0.00     0.035 A 
HETATM    6  C11 UNL     1      32.374   8.178  48.898  1.00  0.00     0.074 C 
HETATM    7  C20 UNL     1      33.455   7.692  47.906  1.00  0.00     0.052 C 
HETATM    8  N3  UNL     1      34.809   7.668  47.771  1.00  0.00    -0.243 NA
HETATM    9  C21 UNL     1      35.525   6.652  48.649  1.00  0.00     0.254 C 
HETATM   10  N4  UNL     1      34.906   5.517  49.058  1.00  0.00    -0.172 NA
HETATM   11  N5  UNL     1      33.465   5.314  49.020  1.00  0.00    -0.305 N 
HETATM   12  C22 UNL     1      32.238   5.755  48.785  1.00  0.00     0.121 A 
HETATM   13  H24 UNL     1      33.402   4.290  49.360  1.00  0.00     0.183 HD
ENDROOT
BRANCH   6  14
HETATM   14  C12 UNL     1      31.523   9.237  48.325  1.00  0.00     0.281 C 
BRANCH  14  15
HETATM   15  N2  UNL     1      30.701   9.822  49.374  1.00  0.00     0.088 N 
HETATM   16  H15 UNL     1      30.562   9.186  50.163  1.00  0.00     0.316 HD
BRANCH  15  17
HETATM   17  C13 UNL     1      29.519  10.473  48.908  1.00  0.00     0.308 C 
BRANCH  17  18
HETATM   18  C14 UNL     1      28.582   9.403  48.425  1.00  0.00    -0.030 A 
HETATM   19  C15 UNL     1      28.310   9.082  47.113  1.00  0.00     0.009 A 
HETATM   20  C16 UNL     1      27.422   8.070  46.826  1.00  0.00     0.001 A 
HETATM   21  C17 UNL     1      26.773   7.340  47.814  1.00  0.00     0.000 A 
HETATM   22  C18 UNL     1      27.065   7.683  49.108  1.00  0.00     0.001 A 
HETATM   23  C19 UNL     1      27.947   8.689  49.444  1.00  0.00     0.009 A 
ENDBRANCH  17  18
ENDBRANCH  15  17
ENDBRANCH  14  15
ENDBRANCH   6  14
BRANCH   1  24
HETATM   24  C5  UNL     1      32.981   6.313  44.401  1.00  0.00     0.018 C 
HETATM   25  C4  UNL     1      33.465   5.170  44.007  1.00  0.00     0.091 C 
BRANCH  25  26
HETATM   26  N1  UNL     1      33.095   4.406  42.867  1.00  0.00    -0.337 N 
HETATM   27  C3  UNL     1      33.715   4.421  41.606  1.00  0.00     0.221 C 
HETATM   28  O1  UNL     1      34.691   5.212  41.536  1.00  0.00    -0.273 OA
HETATM   29  H6  UNL     1      32.290   3.876  43.232  1.00  0.00     0.168 HD
BRANCH  27  30
HETATM   30  C2  UNL     1      33.037   3.484  40.679  1.00  0.00     0.098 C 
HETATM   31  C1  UNL     1      34.018   2.453  40.128  1.00  0.00     0.014 C 
ENDBRANCH  27  30
ENDBRANCH  25  26
ENDBRANCH   1  24
TORSDOF 7
ENDMDL
MODEL 8
REMARK VINA RESULT:      -6.8      1.685      2.292
REMARK  7 active torsions:
REMARK  status: ('A' for Active; 'I' for Inactive)
REMARK    1  A    between atoms: C2_2  and  C3_3 
REMARK       I    between atoms: C3_3  and  N1_5 
REMARK    2  A    between atoms: N1_5  and  C4_6 
REMARK    3  A    between atoms: C5_7  and  C6_8 
REMARK    4  A    between atoms: C11_13  and  C12_14 
REMARK    5  A    between atoms: C12_14  and  N2_15 
REMARK    6  A    between atoms: N2_15  and  C13_16 
REMARK    7  A    between atoms: C13_16  and  C14_17 
ROOT
HETATM    1  C6  UNL     1      25.353   3.133  50.142  1.00  0.00     0.015 C 
HETATM    2  C7  UNL     1      24.199   2.985  50.646  1.00  0.00    -0.006 C 
HETATM    3  C8  UNL     1      23.342   2.475  51.726  1.00  0.00    -0.038 A 
HETATM    4  C9  UNL     1      22.524   2.053  52.654  1.00  0.00     0.051 A 
HETATM    5  C10 UNL     1      21.516   2.873  51.879  1.00  0.00     0.035 A 
HETATM    6  C11 UNL     1      21.696   2.749  50.405  1.00  0.00     0.074 C 
HETATM    7  C20 UNL     1      22.965   3.538  50.011  1.00  0.00     0.052 C 
HETATM    8  N3  UNL     1      23.332   4.612  49.259  1.00  0.00    -0.243 NA
HETATM    9  C21 UNL     1      22.988   5.967  49.860  1.00  0.00     0.254 C 
HETATM   10  N4  UNL     1      22.887   6.135  51.202  1.00  0.00    -0.172 NA
HETATM   11  N5  UNL     1      22.742   5.042  52.153  1.00  0.00    -0.305 N 
HETATM   12  C22 UNL     1      22.598   3.754  52.425  1.00  0.00     0.121 A 
HETATM   13  H24 UNL     1      22.764   5.589  53.085  1.00  0.00     0.183 HD
ENDROOT
BRANCH   6  14
HETATM   14  C12 UNL     1      21.720   1.363  49.901  1.00  0.00     0.281 C 
BRANCH  14  15
HETATM   15  N2  UNL     1      20.631   0.608  50.502  1.00  0.00     0.088 N 
HETATM   16  H15 UNL     1      20.797  -0.402  50.484  1.00  0.00     0.316 HD
BRANCH  15  17
HETATM   17  C13 UNL     1      19.327   1.012  50.083  1.00  0.00     0.308 C 
BRANCH  17  18
HETATM   18  C14 UNL     1      18.335   0.220  50.887  1.00  0.00    -0.030 A 
HETATM   19  C15 UNL     1      17.065  -0.142  50.494  1.00  0.00     0.009 A 
HETATM   20  C16 UNL     1      16.268  -0.872  51.346  1.00  0.00     0.001 A 
HETATM   21  C17 UNL     1      16.688  -1.270  52.609  1.00  0.00     0.000 A 
HETATM   22  C18 UNL     1      17.955  -0.893  52.970  1.00  0.00     0.001 A 
HETATM   23  C19 UNL     1      18.791  -0.163  52.151  1.00  0.00     0.009 A 
ENDBRANCH  17  18
ENDBRANCH  15  17
ENDBRANCH  14  15
ENDBRANCH   6  14
BRANCH   1  24
HETATM   24  C5  UNL     1      26.592   2.663  50.711  1.00  0.00     0.018 C 
HETATM   25  C4  UNL     1      26.612   1.811  51.694  1.00  0.00     0.091 C 
BRANCH  25  26
HETATM   26  N1  UNL     1      27.744   1.259  52.355  1.00  0.00    -0.337 N 
HETATM   27  C3  UNL     1      28.217   1.593  53.634  1.00  0.00     0.221 C 
HETATM   28  O1  UNL     1      27.532   2.479  54.208  1.00  0.00    -0.273 OA
HETATM   29  H6  UNL     1      28.079   0.585  51.651  1.00  0.00     0.168 HD
BRANCH  27  30
HETATM   30  C2  UNL     1      29.422   0.797  53.971  1.00  0.00     0.098 C 
HETATM   31  C1  UNL     1      29.170  -0.693  53.762  1.00  0.00     0.014 C 
ENDBRANCH  27  30
ENDBRANCH  25  26
ENDBRANCH   1  24
TORSDOF 7
ENDMDL
MODEL 9
REMARK VINA RESULT:      -6.8      8.435     12.145
REMARK  7 active torsions:
REMARK  status: ('A' for Active; 'I' for Inactive)
REMARK    1  A    between atoms: C2_2  and  C3_3 
REMARK       I    between atoms: C3_3  and  N1_5 
REMARK    2  A    between atoms: N1_5  and  C4_6 
REMARK    3  A    between atoms: C5_7  and  C6_8 
REMARK    4  A    between atoms: C11_13  and  C12_14 
REMARK    5  A    between atoms: C12_14  and  N2_15 
REMARK    6  A    between atoms: N2_15  and  C13_16 
REMARK    7  A    between atoms: C13_16  and  C14_17 
ROOT
HETATM    1  C6  UNL     1      31.106   8.198  46.168  1.00  0.00     0.015 C 
HETATM    2  C7  UNL     1      30.108   8.110  46.946  1.00  0.00    -0.006 C 
HETATM    3  C8  UNL     1      28.671   7.875  47.144  1.00  0.00    -0.038 A 
HETATM    4  C9  UNL     1      27.404   7.670  47.391  1.00  0.00     0.051 A 
HETATM    5  C10 UNL     1      27.871   7.694  48.830  1.00  0.00     0.035 A 
HETATM    6  C11 UNL     1      28.904   8.739  49.074  1.00  0.00     0.074 C 
HETATM    7  C20 UNL     1      30.224   8.265  48.427  1.00  0.00     0.052 C 
HETATM    8  N3  UNL     1      31.494   7.925  48.781  1.00  0.00    -0.243 NA
HETATM    9  C21 UNL     1      31.633   6.564  49.447  1.00  0.00     0.254 C 
HETATM   10  N4  UNL     1      30.753   5.563  49.193  1.00  0.00    -0.172 NA
HETATM   11  N5  UNL     1      29.448   5.761  48.580  1.00  0.00    -0.305 N 
HETATM   12  C22 UNL     1      28.504   6.553  48.093  1.00  0.00     0.121 A 
HETATM   13  H24 UNL     1      29.111   4.737  48.500  1.00  0.00     0.183 HD
ENDROOT
BRANCH   6  14
HETATM   14  C12 UNL     1      28.522  10.096  48.640  1.00  0.00     0.281 C 
BRANCH  14  15
HETATM   15  N2  UNL     1      29.430  11.069  49.231  1.00  0.00     0.088 N 
HETATM   16  H15 UNL     1      29.252  11.215  50.228  1.00  0.00     0.316 HD
BRANCH  15  17
HETATM   17  C13 UNL     1      29.598  12.263  48.466  1.00  0.00     0.308 C 
BRANCH  17  18
HETATM   18  C14 UNL     1      30.658  11.987  47.439  1.00  0.00    -0.030 A 
HETATM   19  C15 UNL     1      30.521  12.089  46.071  1.00  0.00     0.009 A 
HETATM   20  C16 UNL     1      31.590  11.801  45.253  1.00  0.00     0.001 A 
HETATM   21  C17 UNL     1      32.827  11.405  45.747  1.00  0.00     0.000 A 
HETATM   22  C18 UNL     1      32.931  11.313  47.110  1.00  0.00     0.001 A 
HETATM   23  C19 UNL     1      31.889  11.592  47.970  1.00  0.00     0.009 A 
ENDBRANCH  17  18
ENDBRANCH  15  17
ENDBRANCH  14  15
ENDBRANCH   6  14
BRANCH   1  24
HETATM   24  C5  UNL     1      31.082   8.025  44.736  1.00  0.00     0.018 C 
HETATM   25  C4  UNL     1      31.955   7.280  44.123  1.00  0.00     0.091 C 
BRANCH  25  26
HETATM   26  N1  UNL     1      32.060   7.015  42.730  1.00  0.00    -0.337 N 
HETATM   27  C3  UNL     1      32.666   5.899  42.129  1.00  0.00     0.221 C 
HETATM   28  O1  UNL     1      33.152   5.085  42.956  1.00  0.00    -0.273 OA
HETATM   29  H6  UNL     1      31.583   7.837  42.332  1.00  0.00     0.168 HD
BRANCH  27  30
HETATM   30  C2  UNL     1      32.571   5.985  40.652  1.00  0.00     0.098 C 
HETATM   31  C1  UNL     1      31.656   4.896  40.098  1.00  0.00     0.014 C 
ENDBRANCH  27  30
ENDBRANCH  25  26
ENDBRANCH   1  24
TORSDOF 7
ENDMDL
