MODEL 1
REMARK VINA RESULT:      -7.1      0.000      0.000
REMARK  6 active torsions:
REMARK  status: ('A' for Active; 'I' for Inactive)
REMARK    1  A    between atoms: C5_6  and  N1_7 
REMARK    2  A    between atoms: N1_7  and  C6_8 
REMARK    3  A    between atoms: C8_10  and  O2_11 
REMARK    4  A    between atoms: C10_13  and  O3_14 
REMARK    5  A    between atoms: C12_16  and  O4_17 
REMARK    6  A    between atoms: C18_25  and  O5_26 
ROOT
HETATM    1  C1  UNL     1      24.962   7.615  50.340  1.00  0.00     0.000 C 
HETATM    2  O1  UNL     1      25.096   6.236  49.990  1.00  0.00     0.000 OA
HETATM    3  C2  UNL     1      23.947   5.474  49.677  1.00  0.00     0.002 A 
HETATM    4  C3  UNL     1      25.103   5.444  48.981  1.00  0.00     0.057 A 
HETATM    5  C4  UNL     1      25.601   4.201  49.436  1.00  0.00     0.015 C 
HETATM    6  C5  UNL     1      24.984   4.034  50.664  1.00  0.00     0.137 C 
HETATM    7  N2  UNL     1      23.980   4.473  51.460  1.00  0.00    -0.224 NA
HETATM    8  C15 UNL     1      23.548   5.238  52.300  1.00  0.00     0.234 C 
HETATM    9  N3  UNL     1      22.166   4.879  52.562  1.00  0.00    -0.254 NA
HETATM   10  C16 UNL     1      21.439   4.490  51.564  1.00  0.00     0.120 C 
HETATM   11  C17 UNL     1      21.810   4.373  50.195  1.00  0.00     0.056 C 
HETATM   12  C18 UNL     1      22.770   4.712  49.387  1.00  0.00     0.077 C 
ENDROOT
BRANCH   6  13
HETATM   13  N1  UNL     1      25.517   3.048  51.479  1.00  0.00    -0.340 N 
HETATM   14  H4  UNL     1      26.545   3.201  51.487  1.00  0.00     0.167 HD
BRANCH  13  15
HETATM   15  C6  UNL     1      25.433   1.926  52.328  1.00  0.00     0.039 A 
HETATM   16  C7  UNL     1      26.511   1.821  53.215  1.00  0.00     0.069 A 
HETATM   17  C8  UNL     1      26.537   0.772  54.120  1.00  0.00     0.106 A 
HETATM   18  C10 UNL     1      25.467  -0.096  54.061  1.00  0.00     0.135 A 
HETATM   19  C12 UNL     1      24.404  -0.009  53.198  1.00  0.00     0.106 A 
HETATM   20  C14 UNL     1      24.378   1.039  52.294  1.00  0.00     0.069 A 
BRANCH  17  21
HETATM   21  O2  UNL     1      27.564   0.583  55.036  1.00  0.00    -0.353 OA
HETATM   22  C9  UNL     1      28.896   0.328  54.631  1.00  0.00     0.210 C 
ENDBRANCH  17  21
BRANCH  18  23
HETATM   23  O3  UNL     1      25.493  -1.151  54.971  1.00  0.00    -0.351 OA
HETATM   24  C11 UNL     1      24.826  -1.060  56.199  1.00  0.00     0.210 C 
ENDBRANCH  18  23
BRANCH  19  25
HETATM   25  O4  UNL     1      23.382  -0.947  53.233  1.00  0.00    -0.353 OA
HETATM   26  C13 UNL     1      22.088  -0.531  53.594  1.00  0.00     0.210 C 
ENDBRANCH  19  25
ENDBRANCH  13  15
ENDBRANCH   6  13
BRANCH  12  27
HETATM   27  O5  UNL     1      23.064   4.527  48.069  1.00  0.00    -0.355 OA
HETATM   28  C19 UNL     1      22.173   4.057  47.085  1.00  0.00     0.210 C 
ENDBRANCH  12  27
TORSDOF 6
ENDMDL
MODEL 2
REMARK VINA RESULT:      -7.1      0.298      2.499
REMARK  6 active torsions:
REMARK  status: ('A' for Active; 'I' for Inactive)
REMARK    1  A    between atoms: C5_6  and  N1_7 
REMARK    2  A    between atoms: N1_7  and  C6_8 
REMARK    3  A    between atoms: C8_10  and  O2_11 
REMARK    4  A    between atoms: C10_13  and  O3_14 
REMARK    5  A    between atoms: C12_16  and  O4_17 
REMARK    6  A    between atoms: C18_25  and  O5_26 
ROOT
HETATM    1  C1  UNL     1      24.331   7.630  50.315  1.00  0.00     0.000 C 
HETATM    2  O1  UNL     1      24.664   6.278  49.993  1.00  0.00     0.000 OA
HETATM    3  C2  UNL     1      23.639   5.355  49.683  1.00  0.00     0.002 A 
HETATM    4  C3  UNL     1      24.797   5.477  49.000  1.00  0.00     0.057 A 
HETATM    5  C4  UNL     1      25.459   4.325  49.485  1.00  0.00     0.015 C 
HETATM    6  C5  UNL     1      24.856   4.095  50.709  1.00  0.00     0.137 C 
HETATM    7  N2  UNL     1      23.790   4.401  51.486  1.00  0.00    -0.224 NA
HETATM    8  C15 UNL     1      23.242   5.112  52.306  1.00  0.00     0.234 C 
HETATM    9  N3  UNL     1      21.922   4.566  52.560  1.00  0.00    -0.254 NA
HETATM   10  C16 UNL     1      21.270   4.059  51.563  1.00  0.00     0.120 C 
HETATM   11  C17 UNL     1      21.672   3.972  50.200  1.00  0.00     0.056 C 
HETATM   12  C18 UNL     1      22.585   4.428  49.396  1.00  0.00     0.077 C 
ENDROOT
BRANCH   6  13
HETATM   13  N1  UNL     1      25.512   3.209  51.549  1.00  0.00    -0.340 N 
HETATM   14  H4  UNL     1      26.517   3.473  51.523  1.00  0.00     0.167 HD
BRANCH  13  15
HETATM   15  C6  UNL     1      25.571   2.123  52.445  1.00  0.00     0.039 A 
HETATM   16  C7  UNL     1      24.496   1.235  52.309  1.00  0.00     0.069 A 
HETATM   17  C8  UNL     1      24.447   0.110  53.118  1.00  0.00     0.106 A 
HETATM   18  C10 UNL     1      25.491  -0.034  54.007  1.00  0.00     0.135 A 
HETATM   19  C12 UNL     1      26.550   0.827  54.154  1.00  0.00     0.106 A 
HETATM   20  C14 UNL     1      26.599   1.950  53.346  1.00  0.00     0.069 A 
BRANCH  17  21
HETATM   21  O2  UNL     1      23.422  -0.825  53.059  1.00  0.00    -0.353 OA
HETATM   22  C9  UNL     1      22.077  -0.487  53.344  1.00  0.00     0.210 C 
ENDBRANCH  17  21
BRANCH  18  23
HETATM   23  O3  UNL     1      25.443  -1.164  54.821  1.00  0.00    -0.351 OA
HETATM   24  C11 UNL     1      24.727  -1.155  56.024  1.00  0.00     0.210 C 
ENDBRANCH  18  23
BRANCH  19  25
HETATM   25  O4  UNL     1      27.545   0.575  55.088  1.00  0.00    -0.353 OA
HETATM   26  C13 UNL     1      28.846   0.292  54.636  1.00  0.00     0.210 C 
ENDBRANCH  19  25
ENDBRANCH  13  15
ENDBRANCH   6  13
BRANCH  12  27
HETATM   27  O5  UNL     1      22.920   4.264  48.085  1.00  0.00    -0.355 OA
HETATM   28  C19 UNL     1      22.147   3.594  47.116  1.00  0.00     0.210 C 
ENDBRANCH  12  27
TORSDOF 6
ENDMDL
MODEL 3
REMARK VINA RESULT:      -7.0      2.215      7.629
REMARK  6 active torsions:
REMARK  status: ('A' for Active; 'I' for Inactive)
REMARK    1  A    between atoms: C5_6  and  N1_7 
REMARK    2  A    between atoms: N1_7  and  C6_8 
REMARK    3  A    between atoms: C8_10  and  O2_11 
REMARK    4  A    between atoms: C10_13  and  O3_14 
REMARK    5  A    between atoms: C12_16  and  O4_17 
REMARK    6  A    between atoms: C18_25  and  O5_26 
ROOT
HETATM    1  C1  UNL     1      25.310  -0.379  55.275  1.00  0.00     0.000 C 
HETATM    2  O1  UNL     1      25.807  -0.457  53.938  1.00  0.00     0.000 OA
HETATM    3  C2  UNL     1      27.201  -0.512  53.707  1.00  0.00     0.002 A 
HETATM    4  C3  UNL     1      26.287  -1.284  53.083  1.00  0.00     0.057 A 
HETATM    5  C4  UNL     1      26.272  -0.634  51.827  1.00  0.00     0.015 C 
HETATM    6  C5  UNL     1      26.695   0.650  52.121  1.00  0.00     0.137 C 
HETATM    7  N2  UNL     1      27.289   1.426  53.059  1.00  0.00    -0.224 NA
HETATM    8  C15 UNL     1      27.230   2.130  54.048  1.00  0.00     0.234 C 
HETATM    9  N3  UNL     1      28.575   2.576  54.360  1.00  0.00    -0.254 NA
HETATM   10  C16 UNL     1      29.550   1.743  54.181  1.00  0.00     0.120 C 
HETATM   11  C17 UNL     1      29.486   0.397  53.719  1.00  0.00     0.056 C 
HETATM   12  C18 UNL     1      28.617  -0.540  53.491  1.00  0.00     0.077 C 
ENDROOT
BRANCH   6  13
HETATM   13  N1  UNL     1      26.485   1.598  51.131  1.00  0.00    -0.340 N 
HETATM   14  H4  UNL     1      26.811   1.167  50.243  1.00  0.00     0.167 HD
BRANCH  13  15
HETATM   15  C6  UNL     1      26.059   2.852  50.650  1.00  0.00     0.039 A 
HETATM   16  C7  UNL     1      24.864   3.291  51.234  1.00  0.00     0.069 A 
HETATM   17  C8  UNL     1      24.349   4.523  50.863  1.00  0.00     0.106 A 
HETATM   18  C10 UNL     1      25.082   5.222  49.927  1.00  0.00     0.135 A 
HETATM   19  C12 UNL     1      26.253   4.806  49.344  1.00  0.00     0.106 A 
HETATM   20  C14 UNL     1      26.767   3.576  49.716  1.00  0.00     0.069 A 
BRANCH  17  21
HETATM   21  O2  UNL     1      23.170   5.043  51.383  1.00  0.00    -0.353 OA
HETATM   22  C9  UNL     1      21.907   4.761  50.811  1.00  0.00     0.210 C 
ENDBRANCH  17  21
BRANCH  18  23
HETATM   23  O3  UNL     1      24.564   6.461  49.554  1.00  0.00    -0.351 OA
HETATM   24  C11 UNL     1      24.915   7.626  50.246  1.00  0.00     0.210 C 
ENDBRANCH  18  23
BRANCH  19  25
HETATM   25  O4  UNL     1      26.902   5.600  48.411  1.00  0.00    -0.353 OA
HETATM   26  C13 UNL     1      28.307   5.566  48.348  1.00  0.00     0.210 C 
ENDBRANCH  19  25
ENDBRANCH  13  15
ENDBRANCH   6  13
BRANCH  12  27
HETATM   27  O5  UNL     1      28.642  -1.816  53.010  1.00  0.00    -0.355 OA
HETATM   28  C19 UNL     1      29.474  -2.853  53.471  1.00  0.00     0.210 C 
ENDBRANCH  12  27
TORSDOF 6
ENDMDL
MODEL 4
REMARK VINA RESULT:      -6.8      1.198      2.966
REMARK  6 active torsions:
REMARK  status: ('A' for Active; 'I' for Inactive)
REMARK    1  A    between atoms: C5_6  and  N1_7 
REMARK    2  A    between atoms: N1_7  and  C6_8 
REMARK    3  A    between atoms: C8_10  and  O2_11 
REMARK    4  A    between atoms: C10_13  and  O3_14 
REMARK    5  A    between atoms: C12_16  and  O4_17 
REMARK    6  A    between atoms: C18_25  and  O5_26 
ROOT
HETATM    1  C1  UNL     1      22.348   4.762  48.246  1.00  0.00     0.000 C 
HETATM    2  O1  UNL     1      22.849   5.132  49.531  1.00  0.00     0.000 OA
HETATM    3  C2  UNL     1      24.110   5.763  49.640  1.00  0.00     0.002 A 
HETATM    4  C3  UNL     1      23.000   6.142  50.308  1.00  0.00     0.057 A 
HETATM    5  C4  UNL     1      23.329   5.635  51.586  1.00  0.00     0.015 C 
HETATM    6  C5  UNL     1      24.221   4.614  51.310  1.00  0.00     0.137 C 
HETATM    7  N2  UNL     1      25.023   4.079  50.358  1.00  0.00    -0.224 NA
HETATM    8  C15 UNL     1      25.196   3.341  49.408  1.00  0.00     0.234 C 
HETATM    9  N3  UNL     1      26.585   3.457  49.001  1.00  0.00    -0.254 NA
HETATM   10  C16 UNL     1      27.142   4.624  49.062  1.00  0.00     0.120 C 
HETATM   11  C17 UNL     1      26.562   5.858  49.471  1.00  0.00     0.056 C 
HETATM   12  C18 UNL     1      25.400   6.377  49.733  1.00  0.00     0.077 C 
ENDROOT
BRANCH   6  13
HETATM   13  N1  UNL     1      24.478   3.737  52.353  1.00  0.00    -0.340 N 
HETATM   14  H4  UNL     1      24.615   4.325  53.200  1.00  0.00     0.167 HD
BRANCH  13  15
HETATM   15  C6  UNL     1      24.657   2.457  52.915  1.00  0.00     0.039 A 
HETATM   16  C7  UNL     1      25.851   2.331  53.636  1.00  0.00     0.069 A 
HETATM   17  C8  UNL     1      26.136   1.126  54.258  1.00  0.00     0.106 A 
HETATM   18  C10 UNL     1      25.190   0.134  54.106  1.00  0.00     0.135 A 
HETATM   19  C12 UNL     1      24.016   0.240  53.401  1.00  0.00     0.106 A 
HETATM   20  C14 UNL     1      23.732   1.444  52.780  1.00  0.00     0.069 A 
BRANCH  17  21
HETATM   21  O2  UNL     1      27.293   0.904  54.992  1.00  0.00    -0.353 OA
HETATM   22  C9  UNL     1      28.550   0.700  54.373  1.00  0.00     0.210 C 
ENDBRANCH  17  21
BRANCH  18  23
HETATM   23  O3  UNL     1      25.476  -1.077  54.731  1.00  0.00    -0.351 OA
HETATM   24  C11 UNL     1      24.980  -1.363  56.009  1.00  0.00     0.210 C 
ENDBRANCH  18  23
BRANCH  19  25
HETATM   25  O4  UNL     1      23.139  -0.831  53.318  1.00  0.00    -0.353 OA
HETATM   26  C13 UNL     1      21.921  -0.770  54.018  1.00  0.00     0.210 C 
ENDBRANCH  19  25
ENDBRANCH  13  15
ENDBRANCH   6  13
BRANCH  12  27
HETATM   27  O5  UNL     1      24.931   7.585  50.157  1.00  0.00    -0.355 OA
HETATM   28  C19 UNL     1      25.538   8.833  49.922  1.00  0.00     0.210 C 
ENDBRANCH  12  27
TORSDOF 6
ENDMDL
MODEL 5
REMARK VINA RESULT:      -6.8      1.188      3.785
REMARK  6 active torsions:
REMARK  status: ('A' for Active; 'I' for Inactive)
REMARK    1  A    between atoms: C5_6  and  N1_7 
REMARK    2  A    between atoms: N1_7  and  C6_8 
REMARK    3  A    between atoms: C8_10  and  O2_11 
REMARK    4  A    between atoms: C10_13  and  O3_14 
REMARK    5  A    between atoms: C12_16  and  O4_17 
REMARK    6  A    between atoms: C18_25  and  O5_26 
ROOT
HETATM    1  C1  UNL     1      22.464   3.834  48.086  1.00  0.00     0.000 C 
HETATM    2  O1  UNL     1      22.754   4.331  49.393  1.00  0.00     0.000 OA
HETATM    3  C2  UNL     1      23.664   5.401  49.554  1.00  0.00     0.002 A 
HETATM    4  C3  UNL     1      22.480   5.296  50.193  1.00  0.00     0.057 A 
HETATM    5  C4  UNL     1      22.953   4.919  51.471  1.00  0.00     0.015 C 
HETATM    6  C5  UNL     1      24.180   4.337  51.204  1.00  0.00     0.137 C 
HETATM    7  N2  UNL     1      25.147   4.186  50.268  1.00  0.00    -0.224 NA
HETATM    8  C15 UNL     1      25.616   3.605  49.310  1.00  0.00     0.234 C 
HETATM    9  N3  UNL     1      26.858   4.266  48.950  1.00  0.00    -0.254 NA
HETATM   10  C16 UNL     1      26.912   5.555  49.050  1.00  0.00     0.120 C 
HETATM   11  C17 UNL     1      25.886   6.451  49.464  1.00  0.00     0.056 C 
HETATM   12  C18 UNL     1      24.609   6.468  49.699  1.00  0.00     0.077 C 
ENDROOT
BRANCH   6  13
HETATM   13  N1  UNL     1      24.737   3.600  52.238  1.00  0.00    -0.340 N 
HETATM   14  H4  UNL     1      25.254   4.277  52.833  1.00  0.00     0.167 HD
BRANCH  13  15
HETATM   15  C6  UNL     1      24.993   2.409  52.948  1.00  0.00     0.039 A 
HETATM   16  C7  UNL     1      23.979   1.453  52.807  1.00  0.00     0.069 A 
HETATM   17  C8  UNL     1      24.121   0.227  53.438  1.00  0.00     0.106 A 
HETATM   18  C10 UNL     1      25.279   0.058  54.167  1.00  0.00     0.135 A 
HETATM   19  C12 UNL     1      26.280   0.985  54.317  1.00  0.00     0.106 A 
HETATM   20  C14 UNL     1      26.139   2.209  53.686  1.00  0.00     0.069 A 
BRANCH  17  21
HETATM   21  O2  UNL     1      23.170  -0.782  53.360  1.00  0.00    -0.353 OA
HETATM   22  C9  UNL     1      21.912  -0.683  54.002  1.00  0.00     0.210 C 
ENDBRANCH  17  21
BRANCH  18  23
HETATM   23  O3  UNL     1      25.422  -1.174  54.802  1.00  0.00    -0.351 OA
HETATM   24  C11 UNL     1      24.915  -1.383  56.090  1.00  0.00     0.210 C 
ENDBRANCH  18  23
BRANCH  19  25
HETATM   25  O4  UNL     1      27.404   0.700  55.079  1.00  0.00    -0.353 OA
HETATM   26  C13 UNL     1      28.677   0.867  54.504  1.00  0.00     0.210 C 
ENDBRANCH  19  25
ENDBRANCH  13  15
ENDBRANCH   6  13
BRANCH  12  27
HETATM   27  O5  UNL     1      23.695   7.383  50.132  1.00  0.00    -0.355 OA
HETATM   28  C19 UNL     1      23.351   8.578  49.471  1.00  0.00     0.210 C 
ENDBRANCH  12  27
TORSDOF 6
ENDMDL
MODEL 6
REMARK VINA RESULT:      -6.8      2.173      7.349
REMARK  6 active torsions:
REMARK  status: ('A' for Active; 'I' for Inactive)
REMARK    1  A    between atoms: C5_6  and  N1_7 
REMARK    2  A    between atoms: N1_7  and  C6_8 
REMARK    3  A    between atoms: C8_10  and  O2_11 
REMARK    4  A    between atoms: C10_13  and  O3_14 
REMARK    5  A    between atoms: C12_16  and  O4_17 
REMARK    6  A    between atoms: C18_25  and  O5_26 
ROOT
HETATM    1  C1  UNL     1      25.335  -0.370  55.374  1.00  0.00     0.000 C 
HETATM    2  O1  UNL     1      25.761  -0.430  54.012  1.00  0.00     0.000 OA
HETATM    3  C2  UNL     1      27.142  -0.467  53.707  1.00  0.00     0.002 A 
HETATM    4  C3  UNL     1      26.204  -1.243  53.124  1.00  0.00     0.057 A 
HETATM    5  C4  UNL     1      26.115  -0.581  51.878  1.00  0.00     0.015 C 
HETATM    6  C5  UNL     1      26.540   0.705  52.163  1.00  0.00     0.137 C 
HETATM    7  N2  UNL     1      27.174   1.479  53.076  1.00  0.00    -0.224 NA
HETATM    8  C15 UNL     1      27.160   2.172  54.074  1.00  0.00     0.234 C 
HETATM    9  N3  UNL     1      28.516   2.630  54.319  1.00  0.00    -0.254 NA
HETATM   10  C16 UNL     1      29.488   1.809  54.079  1.00  0.00     0.120 C 
HETATM   11  C17 UNL     1      29.414   0.467  53.608  1.00  0.00     0.056 C 
HETATM   12  C18 UNL     1      28.544  -0.478  53.417  1.00  0.00     0.077 C 
ENDROOT
BRANCH   6  13
HETATM   13  N1  UNL     1      26.267   1.660  51.195  1.00  0.00    -0.340 N 
HETATM   14  H4  UNL     1      26.601   1.264  50.294  1.00  0.00     0.167 HD
BRANCH  13  15
HETATM   15  C6  UNL     1      25.772   2.901  50.746  1.00  0.00     0.039 A 
HETATM   16  C7  UNL     1      26.649   3.565  49.879  1.00  0.00     0.069 A 
HETATM   17  C8  UNL     1      26.270   4.787  49.347  1.00  0.00     0.106 A 
HETATM   18  C10 UNL     1      25.030   5.250  49.732  1.00  0.00     0.135 A 
HETATM   19  C12 UNL     1      24.159   4.613  50.582  1.00  0.00     0.106 A 
HETATM   20  C14 UNL     1      24.538   3.391  51.112  1.00  0.00     0.069 A 
BRANCH  17  21
HETATM   21  O2  UNL     1      27.071   5.522  48.483  1.00  0.00    -0.353 OA
HETATM   22  C9  UNL     1      28.462   5.285  48.361  1.00  0.00     0.210 C 
ENDBRANCH  17  21
BRANCH  18  23
HETATM   23  O3  UNL     1      24.648   6.479  49.198  1.00  0.00    -0.351 OA
HETATM   24  C11 UNL     1      23.899   6.550  48.018  1.00  0.00     0.210 C 
ENDBRANCH  18  23
BRANCH  19  25
HETATM   25  O4  UNL     1      22.933   5.179  50.897  1.00  0.00    -0.353 OA
HETATM   26  C13 UNL     1      21.760   4.584  50.399  1.00  0.00     0.210 C 
ENDBRANCH  19  25
ENDBRANCH  13  15
ENDBRANCH   6  13
BRANCH  12  27
HETATM   27  O5  UNL     1      28.557  -1.748  52.921  1.00  0.00    -0.355 OA
HETATM   28  C19 UNL     1      29.417  -2.783  53.334  1.00  0.00     0.210 C 
ENDBRANCH  12  27
TORSDOF 6
ENDMDL
MODEL 7
REMARK VINA RESULT:      -6.4      1.803      3.045
REMARK  6 active torsions:
REMARK  status: ('A' for Active; 'I' for Inactive)
REMARK    1  A    between atoms: C5_6  and  N1_7 
REMARK    2  A    between atoms: N1_7  and  C6_8 
REMARK    3  A    between atoms: C8_10  and  O2_11 
REMARK    4  A    between atoms: C10_13  and  O3_14 
REMARK    5  A    between atoms: C12_16  and  O4_17 
REMARK    6  A    between atoms: C18_25  and  O5_26 
ROOT
HETATM    1  C1  UNL     1      22.410   4.661  47.457  1.00  0.00     0.000 C 
HETATM    2  O1  UNL     1      22.131   4.678  48.857  1.00  0.00     0.000 OA
HETATM    3  C2  UNL     1      22.329   5.864  49.601  1.00  0.00     0.002 A 
HETATM    4  C3  UNL     1      21.252   5.059  49.711  1.00  0.00     0.057 A 
HETATM    5  C4  UNL     1      21.570   4.434  50.938  1.00  0.00     0.015 C 
HETATM    6  C5  UNL     1      22.948   4.539  51.009  1.00  0.00     0.137 C 
HETATM    7  N2  UNL     1      24.032   5.163  50.490  1.00  0.00    -0.224 NA
HETATM    8  C15 UNL     1      24.918   5.240  49.661  1.00  0.00     0.234 C 
HETATM    9  N3  UNL     1      25.707   6.421  49.959  1.00  0.00    -0.254 NA
HETATM   10  C16 UNL     1      25.089   7.475  50.386  1.00  0.00     0.120 C 
HETATM   11  C17 UNL     1      23.692   7.652  50.599  1.00  0.00     0.056 C 
HETATM   12  C18 UNL     1      22.560   7.068  50.342  1.00  0.00     0.077 C 
ENDROOT
BRANCH   6  13
HETATM   13  N1  UNL     1      23.567   3.743  51.960  1.00  0.00    -0.340 N 
HETATM   14  H4  UNL     1      23.489   4.253  52.862  1.00  0.00     0.167 HD
BRANCH  13  15
HETATM   15  C6  UNL     1      24.259   2.593  52.391  1.00  0.00     0.039 A 
HETATM   16  C7  UNL     1      25.650   2.709  52.276  1.00  0.00     0.069 A 
HETATM   17  C8  UNL     1      26.448   1.653  52.688  1.00  0.00     0.106 A 
HETATM   18  C10 UNL     1      25.779   0.556  53.187  1.00  0.00     0.135 A 
HETATM   19  C12 UNL     1      24.417   0.426  53.305  1.00  0.00     0.106 A 
HETATM   20  C14 UNL     1      23.621   1.480  52.894  1.00  0.00     0.069 A 
BRANCH  17  21
HETATM   21  O2  UNL     1      27.834   1.673  52.610  1.00  0.00    -0.353 OA
HETATM   22  C9  UNL     1      28.631   2.358  53.558  1.00  0.00     0.210 C 
ENDBRANCH  17  21
BRANCH  18  23
HETATM   23  O3  UNL     1      26.580  -0.506  53.602  1.00  0.00    -0.351 OA
HETATM   24  C11 UNL     1      26.961  -1.513  52.707  1.00  0.00     0.210 C 
ENDBRANCH  18  23
BRANCH  19  25
HETATM   25  O4  UNL     1      23.857  -0.732  53.826  1.00  0.00    -0.353 OA
HETATM   26  C13 UNL     1      22.504  -1.010  53.565  1.00  0.00     0.210 C 
ENDBRANCH  19  25
ENDBRANCH  13  15
ENDBRANCH   6  13
BRANCH  12  27
HETATM   27  O5  UNL     1      21.245   7.298  50.616  1.00  0.00    -0.355 OA
HETATM   28  C19 UNL     1      20.476   8.370  50.124  1.00  0.00     0.210 C 
ENDBRANCH  12  27
TORSDOF 6
ENDMDL
MODEL 8
REMARK VINA RESULT:      -6.3      1.701      2.495
REMARK  6 active torsions:
REMARK  status: ('A' for Active; 'I' for Inactive)
REMARK    1  A    between atoms: C5_6  and  N1_7 
REMARK    2  A    between atoms: N1_7  and  C6_8 
REMARK    3  A    between atoms: C8_10  and  O2_11 
REMARK    4  A    between atoms: C10_13  and  O3_14 
REMARK    5  A    between atoms: C12_16  and  O4_17 
REMARK    6  A    between atoms: C18_25  and  O5_26 
ROOT
HETATM    1  C1  UNL     1      20.939   7.864  50.427  1.00  0.00     0.000 C 
HETATM    2  O1  UNL     1      22.142   7.179  50.777  1.00  0.00     0.000 OA
HETATM    3  C2  UNL     1      22.879   6.495  49.782  1.00  0.00     0.002 A 
HETATM    4  C3  UNL     1      23.420   7.287  50.732  1.00  0.00     0.057 A 
HETATM    5  C4  UNL     1      23.950   6.285  51.578  1.00  0.00     0.015 C 
HETATM    6  C5  UNL     1      23.165   5.179  51.302  1.00  0.00     0.137 C 
HETATM    7  N2  UNL     1      22.271   4.653  50.431  1.00  0.00    -0.224 NA
HETATM    8  C15 UNL     1      21.130   4.503  50.040  1.00  0.00     0.234 C 
HETATM    9  N3  UNL     1      21.169   3.652  48.864  1.00  0.00    -0.254 NA
HETATM   10  C16 UNL     1      22.152   3.803  48.036  1.00  0.00     0.120 C 
HETATM   11  C17 UNL     1      23.232   4.729  48.108  1.00  0.00     0.056 C 
HETATM   12  C18 UNL     1      23.598   5.787  48.766  1.00  0.00     0.077 C 
ENDROOT
BRANCH   6  13
HETATM   13  N1  UNL     1      23.257   4.132  52.206  1.00  0.00    -0.340 N 
HETATM   14  H4  UNL     1      22.682   4.406  53.027  1.00  0.00     0.167 HD
BRANCH  13  15
HETATM   15  C6  UNL     1      23.707   2.868  52.635  1.00  0.00     0.039 A 
HETATM   16  C7  UNL     1      24.977   2.904  53.224  1.00  0.00     0.069 A 
HETATM   17  C8  UNL     1      25.526   1.728  53.710  1.00  0.00     0.106 A 
HETATM   18  C10 UNL     1      24.748   0.598  53.564  1.00  0.00     0.135 A 
HETATM   19  C12 UNL     1      23.503   0.545  52.988  1.00  0.00     0.106 A 
HETATM   20  C14 UNL     1      22.955   1.720  52.504  1.00  0.00     0.069 A 
BRANCH  17  21
HETATM   21  O2  UNL     1      26.778   1.662  54.306  1.00  0.00    -0.353 OA
HETATM   22  C9  UNL     1      27.975   1.791  53.561  1.00  0.00     0.210 C 
ENDBRANCH  17  21
BRANCH  18  23
HETATM   23  O3  UNL     1      25.299  -0.584  54.052  1.00  0.00    -0.351 OA
HETATM   24  C11 UNL     1      24.999  -1.040  55.341  1.00  0.00     0.210 C 
ENDBRANCH  18  23
BRANCH  19  25
HETATM   25  O4  UNL     1      22.814  -0.655  52.898  1.00  0.00    -0.353 OA
HETATM   26  C13 UNL     1      21.528  -0.746  53.461  1.00  0.00     0.210 C 
ENDBRANCH  19  25
ENDBRANCH  13  15
ENDBRANCH   6  13
BRANCH  12  27
HETATM   27  O5  UNL     1      24.687   6.608  48.791  1.00  0.00    -0.355 OA
HETATM   28  C19 UNL     1      26.008   6.231  48.486  1.00  0.00     0.210 C 
ENDBRANCH  12  27
TORSDOF 6
ENDMDL
MODEL 9
REMARK VINA RESULT:      -6.3      2.649      4.496
REMARK  6 active torsions:
REMARK  status: ('A' for Active; 'I' for Inactive)
REMARK    1  A    between atoms: C5_6  and  N1_7 
REMARK    2  A    between atoms: N1_7  and  C6_8 
REMARK    3  A    between atoms: C8_10  and  O2_11 
REMARK    4  A    between atoms: C10_13  and  O3_14 
REMARK    5  A    between atoms: C12_16  and  O4_17 
REMARK    6  A    between atoms: C18_25  and  O5_26 
ROOT
HETATM    1  C1  UNL     1      18.041   1.587  50.202  1.00  0.00     0.000 C 
HETATM    2  O1  UNL     1      19.077   2.260  50.919  1.00  0.00     0.000 OA
HETATM    3  C2  UNL     1      19.920   3.174  50.246  1.00  0.00     0.002 A 
HETATM    4  C3  UNL     1      19.368   3.387  51.459  1.00  0.00     0.057 A 
HETATM    5  C4  UNL     1      20.514   3.177  52.262  1.00  0.00     0.015 C 
HETATM    6  C5  UNL     1      21.312   2.360  51.480  1.00  0.00     0.137 C 
HETATM    7  N2  UNL     1      21.505   1.881  50.228  1.00  0.00    -0.224 NA
HETATM    8  C15 UNL     1      21.281   1.064  49.356  1.00  0.00     0.234 C 
HETATM    9  N3  UNL     1      22.060   1.432  48.188  1.00  0.00    -0.254 NA
HETATM   10  C16 UNL     1      22.192   2.691  47.916  1.00  0.00     0.120 C 
HETATM   11  C17 UNL     1      21.650   3.806  48.616  1.00  0.00     0.056 C 
HETATM   12  C18 UNL     1      20.780   4.077  49.542  1.00  0.00     0.077 C 
ENDROOT
BRANCH   6  13
HETATM   13  N1  UNL     1      22.367   1.741  52.133  1.00  0.00    -0.340 N 
HETATM   14  H4  UNL     1      21.947   1.202  52.917  1.00  0.00     0.167 HD
BRANCH  13  15
HETATM   15  C6  UNL     1      23.727   1.429  52.325  1.00  0.00     0.039 A 
HETATM   16  C7  UNL     1      24.590   2.228  51.564  1.00  0.00     0.069 A 
HETATM   17  C8  UNL     1      25.958   2.036  51.678  1.00  0.00     0.106 A 
HETATM   18  C10 UNL     1      26.354   1.048  52.556  1.00  0.00     0.135 A 
HETATM   19  C12 UNL     1      25.522   0.256  53.307  1.00  0.00     0.106 A 
HETATM   20  C14 UNL     1      24.156   0.448  53.193  1.00  0.00     0.069 A 
BRANCH  17  21
HETATM   21  O2  UNL     1      26.892   2.775  50.964  1.00  0.00    -0.353 OA
HETATM   22  C9  UNL     1      26.576   3.398  49.732  1.00  0.00     0.210 C 
ENDBRANCH  17  21
BRANCH  18  23
HETATM   23  O3  UNL     1      27.729   0.855  52.671  1.00  0.00    -0.351 OA
HETATM   24  C11 UNL     1      28.480   1.567  53.614  1.00  0.00     0.210 C 
ENDBRANCH  18  23
BRANCH  19  25
HETATM   25  O4  UNL     1      26.039  -0.709  54.159  1.00  0.00    -0.353 OA
HETATM   26  C13 UNL     1      25.519  -0.816  55.462  1.00  0.00     0.210 C 
ENDBRANCH  19  25
ENDBRANCH  13  15
ENDBRANCH   6  13
BRANCH  12  27
HETATM   27  O5  UNL     1      20.339   5.195  50.186  1.00  0.00    -0.355 OA
HETATM   28  C19 UNL     1      19.945   6.398  49.569  1.00  0.00     0.210 C 
ENDBRANCH  12  27
TORSDOF 6
ENDMDL
