MODEL 1
REMARK VINA RESULT:      -9.5      0.000      0.000
REMARK  3 active torsions:
REMARK  status: ('A' for Active; 'I' for Inactive)
REMARK    1  A    between atoms: C2_2  and  C3_3 
REMARK    2  A    between atoms: C5_6  and  C6_7 
REMARK    3  A    between atoms: N2_20  and  C16_21 
ROOT
HETATM    1  C6  UNL     1      24.520   0.347  53.387  1.00  0.00     0.057 A 
HETATM    2  C7  UNL     1      23.082   0.123  53.495  1.00  0.00     0.037 A 
HETATM    3  C8  UNL     1      22.595  -0.780  54.449  1.00  0.00    -0.002 A 
HETATM    4  C9  UNL     1      21.290  -1.088  54.663  1.00  0.00     0.017 A 
HETATM    5  C10 UNL     1      20.322  -0.477  53.893  1.00  0.00     0.040 A 
HETATM    6  C11 UNL     1      20.709   0.419  52.938  1.00  0.00     0.103 A 
HETATM    7  C12 UNL     1      22.038   0.680  52.779  1.00  0.00     0.115 A 
HETATM    8  O1  UNL     1      22.410   1.580  51.819  1.00  0.00    -0.345 OA
HETATM    9  C13 UNL     1      21.509   2.472  51.187  1.00  0.00     0.202 C 
HETATM   10  C14 UNL     1      20.098   2.366  51.653  1.00  0.00     0.202 C 
HETATM   11  O2  UNL     1      19.792   1.055  52.146  1.00  0.00    -0.346 OA
HETATM   12  C15 UNL     1      23.511  -1.488  55.321  1.00  0.00     0.151 A 
HETATM   13  N1  UNL     1      24.787  -1.321  55.261  1.00  0.00    -0.179 NA
HETATM   14  N2  UNL     1      25.335  -0.416  54.312  1.00  0.00    -0.237 N 
ENDROOT
BRANCH   1  15
HETATM   15  C5  UNL     1      24.672   1.196  52.438  1.00  0.00     0.127 C 
HETATM   16  C4  UNL     1      25.612   2.023  51.734  1.00  0.00     0.035 A 
HETATM   17  C3  UNL     1      25.192   2.790  50.709  1.00  0.00     0.089 A 
HETATM   18 CL1  UNL     1      27.091   2.802  51.243  1.00  0.00    -0.209 Cl
BRANCH  17  19
HETATM   19  C2  UNL     1      26.237   3.575  50.086  1.00  0.00     0.028 C 
HETATM   20  C1  UNL     1      25.959   4.637  49.315  1.00  0.00    -0.011 C 
ENDBRANCH  17  19
ENDBRANCH   1  15
BRANCH  14  21
HETATM   21  C16 UNL     1      26.727  -0.193  54.188  1.00  0.00     0.058 A 
HETATM   22  C17 UNL     1      27.268  -1.211  53.387  1.00  0.00     0.031 A 
HETATM   23  C18 UNL     1      28.640  -1.260  53.107  1.00  0.00     0.002 A 
HETATM   24  C19 UNL     1      29.500  -0.306  53.611  1.00  0.00     0.000 A 
HETATM   25  C20 UNL     1      28.941   0.682  54.395  1.00  0.00     0.002 A 
HETATM   26  C21 UNL     1      27.596   0.754  54.688  1.00  0.00     0.031 A 
ENDBRANCH  14  21
TORSDOF 3
ENDMDL
MODEL 2
REMARK VINA RESULT:      -8.8      2.316      5.033
REMARK  3 active torsions:
REMARK  status: ('A' for Active; 'I' for Inactive)
REMARK    1  A    between atoms: C2_2  and  C3_3 
REMARK    2  A    between atoms: C5_6  and  C6_7 
REMARK    3  A    between atoms: N2_20  and  C16_21 
ROOT
HETATM    1  C6  UNL     1      24.844   2.142  51.387  1.00  0.00     0.057 A 
HETATM    2  C7  UNL     1      24.137   3.103  50.546  1.00  0.00     0.037 A 
HETATM    3  C8  UNL     1      24.872   3.991  49.748  1.00  0.00    -0.002 A 
HETATM    4  C9  UNL     1      24.354   4.934  48.920  1.00  0.00     0.017 A 
HETATM    5  C10 UNL     1      22.984   5.063  48.825  1.00  0.00     0.040 A 
HETATM    6  C11 UNL     1      22.191   4.237  49.569  1.00  0.00     0.103 A 
HETATM    7  C12 UNL     1      22.781   3.312  50.380  1.00  0.00     0.115 A 
HETATM    8  O1  UNL     1      21.974   2.492  51.118  1.00  0.00    -0.345 OA
HETATM    9  C13 UNL     1      20.585   2.335  50.882  1.00  0.00     0.202 C 
HETATM   10  C14 UNL     1      20.053   3.137  49.746  1.00  0.00     0.202 C 
HETATM   11  O2  UNL     1      20.826   4.322  49.514  1.00  0.00    -0.346 OA
HETATM   12  C15 UNL     1      26.321   3.955  49.758  1.00  0.00     0.151 A 
HETATM   13  N1  UNL     1      26.984   3.124  50.484  1.00  0.00    -0.179 NA
HETATM   14  N2  UNL     1      26.291   2.201  51.312  1.00  0.00    -0.237 N 
ENDROOT
BRANCH   1  15
HETATM   15  C5  UNL     1      23.934   1.484  52.006  1.00  0.00     0.127 C 
HETATM   16  C4  UNL     1      23.672   0.491  53.012  1.00  0.00     0.035 A 
HETATM   17  C3  UNL     1      22.402   0.145  53.295  1.00  0.00     0.089 A 
HETATM   18 CL1  UNL     1      23.901  -0.707  54.256  1.00  0.00    -0.209 Cl
BRANCH  17  19
HETATM   19  C2  UNL     1      22.277  -0.865  54.326  1.00  0.00     0.028 C 
HETATM   20  C1  UNL     1      21.154  -1.583  54.479  1.00  0.00    -0.011 C 
ENDBRANCH  17  19
ENDBRANCH   1  15
BRANCH  14  21
HETATM   21  C16 UNL     1      26.959   1.268  52.141  1.00  0.00     0.058 A 
HETATM   22  C17 UNL     1      27.761   1.977  53.047  1.00  0.00     0.031 A 
HETATM   23  C18 UNL     1      28.560   1.308  53.983  1.00  0.00     0.002 A 
HETATM   24  C19 UNL     1      28.580  -0.070  54.042  1.00  0.00     0.000 A 
HETATM   25  C20 UNL     1      27.782  -0.740  53.139  1.00  0.00     0.002 A 
HETATM   26  C21 UNL     1      26.987  -0.109  52.206  1.00  0.00     0.031 A 
ENDBRANCH  14  21
TORSDOF 3
ENDMDL
MODEL 3
REMARK VINA RESULT:      -8.8      2.424      5.755
REMARK  3 active torsions:
REMARK  status: ('A' for Active; 'I' for Inactive)
REMARK    1  A    between atoms: C2_2  and  C3_3 
REMARK    2  A    between atoms: C5_6  and  C6_7 
REMARK    3  A    between atoms: N2_20  and  C16_21 
ROOT
HETATM    1  C6  UNL     1      23.912   1.360  51.782  1.00  0.00     0.057 A 
HETATM    2  C7  UNL     1      24.581   0.760  52.932  1.00  0.00     0.037 A 
HETATM    3  C8  UNL     1      23.900  -0.192  53.704  1.00  0.00    -0.002 A 
HETATM    4  C9  UNL     1      24.392  -0.831  54.796  1.00  0.00     0.017 A 
HETATM    5  C10 UNL     1      25.675  -0.548  55.218  1.00  0.00     0.040 A 
HETATM    6  C11 UNL     1      26.410   0.368  54.522  1.00  0.00     0.103 A 
HETATM    7  C12 UNL     1      25.851   0.972  53.434  1.00  0.00     0.115 A 
HETATM    8  O1  UNL     1      26.599   1.887  52.747  1.00  0.00    -0.345 OA
HETATM    9  C13 UNL     1      28.000   2.034  52.905  1.00  0.00     0.202 C 
HETATM   10  C14 UNL     1      28.617   1.100  53.886  1.00  0.00     0.202 C 
HETATM   11  O2  UNL     1      27.687   0.687  54.896  1.00  0.00    -0.346 OA
HETATM   12  C15 UNL     1      22.545  -0.576  53.364  1.00  0.00     0.151 A 
HETATM   13  N1  UNL     1      21.918  -0.073  52.358  1.00  0.00    -0.179 NA
HETATM   14  N2  UNL     1      22.560   0.896  51.541  1.00  0.00    -0.237 N 
ENDROOT
BRANCH   1  15
HETATM   15  C5  UNL     1      24.753   2.190  51.283  1.00  0.00     0.127 C 
HETATM   16  C4  UNL     1      24.941   3.255  50.335  1.00  0.00     0.035 A 
HETATM   17  C3  UNL     1      26.150   3.836  50.214  1.00  0.00     0.089 A 
HETATM   18 CL1  UNL     1      24.641   4.440  49.095  1.00  0.00    -0.209 Cl
BRANCH  17  19
HETATM   19  C2  UNL     1      26.204   4.892  49.225  1.00  0.00     0.028 C 
HETATM   20  C1  UNL     1      27.355   5.248  48.634  1.00  0.00    -0.011 C 
ENDBRANCH  17  19
ENDBRANCH   1  15
BRANCH  14  21
HETATM   21  C16 UNL     1      21.925   1.495  50.427  1.00  0.00     0.058 A 
HETATM   22  C17 UNL     1      21.225   2.626  50.872  1.00  0.00     0.031 A 
HETATM   23  C18 UNL     1      20.478   3.412  49.985  1.00  0.00     0.002 A 
HETATM   24  C19 UNL     1      20.410   3.096  48.644  1.00  0.00     0.000 A 
HETATM   25  C20 UNL     1      21.108   1.978  48.234  1.00  0.00     0.002 A 
HETATM   26  C21 UNL     1      21.849   1.186  49.084  1.00  0.00     0.031 A 
ENDBRANCH  14  21
TORSDOF 3
ENDMDL
MODEL 4
REMARK VINA RESULT:      -8.4      2.939      6.507
REMARK  3 active torsions:
REMARK  status: ('A' for Active; 'I' for Inactive)
REMARK    1  A    between atoms: C2_2  and  C3_3 
REMARK    2  A    between atoms: C5_6  and  C6_7 
REMARK    3  A    between atoms: N2_20  and  C16_21 
ROOT
HETATM    1  C6  UNL     1      23.905   1.642  51.470  1.00  0.00     0.057 A 
HETATM    2  C7  UNL     1      24.805   1.019  52.435  1.00  0.00     0.037 A 
HETATM    3  C8  UNL     1      26.164   1.364  52.432  1.00  0.00    -0.002 A 
HETATM    4  C9  UNL     1      27.114   0.868  53.266  1.00  0.00     0.017 A 
HETATM    5  C10 UNL     1      26.751  -0.062  54.218  1.00  0.00     0.040 A 
HETATM    6  C11 UNL     1      25.446  -0.455  54.291  1.00  0.00     0.103 A 
HETATM    7  C12 UNL     1      24.545   0.085  53.421  1.00  0.00     0.115 A 
HETATM    8  O1  UNL     1      23.241  -0.318  53.506  1.00  0.00    -0.345 OA
HETATM    9  C13 UNL     1      22.708  -1.026  54.613  1.00  0.00     0.202 C 
HETATM   10  C14 UNL     1      23.685  -1.301  55.703  1.00  0.00     0.202 C 
HETATM   11  O2  UNL     1      25.030  -1.374  55.216  1.00  0.00    -0.346 OA
HETATM   12  C15 UNL     1      26.670   2.331  51.479  1.00  0.00     0.151 A 
HETATM   13  N1  UNL     1      25.913   2.905  50.611  1.00  0.00    -0.179 NA
HETATM   14  N2  UNL     1      24.527   2.594  50.570  1.00  0.00    -0.237 N 
ENDROOT
BRANCH   1  15
HETATM   15  C5  UNL     1      22.749   1.134  51.692  1.00  0.00     0.127 C 
HETATM   16  C4  UNL     1      21.404   1.000  51.201  1.00  0.00     0.035 A 
HETATM   17  C3  UNL     1      20.507   0.276  51.899  1.00  0.00     0.089 A 
HETATM   18 CL1  UNL     1      19.980   1.151  50.210  1.00  0.00    -0.209 Cl
BRANCH  17  19
HETATM   19  C2  UNL     1      19.192   0.222  51.296  1.00  0.00     0.028 C 
HETATM   20  C1  UNL     1      18.173  -0.426  51.883  1.00  0.00    -0.011 C 
ENDBRANCH  17  19
ENDBRANCH   1  15
BRANCH  14  21
HETATM   21  C16 UNL     1      23.641   3.182  49.636  1.00  0.00     0.058 A 
HETATM   22  C17 UNL     1      23.305   4.465  50.092  1.00  0.00     0.031 A 
HETATM   23  C18 UNL     1      22.420   5.280  49.375  1.00  0.00     0.002 A 
HETATM   24  C19 UNL     1      21.852   4.844  48.196  1.00  0.00     0.000 A 
HETATM   25  C20 UNL     1      22.200   3.578  47.772  1.00  0.00     0.002 A 
HETATM   26  C21 UNL     1      23.066   2.754  48.457  1.00  0.00     0.031 A 
ENDBRANCH  14  21
TORSDOF 3
ENDMDL
MODEL 5
REMARK VINA RESULT:      -8.2      2.993      6.106
REMARK  3 active torsions:
REMARK  status: ('A' for Active; 'I' for Inactive)
REMARK    1  A    between atoms: C2_2  and  C3_3 
REMARK    2  A    between atoms: C5_6  and  C6_7 
REMARK    3  A    between atoms: N2_20  and  C16_21 
ROOT
HETATM    1  C6  UNL     1      22.997   2.945  51.353  1.00  0.00     0.057 A 
HETATM    2  C7  UNL     1      23.227   1.767  52.183  1.00  0.00     0.037 A 
HETATM    3  C8  UNL     1      22.154   1.199  52.885  1.00  0.00    -0.002 A 
HETATM    4  C9  UNL     1      22.218   0.109  53.691  1.00  0.00     0.017 A 
HETATM    5  C10 UNL     1      23.428  -0.529  53.863  1.00  0.00     0.040 A 
HETATM    6  C11 UNL     1      24.527  -0.043  53.214  1.00  0.00     0.103 A 
HETATM    7  C12 UNL     1      24.389   1.057  52.419  1.00  0.00     0.115 A 
HETATM    8  O1  UNL     1      25.498   1.533  51.776  1.00  0.00    -0.345 OA
HETATM    9  C13 UNL     1      26.704   0.800  51.642  1.00  0.00     0.202 C 
HETATM   10  C14 UNL     1      26.679  -0.556  52.257  1.00  0.00     0.202 C 
HETATM   11  O2  UNL     1      25.753  -0.636  53.348  1.00  0.00    -0.346 OA
HETATM   12  C15 UNL     1      20.829   1.778  52.788  1.00  0.00     0.151 A 
HETATM   13  N1  UNL     1      20.582   2.816  52.068  1.00  0.00    -0.179 NA
HETATM   14  N2  UNL     1      21.631   3.432  51.334  1.00  0.00    -0.237 N 
ENDROOT
BRANCH   1  15
HETATM   15  C5  UNL     1      24.138   3.248  50.852  1.00  0.00     0.127 C 
HETATM   16  C4  UNL     1      24.849   4.161  50.000  1.00  0.00     0.035 A 
HETATM   17  C3  UNL     1      26.173   4.005  49.809  1.00  0.00     0.089 A 
HETATM   18 CL1  UNL     1      25.210   5.481  48.922  1.00  0.00    -0.209 Cl
BRANCH  17  19
HETATM   19  C2  UNL     1      26.766   4.990  48.929  1.00  0.00     0.028 C 
HETATM   20  C1  UNL     1      28.056   4.925  48.565  1.00  0.00    -0.011 C 
ENDBRANCH  17  19
ENDBRANCH   1  15
BRANCH  14  21
HETATM   21  C16 UNL     1      21.429   4.580  50.531  1.00  0.00     0.058 A 
HETATM   22  C17 UNL     1      21.660   5.717  51.319  1.00  0.00     0.031 A 
HETATM   23  C18 UNL     1      21.514   7.006  50.791  1.00  0.00     0.002 A 
HETATM   24  C19 UNL     1      21.137   7.195  49.477  1.00  0.00     0.000 A 
HETATM   25  C20 UNL     1      20.916   6.058  48.726  1.00  0.00     0.002 A 
HETATM   26  C21 UNL     1      21.052   4.779  49.219  1.00  0.00     0.031 A 
ENDBRANCH  14  21
TORSDOF 3
ENDMDL
MODEL 6
REMARK VINA RESULT:      -8.2      1.936      2.564
REMARK  3 active torsions:
REMARK  status: ('A' for Active; 'I' for Inactive)
REMARK    1  A    between atoms: C2_2  and  C3_3 
REMARK    2  A    between atoms: C5_6  and  C6_7 
REMARK    3  A    between atoms: N2_20  and  C16_21 
ROOT
HETATM    1  C6  UNL     1      22.684   0.530  52.368  1.00  0.00     0.057 A 
HETATM    2  C7  UNL     1      21.331   0.041  52.612  1.00  0.00     0.037 A 
HETATM    3  C8  UNL     1      21.105  -0.861  53.661  1.00  0.00    -0.002 A 
HETATM    4  C9  UNL     1      19.906  -1.399  54.005  1.00  0.00     0.017 A 
HETATM    5  C10 UNL     1      18.783  -1.051  53.283  1.00  0.00     0.040 A 
HETATM    6  C11 UNL     1      18.913  -0.175  52.244  1.00  0.00     0.103 A 
HETATM    7  C12 UNL     1      20.149   0.325  51.955  1.00  0.00     0.115 A 
HETATM    8  O1  UNL     1      20.264   1.202  50.911  1.00  0.00    -0.345 OA
HETATM    9  C13 UNL     1      19.159   1.848  50.303  1.00  0.00     0.202 C 
HETATM   10  C14 UNL     1      17.836   1.507  50.894  1.00  0.00     0.202 C 
HETATM   11  O2  UNL     1      17.834   0.205  51.495  1.00  0.00    -0.346 OA
HETATM   12  C15 UNL     1      22.204  -1.306  54.493  1.00  0.00     0.151 A 
HETATM   13  N1  UNL     1      23.413  -0.899  54.313  1.00  0.00    -0.179 NA
HETATM   14  N2  UNL     1      23.700   0.017  53.266  1.00  0.00    -0.237 N 
ENDROOT
BRANCH   1  15
HETATM   15  C5  UNL     1      22.595   1.315  51.357  1.00  0.00     0.127 C 
HETATM   16  C4  UNL     1      23.284   2.285  50.551  1.00  0.00     0.035 A 
HETATM   17  C3  UNL     1      22.656   2.847  49.500  1.00  0.00     0.089 A 
HETATM   18 CL1  UNL     1      24.514   3.353  49.934  1.00  0.00    -0.209 Cl
BRANCH  17  19
HETATM   19  C2  UNL     1      23.460   3.808  48.773  1.00  0.00     0.028 C 
HETATM   20  C1  UNL     1      22.904   4.741  47.985  1.00  0.00    -0.011 C 
ENDBRANCH  17  19
ENDBRANCH   1  15
BRANCH  14  21
HETATM   21  C16 UNL     1      25.007   0.495  53.008  1.00  0.00     0.058 A 
HETATM   22  C17 UNL     1      25.191   1.686  53.726  1.00  0.00     0.031 A 
HETATM   23  C18 UNL     1      26.394   2.400  53.647  1.00  0.00     0.002 A 
HETATM   24  C19 UNL     1      27.433   1.952  52.858  1.00  0.00     0.000 A 
HETATM   25  C20 UNL     1      27.223   0.780  52.163  1.00  0.00     0.002 A 
HETATM   26  C21 UNL     1      26.051   0.057  52.221  1.00  0.00     0.031 A 
ENDBRANCH  14  21
TORSDOF 3
ENDMDL
MODEL 7
REMARK VINA RESULT:      -8.0      3.456      6.533
REMARK  3 active torsions:
REMARK  status: ('A' for Active; 'I' for Inactive)
REMARK    1  A    between atoms: C2_2  and  C3_3 
REMARK    2  A    between atoms: C5_6  and  C6_7 
REMARK    3  A    between atoms: N2_20  and  C16_21 
ROOT
HETATM    1  C6  UNL     1      23.389   2.916  49.741  1.00  0.00     0.057 A 
HETATM    2  C7  UNL     1      23.434   2.035  50.903  1.00  0.00     0.037 A 
HETATM    3  C8  UNL     1      22.252   1.433  51.356  1.00  0.00    -0.002 A 
HETATM    4  C9  UNL     1      22.141   0.596  52.419  1.00  0.00     0.017 A 
HETATM    5  C10 UNL     1      23.271   0.281  53.146  1.00  0.00     0.040 A 
HETATM    6  C11 UNL     1      24.466   0.824  52.772  1.00  0.00     0.103 A 
HETATM    7  C12 UNL     1      24.503   1.658  51.693  1.00  0.00     0.115 A 
HETATM    8  O1  UNL     1      25.708   2.193  51.331  1.00  0.00    -0.345 OA
HETATM    9  C13 UNL     1      26.955   1.717  51.808  1.00  0.00     0.202 C 
HETATM   10  C14 UNL     1      26.863   0.565  52.746  1.00  0.00     0.202 C 
HETATM   11  O2  UNL     1      25.618   0.546  53.456  1.00  0.00    -0.346 OA
HETATM   12  C15 UNL     1      20.996   1.685  50.678  1.00  0.00     0.151 A 
HETATM   13  N1  UNL     1      20.911   2.454  49.649  1.00  0.00    -0.179 NA
HETATM   14  N2  UNL     1      22.078   3.090  49.146  1.00  0.00    -0.237 N 
ENDROOT
BRANCH   1  15
HETATM   15  C5  UNL     1      24.591   3.328  49.567  1.00  0.00     0.127 C 
HETATM   16  C4  UNL     1      25.413   4.428  49.144  1.00  0.00     0.035 A 
HETATM   17  C3  UNL     1      26.755   4.310  49.173  1.00  0.00     0.089 A 
HETATM   18 CL1  UNL     1      25.919   5.986  48.550  1.00  0.00    -0.209 Cl
BRANCH  17  19
HETATM   19  C2  UNL     1      27.465   5.489  48.721  1.00  0.00     0.028 C 
HETATM   20  C1  UNL     1      28.753   5.438  48.350  1.00  0.00    -0.011 C 
ENDBRANCH  17  19
ENDBRANCH   1  15
BRANCH  14  21
HETATM   21  C16 UNL     1      22.053   3.954  48.025  1.00  0.00     0.058 A 
HETATM   22  C17 UNL     1      21.939   3.172  46.866  1.00  0.00     0.031 A 
HETATM   23  C18 UNL     1      21.910   3.761  45.595  1.00  0.00     0.002 A 
HETATM   24  C19 UNL     1      21.993   5.130  45.447  1.00  0.00     0.000 A 
HETATM   25  C20 UNL     1      22.105   5.874  46.604  1.00  0.00     0.002 A 
HETATM   26  C21 UNL     1      22.136   5.322  47.866  1.00  0.00     0.031 A 
ENDBRANCH  14  21
TORSDOF 3
ENDMDL
MODEL 8
REMARK VINA RESULT:      -7.8      3.026      4.954
REMARK  3 active torsions:
REMARK  status: ('A' for Active; 'I' for Inactive)
REMARK    1  A    between atoms: C2_2  and  C3_3 
REMARK    2  A    between atoms: C5_6  and  C6_7 
REMARK    3  A    between atoms: N2_20  and  C16_21 
ROOT
HETATM    1  C6  UNL     1      23.746   2.693  50.445  1.00  0.00     0.057 A 
HETATM    2  C7  UNL     1      22.928   1.820  51.281  1.00  0.00     0.037 A 
HETATM    3  C8  UNL     1      23.390   1.454  52.552  1.00  0.00    -0.002 A 
HETATM    4  C9  UNL     1      22.741   0.652  53.435  1.00  0.00     0.017 A 
HETATM    5  C10 UNL     1      21.512   0.130  53.089  1.00  0.00     0.040 A 
HETATM    6  C11 UNL     1      20.986   0.437  51.868  1.00  0.00     0.103 A 
HETATM    7  C12 UNL     1      21.694   1.249  51.031  1.00  0.00     0.115 A 
HETATM    8  O1  UNL     1      21.155   1.548  49.810  1.00  0.00    -0.345 OA
HETATM    9  C13 UNL     1      19.797   1.319  49.474  1.00  0.00     0.202 C 
HETATM   10  C14 UNL     1      18.978   0.724  50.565  1.00  0.00     0.202 C 
HETATM   11  O2  UNL     1      19.771  -0.052  51.472  1.00  0.00    -0.346 OA
HETATM   12  C15 UNL     1      24.669   1.936  53.033  1.00  0.00     0.151 A 
HETATM   13  N1  UNL     1      25.422   2.709  52.330  1.00  0.00    -0.179 NA
HETATM   14  N2  UNL     1      25.003   3.112  51.034  1.00  0.00    -0.237 N 
ENDROOT
BRANCH   1  15
HETATM   15  C5  UNL     1      23.092   2.845  49.353  1.00  0.00     0.127 C 
HETATM   16  C4  UNL     1      22.785   3.746  48.276  1.00  0.00     0.035 A 
HETATM   17  C3  UNL     1      21.963   3.348  47.285  1.00  0.00     0.089 A 
HETATM   18 CL1  UNL     1      22.742   5.161  47.261  1.00  0.00    -0.209 Cl
BRANCH  17  19
HETATM   19  C2  UNL     1      21.735   4.349  46.264  1.00  0.00     0.028 C 
HETATM   20  C1  UNL     1      20.999   4.090  45.173  1.00  0.00    -0.011 C 
ENDBRANCH  17  19
ENDBRANCH   1  15
BRANCH  14  21
HETATM   21  C16 UNL     1      25.787   3.952  50.206  1.00  0.00     0.058 A 
HETATM   22  C17 UNL     1      25.273   5.255  50.285  1.00  0.00     0.031 A 
HETATM   23  C18 UNL     1      25.841   6.302  49.548  1.00  0.00     0.002 A 
HETATM   24  C19 UNL     1      26.925   6.082  48.723  1.00  0.00     0.000 A 
HETATM   25  C20 UNL     1      27.408   4.792  48.665  1.00  0.00     0.002 A 
HETATM   26  C21 UNL     1      26.869   3.742  49.377  1.00  0.00     0.031 A 
ENDBRANCH  14  21
TORSDOF 3
ENDMDL
MODEL 9
REMARK VINA RESULT:      -7.7      2.768      6.152
REMARK  3 active torsions:
REMARK  status: ('A' for Active; 'I' for Inactive)
REMARK    1  A    between atoms: C2_2  and  C3_3 
REMARK    2  A    between atoms: C5_6  and  C6_7 
REMARK    3  A    between atoms: N2_20  and  C16_21 
ROOT
HETATM    1  C6  UNL     1      23.672   2.844  51.448  1.00  0.00     0.057 A 
HETATM    2  C7  UNL     1      24.091   1.650  52.175  1.00  0.00     0.037 A 
HETATM    3  C8  UNL     1      25.446   1.292  52.188  1.00  0.00    -0.002 A 
HETATM    4  C9  UNL     1      25.979   0.214  52.818  1.00  0.00     0.017 A 
HETATM    5  C10 UNL     1      25.147  -0.631  53.522  1.00  0.00     0.040 A 
HETATM    6  C11 UNL     1      23.811  -0.356  53.563  1.00  0.00     0.103 A 
HETATM    7  C12 UNL     1      23.344   0.745  52.906  1.00  0.00     0.115 A 
HETATM    8  O1  UNL     1      22.003   1.008  52.955  1.00  0.00    -0.345 OA
HETATM    9  C13 UNL     1      21.115   0.394  53.874  1.00  0.00     0.202 C 
HETATM   10  C14 UNL     1      21.757  -0.574  54.807  1.00  0.00     0.202 C 
HETATM   11  O2  UNL     1      22.939  -1.160  54.246  1.00  0.00    -0.346 OA
HETATM   12  C15 UNL     1      26.422   2.099  51.484  1.00  0.00     0.151 A 
HETATM   13  N1  UNL     1      26.097   3.160  50.831  1.00  0.00    -0.179 NA
HETATM   14  N2  UNL     1      24.738   3.570  50.785  1.00  0.00    -0.237 N 
ENDROOT
BRANCH   1  15
HETATM   15  C5  UNL     1      22.400   2.914  51.595  1.00  0.00     0.127 C 
HETATM   16  C4  UNL     1      21.202   3.600  51.195  1.00  0.00     0.035 A 
HETATM   17  C3  UNL     1      20.014   3.223  51.707  1.00  0.00     0.089 A 
HETATM   18 CL1  UNL     1      20.111   4.712  50.416  1.00  0.00    -0.209 Cl
BRANCH  17  19
HETATM   19  C2  UNL     1      18.888   3.994  51.224  1.00  0.00     0.028 C 
HETATM   20  C1  UNL     1      17.622   3.647  51.503  1.00  0.00    -0.011 C 
ENDBRANCH  17  19
ENDBRANCH   1  15
BRANCH  14  21
HETATM   21  C16 UNL     1      24.312   4.720  50.078  1.00  0.00     0.058 A 
HETATM   22  C17 UNL     1      24.281   5.802  50.970  1.00  0.00     0.031 A 
HETATM   23  C18 UNL     1      23.873   7.075  50.551  1.00  0.00     0.002 A 
HETATM   24  C19 UNL     1      23.491   7.302  49.245  1.00  0.00     0.000 A 
HETATM   25  C20 UNL     1      23.531   6.220  48.390  1.00  0.00     0.002 A 
HETATM   26  C21 UNL     1      23.926   4.957  48.775  1.00  0.00     0.031 A 
ENDBRANCH  14  21
TORSDOF 3
ENDMDL
