MODEL 1
REMARK VINA RESULT:      -8.0      0.000      0.000
REMARK  4 active torsions:
REMARK  status: ('A' for Active; 'I' for Inactive)
REMARK    1  A    between atoms: C4_4  and  C5_5 
REMARK    2  A    between atoms: C5_5  and  C6_6 
REMARK    3  A    between atoms: C10_12  and  N3_13 
REMARK    4  A    between atoms: N3_13  and  C11_14 
ROOT
HETATM    1  C1  UNL     1      30.163  -0.478  53.835  1.00  0.00     0.039 C 
HETATM    2  C2  UNL     1      28.968   0.275  54.404  1.00  0.00     0.128 C 
HETATM    3  C3  UNL     1      27.758  -0.369  53.781  1.00  0.00     0.009 C 
HETATM    4  C4  UNL     1      26.738   0.375  53.315  1.00  0.00    -0.026 C 
HETATM    5  C10 UNL     1      26.873   1.820  53.447  1.00  0.00     0.070 C 
HETATM    6  C17 UNL     1      28.106   2.297  53.468  1.00  0.00     0.109 C 
HETATM    7  N4  UNL     1      29.037   1.682  54.070  1.00  0.00    -0.276 NA
ENDROOT
BRANCH   5   8
HETATM    8  N3  UNL     1      25.683   2.608  53.544  1.00  0.00    -0.354 N 
HETATM    9  H13 UNL     1      25.313   2.996  54.421  1.00  0.00     0.166 HD
BRANCH   8  10
HETATM   10  C11 UNL     1      24.963   2.870  52.340  1.00  0.00     0.034 A 
HETATM   11  C12 UNL     1      25.584   3.050  51.122  1.00  0.00     0.032 A 
HETATM   12  C13 UNL     1      24.932   3.302  49.943  1.00  0.00     0.046 A 
HETATM   13  C14 UNL     1      23.548   3.385  49.966  1.00  0.00     0.138 A 
HETATM   14  F1  UNL     1      22.911   3.639  48.778  1.00  0.00    -0.204 F 
HETATM   15  C15 UNL     1      22.875   3.214  51.154  1.00  0.00     0.074 A 
HETATM   16 CL1  UNL     1      21.151   3.339  51.061  1.00  0.00    -0.081 Cl
HETATM   17  C16 UNL     1      23.593   2.960  52.317  1.00  0.00     0.056 A 
ENDBRANCH   8  10
ENDBRANCH   5   8
BRANCH   4  18
HETATM   18  C5  UNL     1      25.556  -0.240  52.707  1.00  0.00     0.082 C 
BRANCH  18  19
HETATM   19  C6  UNL     1      24.508  -0.646  53.653  1.00  0.00    -0.018 A 
HETATM   20  C7  UNL     1      24.540  -1.023  54.977  1.00  0.00     0.147 A 
HETATM   21  N1  UNL     1      23.275  -1.300  55.384  1.00  0.00    -0.185 NA
HETATM   22  N2  UNL     1      22.436  -1.117  54.378  1.00  0.00    -0.285 N 
HETATM   23  C8  UNL     1      20.981  -1.297  54.366  1.00  0.00     0.179 C 
HETATM   24  C9  UNL     1      23.165  -0.719  53.319  1.00  0.00     0.120 A 
ENDBRANCH  18  19
ENDBRANCH   4  18
TORSDOF 4
ENDMDL
MODEL 2
REMARK VINA RESULT:      -8.0      3.871      7.461
REMARK  4 active torsions:
REMARK  status: ('A' for Active; 'I' for Inactive)
REMARK    1  A    between atoms: C4_4  and  C5_5 
REMARK    2  A    between atoms: C5_5  and  C6_6 
REMARK    3  A    between atoms: C10_12  and  N3_13 
REMARK    4  A    between atoms: N3_13  and  C11_14 
ROOT
HETATM    1  C1  UNL     1      21.793   2.142  49.442  1.00  0.00     0.039 C 
HETATM    2  C2  UNL     1      22.693   2.901  50.408  1.00  0.00     0.128 C 
HETATM    3  C3  UNL     1      23.984   3.117  49.663  1.00  0.00     0.009 C 
HETATM    4  C4  UNL     1      25.172   2.934  50.264  1.00  0.00    -0.026 C 
HETATM    5  C10 UNL     1      25.138   2.518  51.662  1.00  0.00     0.070 C 
HETATM    6  C17 UNL     1      24.071   1.841  52.048  1.00  0.00     0.109 C 
HETATM    7  N4  UNL     1      22.915   2.136  51.617  1.00  0.00    -0.276 NA
ENDROOT
BRANCH   5   8
HETATM    8  N3  UNL     1      26.242   2.867  52.503  1.00  0.00    -0.354 N 
HETATM    9  H13 UNL     1      26.433   3.816  52.844  1.00  0.00     0.166 HD
BRANCH   8  10
HETATM   10  C11 UNL     1      27.134   1.822  52.889  1.00  0.00     0.034 A 
HETATM   11  C12 UNL     1      28.316   2.059  53.560  1.00  0.00     0.032 A 
HETATM   12  C13 UNL     1      29.201   1.086  53.948  1.00  0.00     0.046 A 
HETATM   13  C14 UNL     1      28.895  -0.233  53.649  1.00  0.00     0.138 A 
HETATM   14  F1  UNL     1      29.791  -1.193  54.044  1.00  0.00    -0.204 F 
HETATM   15  C15 UNL     1      27.729  -0.528  52.980  1.00  0.00     0.074 A 
HETATM   16 CL1  UNL     1      27.454  -2.207  52.662  1.00  0.00    -0.081 Cl
HETATM   17  C16 UNL     1      26.871   0.503  52.613  1.00  0.00     0.056 A 
ENDBRANCH   8  10
ENDBRANCH   5   8
BRANCH   4  18
HETATM   18  C5  UNL     1      26.434   3.141  49.549  1.00  0.00     0.082 C 
BRANCH  18  19
HETATM   19  C6  UNL     1      26.740   4.540  49.219  1.00  0.00    -0.018 A 
HETATM   20  C7  UNL     1      26.079   5.723  49.461  1.00  0.00     0.147 A 
HETATM   21  N1  UNL     1      26.801   6.745  48.935  1.00  0.00    -0.185 NA
HETATM   22  N2  UNL     1      27.895   6.266  48.367  1.00  0.00    -0.285 N 
HETATM   23  C8  UNL     1      28.959   7.005  47.679  1.00  0.00     0.179 C 
HETATM   24  C9  UNL     1      27.877   4.929  48.528  1.00  0.00     0.120 A 
ENDBRANCH  18  19
ENDBRANCH   4  18
TORSDOF 4
ENDMDL
MODEL 3
REMARK VINA RESULT:      -8.0      2.386      4.917
REMARK  4 active torsions:
REMARK  status: ('A' for Active; 'I' for Inactive)
REMARK    1  A    between atoms: C4_4  and  C5_5 
REMARK    2  A    between atoms: C5_5  and  C6_6 
REMARK    3  A    between atoms: C10_12  and  N3_13 
REMARK    4  A    between atoms: N3_13  and  C11_14 
ROOT
HETATM    1  C1  UNL     1      29.561   2.105  54.626  1.00  0.00     0.039 C 
HETATM    2  C2  UNL     1      28.826   0.825  54.249  1.00  0.00     0.128 C 
HETATM    3  C3  UNL     1      28.262   1.080  52.877  1.00  0.00     0.009 C 
HETATM    4  C4  UNL     1      27.008   0.710  52.562  1.00  0.00    -0.026 C 
HETATM    5  C10 UNL     1      26.237   0.058  53.614  1.00  0.00     0.070 C 
HETATM    6  C17 UNL     1      26.562   0.367  54.858  1.00  0.00     0.109 C 
HETATM    7  N4  UNL     1      27.772   0.536  55.198  1.00  0.00    -0.276 NA
ENDROOT
BRANCH   5   8
HETATM    8  N3  UNL     1      25.204  -0.855  53.235  1.00  0.00    -0.354 N 
HETATM    9  H13 UNL     1      25.364  -1.737  52.734  1.00  0.00     0.166 HD
BRANCH   8  10
HETATM   10  C11 UNL     1      23.861  -0.511  53.575  1.00  0.00     0.034 A 
HETATM   11  C12 UNL     1      23.173  -1.114  54.607  1.00  0.00     0.032 A 
HETATM   12  C13 UNL     1      21.885  -0.815  54.967  1.00  0.00     0.046 A 
HETATM   13  C14 UNL     1      21.216   0.164  54.246  1.00  0.00     0.138 A 
HETATM   14  F1  UNL     1      19.927   0.451  54.619  1.00  0.00    -0.204 F 
HETATM   15  C15 UNL     1      21.853   0.799  53.206  1.00  0.00     0.074 A 
HETATM   16 CL1  UNL     1      20.920   2.001  52.380  1.00  0.00    -0.081 Cl
HETATM   17  C16 UNL     1      23.161   0.451  52.889  1.00  0.00     0.056 A 
ENDBRANCH   8  10
ENDBRANCH   5   8
BRANCH   4  18
HETATM   18  C5  UNL     1      26.448   0.952  51.230  1.00  0.00     0.082 C 
BRANCH  18  19
HETATM   19  C6  UNL     1      26.001   2.330  50.984  1.00  0.00    -0.018 A 
HETATM   20  C7  UNL     1      25.027   3.113  51.561  1.00  0.00     0.147 A 
HETATM   21  N1  UNL     1      25.023   4.327  50.954  1.00  0.00    -0.185 NA
HETATM   22  N2  UNL     1      25.953   4.354  50.014  1.00  0.00    -0.285 N 
HETATM   23  C8  UNL     1      26.301   5.458  49.112  1.00  0.00     0.179 C 
HETATM   24  C9  UNL     1      26.558   3.151  50.016  1.00  0.00     0.120 A 
ENDBRANCH  18  19
ENDBRANCH   4  18
TORSDOF 4
ENDMDL
MODEL 4
REMARK VINA RESULT:      -7.8      3.152      6.014
REMARK  4 active torsions:
REMARK  status: ('A' for Active; 'I' for Inactive)
REMARK    1  A    between atoms: C4_4  and  C5_5 
REMARK    2  A    between atoms: C5_5  and  C6_6 
REMARK    3  A    between atoms: C10_12  and  N3_13 
REMARK    4  A    between atoms: N3_13  and  C11_14 
ROOT
HETATM    1  C1  UNL     1      28.692   2.476  53.761  1.00  0.00     0.039 C 
HETATM    2  C2  UNL     1      27.412   1.767  53.339  1.00  0.00     0.128 C 
HETATM    3  C3  UNL     1      27.229   2.108  51.883  1.00  0.00     0.009 C 
HETATM    4  C4  UNL     1      26.023   2.445  51.395  1.00  0.00    -0.026 C 
HETATM    5  C10 UNL     1      24.917   2.461  52.345  1.00  0.00     0.070 C 
HETATM    6  C17 UNL     1      25.229   2.701  53.607  1.00  0.00     0.109 C 
HETATM    7  N4  UNL     1      26.285   2.226  54.124  1.00  0.00    -0.276 NA
ENDROOT
BRANCH   5   8
HETATM    8  N3  UNL     1      23.595   2.220  51.855  1.00  0.00    -0.354 N 
HETATM    9  H13 UNL     1      23.146   2.760  51.106  1.00  0.00     0.166 HD
BRANCH   8  10
HETATM   10  C11 UNL     1      22.853   1.156  52.451  1.00  0.00     0.034 A 
HETATM   11  C12 UNL     1      23.439   0.180  53.229  1.00  0.00     0.032 A 
HETATM   12  C13 UNL     1      22.765  -0.858  53.819  1.00  0.00     0.046 A 
HETATM   13  C14 UNL     1      21.394  -0.940  53.626  1.00  0.00     0.138 A 
HETATM   14  F1  UNL     1      20.735  -1.985  54.223  1.00  0.00    -0.204 F 
HETATM   15  C15 UNL     1      20.755   0.007  52.859  1.00  0.00     0.074 A 
HETATM   16 CL1  UNL     1      19.045  -0.198  52.688  1.00  0.00    -0.081 Cl
HETATM   17  C16 UNL     1      21.495   1.036  52.286  1.00  0.00     0.056 A 
ENDBRANCH   8  10
ENDBRANCH   5   8
BRANCH   4  18
HETATM   18  C5  UNL     1      25.833   2.778  49.981  1.00  0.00     0.082 C 
BRANCH  18  19
HETATM   19  C6  UNL     1      26.167   4.162  49.617  1.00  0.00    -0.018 A 
HETATM   20  C7  UNL     1      25.540   5.365  49.848  1.00  0.00     0.147 A 
HETATM   21  N1  UNL     1      26.277   6.358  49.289  1.00  0.00    -0.185 NA
HETATM   22  N2  UNL     1      27.348   5.841  48.711  1.00  0.00    -0.285 N 
HETATM   23  C8  UNL     1      28.417   6.541  47.990  1.00  0.00     0.179 C 
HETATM   24  C9  UNL     1      27.300   4.509  48.899  1.00  0.00     0.120 A 
ENDBRANCH  18  19
ENDBRANCH   4  18
TORSDOF 4
ENDMDL
MODEL 5
REMARK VINA RESULT:      -7.6      2.276      4.920
REMARK  4 active torsions:
REMARK  status: ('A' for Active; 'I' for Inactive)
REMARK    1  A    between atoms: C4_4  and  C5_5 
REMARK    2  A    between atoms: C5_5  and  C6_6 
REMARK    3  A    between atoms: C10_12  and  N3_13 
REMARK    4  A    between atoms: N3_13  and  C11_14 
ROOT
HETATM    1  C1  UNL     1      21.254  -1.442  54.563  1.00  0.00     0.039 C 
HETATM    2  C2  UNL     1      22.080  -1.157  53.316  1.00  0.00     0.128 C 
HETATM    3  C3  UNL     1      23.417  -0.684  53.823  1.00  0.00     0.009 C 
HETATM    4  C4  UNL     1      24.040   0.368  53.264  1.00  0.00    -0.026 C 
HETATM    5  C10 UNL     1      23.353   1.016  52.152  1.00  0.00     0.070 C 
HETATM    6  C17 UNL     1      22.034   0.924  52.141  1.00  0.00     0.109 C 
HETATM    7  N4  UNL     1      21.448  -0.143  52.498  1.00  0.00    -0.276 NA
ENDROOT
BRANCH   5   8
HETATM    8  N3  UNL     1      24.140   1.693  51.168  1.00  0.00    -0.354 N 
HETATM    9  H13 UNL     1      24.750   1.223  50.489  1.00  0.00     0.166 HD
BRANCH   8  10
HETATM   10  C11 UNL     1      24.070   3.118  51.133  1.00  0.00     0.034 A 
HETATM   11  C12 UNL     1      23.724   3.878  52.231  1.00  0.00     0.032 A 
HETATM   12  C13 UNL     1      23.644   5.246  52.240  1.00  0.00     0.046 A 
HETATM   13  C14 UNL     1      23.931   5.926  51.064  1.00  0.00     0.138 A 
HETATM   14  F1  UNL     1      23.846   7.294  51.091  1.00  0.00    -0.204 F 
HETATM   15  C15 UNL     1      24.282   5.219  49.937  1.00  0.00     0.074 A 
HETATM   16 CL1  UNL     1      24.617   6.172  48.532  1.00  0.00    -0.081 Cl
HETATM   17  C16 UNL     1      24.345   3.831  49.991  1.00  0.00     0.056 A 
ENDBRANCH   8  10
ENDBRANCH   5   8
BRANCH   4  18
HETATM   18  C5  UNL     1      25.340   0.837  53.749  1.00  0.00     0.082 C 
BRANCH  18  19
HETATM   19  C6  UNL     1      26.461  -0.082  53.511  1.00  0.00    -0.018 A 
HETATM   20  C7  UNL     1      26.534  -1.348  52.976  1.00  0.00     0.147 A 
HETATM   21  N1  UNL     1      27.829  -1.754  52.984  1.00  0.00    -0.185 NA
HETATM   22  N2  UNL     1      28.588  -0.802  53.502  1.00  0.00    -0.285 N 
HETATM   23  C8  UNL     1      30.040  -0.808  53.704  1.00  0.00     0.179 C 
HETATM   24  C9  UNL     1      27.776   0.221  53.827  1.00  0.00     0.120 A 
ENDBRANCH  18  19
ENDBRANCH   4  18
TORSDOF 4
ENDMDL
MODEL 6
REMARK VINA RESULT:      -7.6      2.709      5.004
REMARK  4 active torsions:
REMARK  status: ('A' for Active; 'I' for Inactive)
REMARK    1  A    between atoms: C4_4  and  C5_5 
REMARK    2  A    between atoms: C5_5  and  C6_6 
REMARK    3  A    between atoms: C10_12  and  N3_13 
REMARK    4  A    between atoms: N3_13  and  C11_14 
ROOT
HETATM    1  C1  UNL     1      26.874   3.578  49.123  1.00  0.00     0.039 C 
HETATM    2  C2  UNL     1      26.300   3.660  50.532  1.00  0.00     0.128 C 
HETATM    3  C3  UNL     1      26.391   2.261  51.081  1.00  0.00     0.009 C 
HETATM    4  C4  UNL     1      25.372   1.718  51.772  1.00  0.00    -0.026 C 
HETATM    5  C10 UNL     1      24.191   2.553  51.954  1.00  0.00     0.070 C 
HETATM    6  C17 UNL     1      23.970   3.470  51.027  1.00  0.00     0.109 C 
HETATM    7  N4  UNL     1      24.926   4.118  50.504  1.00  0.00    -0.276 NA
ENDROOT
BRANCH   5   8
HETATM    8  N3  UNL     1      23.368   2.326  53.102  1.00  0.00    -0.354 N 
HETATM    9  H13 UNL     1      23.565   2.697  54.039  1.00  0.00     0.166 HD
BRANCH   8  10
HETATM   10  C11 UNL     1      22.197   1.529  52.929  1.00  0.00     0.034 A 
HETATM   11  C12 UNL     1      21.180   1.873  52.063  1.00  0.00     0.032 A 
HETATM   12  C13 UNL     1      20.040   1.137  51.867  1.00  0.00     0.046 A 
HETATM   13  C14 UNL     1      19.888  -0.038  52.587  1.00  0.00     0.138 A 
HETATM   14  F1  UNL     1      18.742  -0.762  52.379  1.00  0.00    -0.204 F 
HETATM   15  C15 UNL     1      20.871  -0.430  53.466  1.00  0.00     0.074 A 
HETATM   16 CL1  UNL     1      20.573  -1.913  54.308  1.00  0.00    -0.081 Cl
HETATM   17  C16 UNL     1      22.006   0.359  53.621  1.00  0.00     0.056 A 
ENDBRANCH   8  10
ENDBRANCH   5   8
BRANCH   4  18
HETATM   18  C5  UNL     1      25.450   0.358  52.311  1.00  0.00     0.082 C 
BRANCH  18  19
HETATM   19  C6  UNL     1      26.568   0.116  53.232  1.00  0.00    -0.018 A 
HETATM   20  C7  UNL     1      26.732   0.338  54.581  1.00  0.00     0.147 A 
HETATM   21  N1  UNL     1      27.974  -0.069  54.945  1.00  0.00    -0.185 NA
HETATM   22  N2  UNL     1      28.612  -0.542  53.887  1.00  0.00    -0.285 N 
HETATM   23  C8  UNL     1      29.972  -1.088  53.816  1.00  0.00     0.179 C 
HETATM   24  C9  UNL     1      27.776  -0.438  52.838  1.00  0.00     0.120 A 
ENDBRANCH  18  19
ENDBRANCH   4  18
TORSDOF 4
ENDMDL
MODEL 7
REMARK VINA RESULT:      -7.6      3.248      5.606
REMARK  4 active torsions:
REMARK  status: ('A' for Active; 'I' for Inactive)
REMARK    1  A    between atoms: C4_4  and  C5_5 
REMARK    2  A    between atoms: C5_5  and  C6_6 
REMARK    3  A    between atoms: C10_12  and  N3_13 
REMARK    4  A    between atoms: N3_13  and  C11_14 
ROOT
HETATM    1  C1  UNL     1      21.510   0.643  50.352  1.00  0.00     0.039 C 
HETATM    2  C2  UNL     1      22.636   1.651  50.166  1.00  0.00     0.128 C 
HETATM    3  C3  UNL     1      23.390   1.652  51.469  1.00  0.00     0.009 C 
HETATM    4  C4  UNL     1      23.797   2.801  52.036  1.00  0.00    -0.026 C 
HETATM    5  C10 UNL     1      23.470   4.030  51.323  1.00  0.00     0.070 C 
HETATM    6  C17 UNL     1      22.394   3.996  50.555  1.00  0.00     0.109 C 
HETATM    7  N4  UNL     1      22.108   2.966  49.872  1.00  0.00    -0.276 NA
ENDROOT
BRANCH   5   8
HETATM    8  N3  UNL     1      24.320   5.167  51.500  1.00  0.00    -0.354 N 
HETATM    9  H13 UNL     1      24.274   5.806  52.303  1.00  0.00     0.166 HD
BRANCH   8  10
HETATM   10  C11 UNL     1      25.294   5.427  50.490  1.00  0.00     0.034 A 
HETATM   11  C12 UNL     1      26.036   4.430  49.892  1.00  0.00     0.032 A 
HETATM   12  C13 UNL     1      26.981   4.636  48.921  1.00  0.00     0.046 A 
HETATM   13  C14 UNL     1      27.215   5.937  48.502  1.00  0.00     0.138 A 
HETATM   14  F1  UNL     1      28.164   6.125  47.530  1.00  0.00    -0.204 F 
HETATM   15  C15 UNL     1      26.504   6.972  49.064  1.00  0.00     0.074 A 
HETATM   16 CL1  UNL     1      26.882   8.551  48.463  1.00  0.00    -0.081 Cl
HETATM   17  C16 UNL     1      25.559   6.700  50.046  1.00  0.00     0.056 A 
ENDBRANCH   8  10
ENDBRANCH   5   8
BRANCH   4  18
HETATM   18  C5  UNL     1      24.531   2.814  53.303  1.00  0.00     0.082 C 
BRANCH  18  19
HETATM   19  C6  UNL     1      25.874   2.221  53.251  1.00  0.00    -0.018 A 
HETATM   20  C7  UNL     1      26.913   2.339  52.356  1.00  0.00     0.147 A 
HETATM   21  N1  UNL     1      27.947   1.568  52.780  1.00  0.00    -0.185 NA
HETATM   22  N2  UNL     1      27.614   0.962  53.908  1.00  0.00    -0.285 N 
HETATM   23  C8  UNL     1      28.419   0.040  54.716  1.00  0.00     0.179 C 
HETATM   24  C9  UNL     1      26.359   1.346  54.211  1.00  0.00     0.120 A 
ENDBRANCH  18  19
ENDBRANCH   4  18
TORSDOF 4
ENDMDL
MODEL 8
REMARK VINA RESULT:      -7.6      3.156      5.535
REMARK  4 active torsions:
REMARK  status: ('A' for Active; 'I' for Inactive)
REMARK    1  A    between atoms: C4_4  and  C5_5 
REMARK    2  A    between atoms: C5_5  and  C6_6 
REMARK    3  A    between atoms: C10_12  and  N3_13 
REMARK    4  A    between atoms: N3_13  and  C11_14 
ROOT
HETATM    1  C1  UNL     1      22.705   3.702  47.892  1.00  0.00     0.039 C 
HETATM    2  C2  UNL     1      23.401   2.937  49.010  1.00  0.00     0.128 C 
HETATM    3  C3  UNL     1      22.399   2.871  50.131  1.00  0.00     0.009 C 
HETATM    4  C4  UNL     1      22.767   3.092  51.406  1.00  0.00    -0.026 C 
HETATM    5  C10 UNL     1      24.175   3.395  51.634  1.00  0.00     0.070 C 
HETATM    6  C17 UNL     1      24.824   3.964  50.632  1.00  0.00     0.109 C 
HETATM    7  N4  UNL     1      24.606   3.621  49.431  1.00  0.00    -0.276 NA
ENDROOT
BRANCH   5   8
HETATM    8  N3  UNL     1      24.745   3.062  52.903  1.00  0.00    -0.354 N 
HETATM    9  H13 UNL     1      24.522   3.541  53.783  1.00  0.00     0.166 HD
BRANCH   8  10
HETATM   10  C11 UNL     1      25.690   1.993  52.942  1.00  0.00     0.034 A 
HETATM   11  C12 UNL     1      25.467   0.777  52.331  1.00  0.00     0.032 A 
HETATM   12  C13 UNL     1      26.346  -0.276  52.344  1.00  0.00     0.046 A 
HETATM   13  C14 UNL     1      27.547  -0.116  53.019  1.00  0.00     0.138 A 
HETATM   14  F1  UNL     1      28.414  -1.179  53.023  1.00  0.00    -0.204 F 
HETATM   15  C15 UNL     1      27.822   1.076  53.648  1.00  0.00     0.074 A 
HETATM   16 CL1  UNL     1      29.350   1.160  54.457  1.00  0.00    -0.081 Cl
HETATM   17  C16 UNL     1      26.890   2.107  53.599  1.00  0.00     0.056 A 
ENDBRANCH   8  10
ENDBRANCH   5   8
BRANCH   4  18
HETATM   18  C5  UNL     1      21.800   3.030  52.505  1.00  0.00     0.082 C 
BRANCH  18  19
HETATM   19  C6  UNL     1      21.230   1.700  52.758  1.00  0.00    -0.018 A 
HETATM   20  C7  UNL     1      20.026   1.121  52.425  1.00  0.00     0.147 A 
HETATM   21  N1  UNL     1      20.000  -0.147  52.908  1.00  0.00    -0.185 NA
HETATM   22  N2  UNL     1      21.135  -0.404  53.536  1.00  0.00    -0.285 N 
HETATM   23  C8  UNL     1      21.541  -1.643  54.208  1.00  0.00     0.179 C 
HETATM   24  C9  UNL     1      21.895   0.705  53.456  1.00  0.00     0.120 A 
ENDBRANCH  18  19
ENDBRANCH   4  18
TORSDOF 4
ENDMDL
MODEL 9
REMARK VINA RESULT:      -7.5      3.479      6.503
REMARK  4 active torsions:
REMARK  status: ('A' for Active; 'I' for Inactive)
REMARK    1  A    between atoms: C4_4  and  C5_5 
REMARK    2  A    between atoms: C5_5  and  C6_6 
REMARK    3  A    between atoms: C10_12  and  N3_13 
REMARK    4  A    between atoms: N3_13  and  C11_14 
ROOT
HETATM    1  C1  UNL     1      20.664  -1.270  54.141  1.00  0.00     0.039 C 
HETATM    2  C2  UNL     1      21.769  -0.239  54.334  1.00  0.00     0.128 C 
HETATM    3  C3  UNL     1      21.752   0.601  53.085  1.00  0.00     0.009 C 
HETATM    4  C4  UNL     1      22.895   0.958  52.473  1.00  0.00    -0.026 C 
HETATM    5  C10 UNL     1      24.134   0.490  53.082  1.00  0.00     0.070 C 
HETATM    6  C17 UNL     1      24.060  -0.630  53.780  1.00  0.00     0.109 C 
HETATM    7  N4  UNL     1      23.053  -0.884  54.508  1.00  0.00    -0.276 NA
ENDROOT
BRANCH   5   8
HETATM    8  N3  UNL     1      25.322   1.262  52.887  1.00  0.00    -0.354 N 
HETATM    9  H13 UNL     1      25.337   2.222  52.521  1.00  0.00     0.166 HD
BRANCH   8  10
HETATM   10  C11 UNL     1      26.569   0.654  53.224  1.00  0.00     0.034 A 
HETATM   11  C12 UNL     1      27.563   1.318  53.911  1.00  0.00     0.032 A 
HETATM   12  C13 UNL     1      28.773   0.771  54.254  1.00  0.00     0.046 A 
HETATM   13  C14 UNL     1      29.025  -0.543  53.887  1.00  0.00     0.138 A 
HETATM   14  F1  UNL     1      30.240  -1.073  54.238  1.00  0.00    -0.204 F 
HETATM   15  C15 UNL     1      28.068  -1.253  53.200  1.00  0.00     0.074 A 
HETATM   16 CL1  UNL     1      28.493  -2.882  52.796  1.00  0.00    -0.081 Cl
HETATM   17  C16 UNL     1      26.860  -0.644  52.881  1.00  0.00     0.056 A 
ENDBRANCH   8  10
ENDBRANCH   5   8
BRANCH   4  18
HETATM   18  C5  UNL     1      22.891   1.775  51.257  1.00  0.00     0.082 C 
BRANCH  18  19
HETATM   19  C6  UNL     1      22.762   3.222  51.479  1.00  0.00    -0.018 A 
HETATM   20  C7  UNL     1      21.779   3.995  52.054  1.00  0.00     0.147 A 
HETATM   21  N1  UNL     1      22.160   5.297  52.005  1.00  0.00    -0.185 NA
HETATM   22  N2  UNL     1      23.344   5.389  51.423  1.00  0.00    -0.285 N 
HETATM   23  C8  UNL     1      24.134   6.597  51.160  1.00  0.00     0.179 C 
HETATM   24  C9  UNL     1      23.727   4.141  51.096  1.00  0.00     0.120 A 
ENDBRANCH  18  19
ENDBRANCH   4  18
TORSDOF 4
ENDMDL
