MODEL 1
REMARK VINA RESULT:      -8.0      0.000      0.000
REMARK  4 active torsions:
REMARK  status: ('A' for Active; 'I' for Inactive)
REMARK    1  A    between atoms: C3_4  and  N2_5 
REMARK    2  A    between atoms: N2_5  and  C4_6 
REMARK    3  A    between atoms: C6_9  and  C7_10 
REMARK    4  A    between atoms: C12_19  and  C13_20 
ROOT
HETATM    1  C4  UNL     1      26.443   2.344  53.027  1.00  0.00     0.704 C 
HETATM    2  N3  UNL     1      25.287   2.082  53.537  1.00  0.00    -0.076 NA
HETATM    3  C5  UNL     1      24.021   2.330  52.932  1.00  0.00     0.151 C 
HETATM    4  C6  UNL     1      23.639   2.674  51.712  1.00  0.00     0.050 C 
HETATM    5  C14 UNL     1      24.602   2.904  50.632  1.00  0.00     0.063 C 
HETATM    6 CL1  UNL     1      23.959   3.075  49.010  1.00  0.00    -0.082 Cl
HETATM    7  C15 UNL     1      25.931   3.010  50.653  1.00  0.00     0.130 C 
HETATM    8  N5  UNL     1      26.841   2.928  51.770  1.00  0.00    -0.198 N 
HETATM    9  H19 UNL     1      27.804   3.279  51.721  1.00  0.00     0.183 HD
ENDROOT
BRANCH   4  10
HETATM   10  C7  UNL     1      22.224   2.862  51.374  1.00  0.00     0.247 C 
HETATM   11  F1  UNL     1      21.945   1.906  50.365  1.00  0.00    -0.205 F 
HETATM   12  O1  UNL     1      21.377   2.624  52.412  1.00  0.00    -0.347 OA
HETATM   13  C8  UNL     1      21.111   1.347  52.818  1.00  0.00     0.173 C 
HETATM   14  C9  UNL     1      20.225   0.626  51.819  1.00  0.00     0.048 C 
HETATM   15  C10 UNL     1      18.877   1.319  51.714  1.00  0.00     0.148 C 
HETATM   16  N4  UNL     1      18.883   2.715  51.785  1.00  0.00    -0.303 N 
HETATM   17  O2  UNL     1      19.730   3.532  51.422  1.00  0.00    -0.284 OA
HETATM   18  H13 UNL     1      18.073   3.141  52.297  1.00  0.00     0.187 HD
HETATM   19  C11 UNL     1      20.336   3.851  50.313  1.00  0.00     0.217 C 
HETATM   20  C12 UNL     1      21.830   4.152  50.708  1.00  0.00     0.149 C 
BRANCH  20  21
HETATM   21  C13 UNL     1      21.742   5.340  51.602  1.00  0.00     0.365 C 
HETATM   22  F2  UNL     1      22.961   5.853  51.965  1.00  0.00    -0.214 F 
HETATM   23  F3  UNL     1      21.084   6.323  50.885  1.00  0.00    -0.214 F 
ENDBRANCH  20  21
ENDBRANCH   4  10
BRANCH   1  24
HETATM   24  N2  UNL     1      27.514   1.982  53.870  1.00  0.00    -0.187 N 
HETATM   25  H5  UNL     1      27.740   2.633  54.667  1.00  0.00     0.184 HD
BRANCH  24  26
HETATM   26  C3  UNL     1      28.300   0.808  53.721  1.00  0.00     0.085 A 
HETATM   27  C2  UNL     1      27.827  -0.475  53.443  1.00  0.00     0.143 A 
HETATM   28  N1  UNL     1      28.862  -1.330  53.373  1.00  0.00    -0.283 N 
HETATM   29  C1  UNL     1      28.802  -2.768  53.101  1.00  0.00     0.179 C 
HETATM   30  N6  UNL     1      29.985  -0.660  53.593  1.00  0.00    -0.183 NA
HETATM   31  C16 UNL     1      29.663   0.629  53.805  1.00  0.00     0.170 A 
ENDBRANCH  24  26
ENDBRANCH   1  24
TORSDOF 4
ENDMDL
MODEL 2
REMARK VINA RESULT:      -7.8      3.683      7.782
REMARK  4 active torsions:
REMARK  status: ('A' for Active; 'I' for Inactive)
REMARK    1  A    between atoms: C3_4  and  N2_5 
REMARK    2  A    between atoms: N2_5  and  C4_6 
REMARK    3  A    between atoms: C6_9  and  C7_10 
REMARK    4  A    between atoms: C12_19  and  C13_20 
ROOT
HETATM    1  C4  UNL     1      23.181   5.092  51.615  1.00  0.00     0.704 C 
HETATM    2  N3  UNL     1      23.373   4.490  52.740  1.00  0.00    -0.076 NA
HETATM    3  C5  UNL     1      24.146   3.312  52.946  1.00  0.00     0.151 C 
HETATM    4  C6  UNL     1      24.999   2.631  52.196  1.00  0.00     0.050 C 
HETATM    5  C14 UNL     1      25.319   3.032  50.824  1.00  0.00     0.063 C 
HETATM    6 CL1  UNL     1      26.663   2.219  50.045  1.00  0.00    -0.082 Cl
HETATM    7  C15 UNL     1      24.757   3.940  50.024  1.00  0.00     0.130 C 
HETATM    8  N5  UNL     1      23.641   4.819  50.276  1.00  0.00    -0.198 N 
HETATM    9  H19 UNL     1      23.128   5.286  49.519  1.00  0.00     0.183 HD
ENDROOT
BRANCH   4  10
HETATM   10  C7  UNL     1      25.662   1.421  52.692  1.00  0.00     0.247 C 
HETATM   11  F1  UNL     1      26.639   1.096  51.716  1.00  0.00    -0.205 F 
HETATM   12  O1  UNL     1      26.307   1.596  53.877  1.00  0.00    -0.347 OA
HETATM   13  C8  UNL     1      27.494   2.269  53.934  1.00  0.00     0.173 C 
HETATM   14  C9  UNL     1      28.624   1.445  53.345  1.00  0.00     0.048 C 
HETATM   15  C10 UNL     1      28.826   0.175  54.155  1.00  0.00     0.148 C 
HETATM   16  N4  UNL     1      27.675  -0.442  54.650  1.00  0.00    -0.303 N 
HETATM   17  O2  UNL     1      26.532  -0.494  54.191  1.00  0.00    -0.284 OA
HETATM   18  H13 UNL     1      27.770  -0.869  55.603  1.00  0.00     0.187 HD
HETATM   19  C11 UNL     1      25.961  -0.907  53.095  1.00  0.00     0.217 C 
HETATM   20  C12 UNL     1      24.850   0.156  52.760  1.00  0.00     0.149 C 
BRANCH  20  21
HETATM   21  C13 UNL     1      23.895   0.063  53.900  1.00  0.00     0.365 C 
HETATM   22  F2  UNL     1      22.685   0.661  53.661  1.00  0.00    -0.214 F 
HETATM   23  F3  UNL     1      23.652  -1.284  54.098  1.00  0.00    -0.214 F 
ENDBRANCH  20  21
ENDBRANCH   4  10
BRANCH   1  24
HETATM   24  N2  UNL     1      22.366   6.237  51.733  1.00  0.00    -0.187 N 
HETATM   25  H5  UNL     1      21.820   6.349  52.626  1.00  0.00     0.184 HD
BRANCH  24  26
HETATM   26  C3  UNL     1      22.235   7.243  50.738  1.00  0.00     0.085 A 
HETATM   27  C2  UNL     1      21.069   7.584  50.052  1.00  0.00     0.143 A 
HETATM   28  N1  UNL     1      21.330   8.580  49.189  1.00  0.00    -0.283 N 
HETATM   29  C1  UNL     1      20.383   9.230  48.280  1.00  0.00     0.179 C 
HETATM   30  N6  UNL     1      22.612   8.902  49.284  1.00  0.00    -0.183 NA
HETATM   31  C16 UNL     1      23.172   8.105  50.212  1.00  0.00     0.170 A 
ENDBRANCH  24  26
ENDBRANCH   1  24
TORSDOF 4
ENDMDL
MODEL 3
REMARK VINA RESULT:      -7.8      3.694      5.503
REMARK  4 active torsions:
REMARK  status: ('A' for Active; 'I' for Inactive)
REMARK    1  A    between atoms: C3_4  and  N2_5 
REMARK    2  A    between atoms: N2_5  and  C4_6 
REMARK    3  A    between atoms: C6_9  and  C7_10 
REMARK    4  A    between atoms: C12_19  and  C13_20 
ROOT
HETATM    1  C4  UNL     1      24.824   4.017  50.259  1.00  0.00     0.704 C 
HETATM    2  N3  UNL     1      24.613   3.513  51.428  1.00  0.00    -0.076 NA
HETATM    3  C5  UNL     1      23.537   2.658  51.798  1.00  0.00     0.151 C 
HETATM    4  C6  UNL     1      22.616   1.994  51.115  1.00  0.00     0.050 C 
HETATM    5  C14 UNL     1      22.536   2.057  49.653  1.00  0.00     0.063 C 
HETATM    6 CL1  UNL     1      21.462   0.921  48.860  1.00  0.00    -0.082 Cl
HETATM    7  C15 UNL     1      23.156   2.849  48.777  1.00  0.00     0.130 C 
HETATM    8  N5  UNL     1      24.112   3.904  49.009  1.00  0.00    -0.198 N 
HETATM    9  H19 UNL     1      24.327   4.616  48.302  1.00  0.00     0.183 HD
ENDROOT
BRANCH   4  10
HETATM   10  C7  UNL     1      21.608   1.168  51.787  1.00  0.00     0.247 C 
HETATM   11  F1  UNL     1      21.718  -0.118  51.200  1.00  0.00    -0.205 F 
HETATM   12  O1  UNL     1      21.816   1.029  53.124  1.00  0.00    -0.347 OA
HETATM   13  C8  UNL     1      22.802   0.210  53.596  1.00  0.00     0.173 C 
HETATM   14  C9  UNL     1      22.436  -1.251  53.416  1.00  0.00     0.048 C 
HETATM   15  C10 UNL     1      21.194  -1.587  54.224  1.00  0.00     0.148 C 
HETATM   16  N4  UNL     1      20.201  -0.605  54.284  1.00  0.00    -0.303 N 
HETATM   17  O2  UNL     1      19.868   0.249  53.460  1.00  0.00    -0.284 OA
HETATM   18  H13 UNL     1      19.705  -0.525  55.204  1.00  0.00     0.187 HD
HETATM   19  C11 UNL     1      19.445   0.273  52.228  1.00  0.00     0.217 C 
HETATM   20  C12 UNL     1      20.159   1.502  51.551  1.00  0.00     0.149 C 
BRANCH  20  21
HETATM   21  C13 UNL     1      19.640   2.685  52.292  1.00  0.00     0.365 C 
HETATM   22  F2  UNL     1      20.306   3.851  52.013  1.00  0.00    -0.214 F 
HETATM   23  F3  UNL     1      18.329   2.857  51.886  1.00  0.00    -0.214 F 
ENDBRANCH  20  21
ENDBRANCH   4  10
BRANCH   1  24
HETATM   24  N2  UNL     1      25.976   4.829  50.205  1.00  0.00    -0.187 N 
HETATM   25  H5  UNL     1      26.873   4.415  50.570  1.00  0.00     0.184 HD
BRANCH  24  26
HETATM   26  C3  UNL     1      26.009   6.153  49.694  1.00  0.00     0.085 A 
HETATM   27  C2  UNL     1      26.606   6.567  48.502  1.00  0.00     0.143 A 
HETATM   28  N1  UNL     1      26.434   7.891  48.348  1.00  0.00    -0.283 N 
HETATM   29  C1  UNL     1      26.904   8.718  47.235  1.00  0.00     0.179 C 
HETATM   30  N6  UNL     1      25.752   8.356  49.386  1.00  0.00    -0.183 NA
HETATM   31  C16 UNL     1      25.489   7.322  50.205  1.00  0.00     0.170 A 
ENDBRANCH  24  26
ENDBRANCH   1  24
TORSDOF 4
ENDMDL
MODEL 4
REMARK VINA RESULT:      -7.7      2.133      2.553
REMARK  4 active torsions:
REMARK  status: ('A' for Active; 'I' for Inactive)
REMARK    1  A    between atoms: C3_4  and  N2_5 
REMARK    2  A    between atoms: N2_5  and  C4_6 
REMARK    3  A    between atoms: C6_9  and  C7_10 
REMARK    4  A    between atoms: C12_19  and  C13_20 
ROOT
HETATM    1  C4  UNL     1      25.317   2.771  53.341  1.00  0.00     0.704 C 
HETATM    2  N3  UNL     1      25.143   1.855  52.450  1.00  0.00    -0.076 NA
HETATM    3  C5  UNL     1      24.059   1.765  51.530  1.00  0.00     0.151 C 
HETATM    4  C6  UNL     1      23.091   2.593  51.171  1.00  0.00     0.050 C 
HETATM    5  C14 UNL     1      22.948   3.927  51.761  1.00  0.00     0.063 C 
HETATM    6 CL1  UNL     1      21.807   5.020  51.002  1.00  0.00    -0.082 Cl
HETATM    7  C15 UNL     1      23.552   4.488  52.809  1.00  0.00     0.130 C 
HETATM    8  N5  UNL     1      24.548   3.938  53.698  1.00  0.00    -0.198 N 
HETATM    9  H19 UNL     1      24.752   4.350  54.615  1.00  0.00     0.183 HD
ENDROOT
BRANCH   4  10
HETATM   10  C7  UNL     1      22.089   2.215  50.168  1.00  0.00     0.247 C 
HETATM   11  F1  UNL     1      21.957   0.807  50.276  1.00  0.00    -0.205 F 
HETATM   12  O1  UNL     1      20.862   2.761  50.386  1.00  0.00    -0.347 OA
HETATM   13  C8  UNL     1      20.051   2.284  51.376  1.00  0.00     0.173 C 
HETATM   14  C9  UNL     1      19.476   0.928  51.011  1.00  0.00     0.048 C 
HETATM   15  C10 UNL     1      18.600   1.043  49.775  1.00  0.00     0.148 C 
HETATM   16  N4  UNL     1      19.031   1.926  48.781  1.00  0.00    -0.303 N 
HETATM   17  O2  UNL     1      20.169   2.256  48.441  1.00  0.00    -0.284 OA
HETATM   18  H13 UNL     1      18.270   2.455  48.291  1.00  0.00     0.187 HD
HETATM   19  C11 UNL     1      21.246   1.663  48.010  1.00  0.00     0.217 C 
HETATM   20  C12 UNL     1      22.451   2.389  48.717  1.00  0.00     0.149 C 
BRANCH  20  21
HETATM   21  C13 UNL     1      22.394   3.785  48.202  1.00  0.00     0.365 C 
HETATM   22  F2  UNL     1      23.538   4.507  48.427  1.00  0.00    -0.214 F 
HETATM   23  F3  UNL     1      22.236   3.690  46.831  1.00  0.00    -0.214 F 
ENDBRANCH  20  21
ENDBRANCH   4  10
BRANCH   1  24
HETATM   24  N2  UNL     1      26.489   2.587  54.104  1.00  0.00    -0.187 N 
HETATM   25  H5  UNL     1      26.826   3.406  54.673  1.00  0.00     0.184 HD
BRANCH  24  26
HETATM   26  C3  UNL     1      27.237   1.380  54.159  1.00  0.00     0.085 A 
HETATM   27  C2  UNL     1      28.489   1.155  53.586  1.00  0.00     0.143 A 
HETATM   28  N1  UNL     1      28.883  -0.103  53.847  1.00  0.00    -0.283 N 
HETATM   29  C1  UNL     1      30.133  -0.741  53.429  1.00  0.00     0.179 C 
HETATM   30  N6  UNL     1      27.943  -0.705  54.564  1.00  0.00    -0.183 NA
HETATM   31  C16 UNL     1      26.945   0.175  54.759  1.00  0.00     0.170 A 
ENDBRANCH  24  26
ENDBRANCH   1  24
TORSDOF 4
ENDMDL
MODEL 5
REMARK VINA RESULT:      -7.7      2.808      4.266
REMARK  4 active torsions:
REMARK  status: ('A' for Active; 'I' for Inactive)
REMARK    1  A    between atoms: C3_4  and  N2_5 
REMARK    2  A    between atoms: N2_5  and  C4_6 
REMARK    3  A    between atoms: C6_9  and  C7_10 
REMARK    4  A    between atoms: C12_19  and  C13_20 
ROOT
HETATM    1  C4  UNL     1      24.098   0.394  52.721  1.00  0.00     0.704 C 
HETATM    2  N3  UNL     1      24.830   1.119  51.943  1.00  0.00    -0.076 NA
HETATM    3  C5  UNL     1      24.384   2.198  51.128  1.00  0.00     0.151 C 
HETATM    4  C6  UNL     1      23.254   2.884  51.051  1.00  0.00     0.050 C 
HETATM    5  C14 UNL     1      22.104   2.587  51.910  1.00  0.00     0.063 C 
HETATM    6 CL1  UNL     1      20.783   3.739  51.906  1.00  0.00    -0.082 Cl
HETATM    7  C15 UNL     1      21.867   1.562  52.730  1.00  0.00     0.130 C 
HETATM    8  N5  UNL     1      22.688   0.413  53.025  1.00  0.00    -0.198 N 
HETATM    9  H19 UNL     1      22.310  -0.436  53.460  1.00  0.00     0.183 HD
ENDROOT
BRANCH   4  10
HETATM   10  C7  UNL     1      23.081   3.974  50.086  1.00  0.00     0.247 C 
HETATM   11  F1  UNL     1      22.546   5.058  50.829  1.00  0.00    -0.205 F 
HETATM   12  O1  UNL     1      24.244   4.397  49.522  1.00  0.00    -0.347 OA
HETATM   13  C8  UNL     1      25.126   5.163  50.230  1.00  0.00     0.173 C 
HETATM   14  C9  UNL     1      24.604   6.576  50.412  1.00  0.00     0.048 C 
HETATM   15  C10 UNL     1      24.448   7.258  49.063  1.00  0.00     0.148 C 
HETATM   16  N4  UNL     1      23.999   6.462  48.007  1.00  0.00    -0.303 N 
HETATM   17  O2  UNL     1      23.241   5.491  48.001  1.00  0.00    -0.284 OA
HETATM   18  H13 UNL     1      24.431   6.670  47.074  1.00  0.00     0.187 HD
HETATM   19  C11 UNL     1      22.017   5.233  48.366  1.00  0.00     0.217 C 
HETATM   20  C12 UNL     1      22.051   3.793  49.003  1.00  0.00     0.149 C 
BRANCH  20  21
HETATM   21  C13 UNL     1      22.448   2.901  47.879  1.00  0.00     0.365 C 
HETATM   22  F2  UNL     1      22.414   1.567  48.189  1.00  0.00    -0.214 F 
HETATM   23  F3  UNL     1      21.523   3.109  46.870  1.00  0.00    -0.214 F 
ENDBRANCH  20  21
ENDBRANCH   4  10
BRANCH   1  24
HETATM   24  N2  UNL     1      24.831  -0.602  53.400  1.00  0.00    -0.187 N 
HETATM   25  H5  UNL     1      24.334  -1.508  53.605  1.00  0.00     0.184 HD
BRANCH  24  26
HETATM   26  C3  UNL     1      26.181  -0.468  53.820  1.00  0.00     0.085 A 
HETATM   27  C2  UNL     1      27.309  -0.935  53.144  1.00  0.00     0.143 A 
HETATM   28  N1  UNL     1      28.413  -0.623  53.843  1.00  0.00    -0.283 N 
HETATM   29  C1  UNL     1      29.800  -0.929  53.485  1.00  0.00     0.179 C 
HETATM   30  N6  UNL     1      28.053   0.025  54.942  1.00  0.00    -0.183 NA
HETATM   31  C16 UNL     1      26.712   0.126  54.943  1.00  0.00     0.170 A 
ENDBRANCH  24  26
ENDBRANCH   1  24
TORSDOF 4
ENDMDL
MODEL 6
REMARK VINA RESULT:      -7.7      2.448      3.092
REMARK  4 active torsions:
REMARK  status: ('A' for Active; 'I' for Inactive)
REMARK    1  A    between atoms: C3_4  and  N2_5 
REMARK    2  A    between atoms: N2_5  and  C4_6 
REMARK    3  A    between atoms: C6_9  and  C7_10 
REMARK    4  A    between atoms: C12_19  and  C13_20 
ROOT
HETATM    1  C4  UNL     1      25.053   1.346  51.957  1.00  0.00     0.704 C 
HETATM    2  N3  UNL     1      23.843   1.387  51.508  1.00  0.00    -0.076 NA
HETATM    3  C5  UNL     1      23.271   2.424  50.717  1.00  0.00     0.151 C 
HETATM    4  C6  UNL     1      23.770   3.467  50.071  1.00  0.00     0.050 C 
HETATM    5  C14 UNL     1      25.202   3.776  50.082  1.00  0.00     0.063 C 
HETATM    6 CL1  UNL     1      25.763   5.007  48.966  1.00  0.00    -0.082 Cl
HETATM    7  C15 UNL     1      26.199   3.274  50.810  1.00  0.00     0.130 C 
HETATM    8  N5  UNL     1      26.168   2.252  51.829  1.00  0.00    -0.198 N 
HETATM    9  H19 UNL     1      26.931   2.125  52.503  1.00  0.00     0.183 HD
ENDROOT
BRANCH   4  10
HETATM   10  C7  UNL     1      22.911   4.386  49.318  1.00  0.00     0.247 C 
HETATM   11  F1  UNL     1      23.617   4.673  48.122  1.00  0.00    -0.205 F 
HETATM   12  O1  UNL     1      21.710   3.852  48.968  1.00  0.00    -0.347 OA
HETATM   13  C8  UNL     1      21.619   2.939  47.956  1.00  0.00     0.173 C 
HETATM   14  C9  UNL     1      21.816   3.596  46.602  1.00  0.00     0.048 C 
HETATM   15  C10 UNL     1      20.716   4.612  46.346  1.00  0.00     0.148 C 
HETATM   16  N4  UNL     1      20.283   5.358  47.445  1.00  0.00    -0.303 N 
HETATM   17  O2  UNL     1      20.894   5.743  48.443  1.00  0.00    -0.284 OA
HETATM   18  H13 UNL     1      19.255   5.563  47.470  1.00  0.00     0.187 HD
HETATM   19  C11 UNL     1      21.943   6.472  48.698  1.00  0.00     0.217 C 
HETATM   20  C12 UNL     1      22.685   5.760  49.890  1.00  0.00     0.149 C 
BRANCH  20  21
HETATM   21  C13 UNL     1      21.722   5.837  51.023  1.00  0.00     0.365 C 
HETATM   22  F2  UNL     1      22.209   5.331  52.201  1.00  0.00    -0.214 F 
HETATM   23  F3  UNL     1      21.469   7.181  51.230  1.00  0.00    -0.214 F 
ENDBRANCH  20  21
ENDBRANCH   4  10
BRANCH   1  24
HETATM   24  N2  UNL     1      25.324   0.186  52.713  1.00  0.00    -0.187 N 
HETATM   25  H5  UNL     1      24.572  -0.549  52.750  1.00  0.00     0.184 HD
BRANCH  24  26
HETATM   26  C3  UNL     1      26.532  -0.055  53.418  1.00  0.00     0.085 A 
HETATM   27  C2  UNL     1      27.699  -0.615  52.895  1.00  0.00     0.143 A 
HETATM   28  N1  UNL     1      28.634  -0.687  53.858  1.00  0.00    -0.283 N 
HETATM   29  C1  UNL     1      29.996  -1.208  53.728  1.00  0.00     0.179 C 
HETATM   30  N6  UNL     1      28.127  -0.199  54.982  1.00  0.00    -0.183 NA
HETATM   31  C16 UNL     1      26.862   0.185  54.734  1.00  0.00     0.170 A 
ENDBRANCH  24  26
ENDBRANCH   1  24
TORSDOF 4
ENDMDL
MODEL 7
REMARK VINA RESULT:      -7.5      2.319      3.066
REMARK  4 active torsions:
REMARK  status: ('A' for Active; 'I' for Inactive)
REMARK    1  A    between atoms: C3_4  and  N2_5 
REMARK    2  A    between atoms: N2_5  and  C4_6 
REMARK    3  A    between atoms: C6_9  and  C7_10 
REMARK    4  A    between atoms: C12_19  and  C13_20 
ROOT
HETATM    1  C4  UNL     1      24.968   1.841  53.329  1.00  0.00     0.704 C 
HETATM    2  N3  UNL     1      24.570   2.881  52.676  1.00  0.00    -0.076 NA
HETATM    3  C5  UNL     1      23.471   2.941  51.773  1.00  0.00     0.151 C 
HETATM    4  C6  UNL     1      22.473   2.119  51.486  1.00  0.00     0.050 C 
HETATM    5  C14 UNL     1      22.330   0.814  52.136  1.00  0.00     0.063 C 
HETATM    6 CL1  UNL     1      20.825  -0.048  51.876  1.00  0.00    -0.082 Cl
HETATM    7  C15 UNL     1      23.163   0.132  52.923  1.00  0.00     0.130 C 
HETATM    8  N5  UNL     1      24.486   0.482  53.381  1.00  0.00    -0.198 N 
HETATM    9  H19 UNL     1      25.137  -0.213  53.761  1.00  0.00     0.183 HD
ENDROOT
BRANCH   4  10
HETATM   10  C7  UNL     1      21.460   2.462  50.482  1.00  0.00     0.247 C 
HETATM   11  F1  UNL     1      20.274   1.807  50.901  1.00  0.00    -0.205 F 
HETATM   12  O1  UNL     1      21.191   3.793  50.408  1.00  0.00    -0.347 OA
HETATM   13  C8  UNL     1      20.445   4.410  51.372  1.00  0.00     0.173 C 
HETATM   14  C9  UNL     1      18.981   4.022  51.267  1.00  0.00     0.048 C 
HETATM   15  C10 UNL     1      18.408   4.484  49.938  1.00  0.00     0.148 C 
HETATM   16  N4  UNL     1      19.251   4.395  48.827  1.00  0.00    -0.303 N 
HETATM   17  O2  UNL     1      20.151   3.595  48.565  1.00  0.00    -0.284 OA
HETATM   18  H13 UNL     1      19.163   5.177  48.134  1.00  0.00     0.187 HD
HETATM   19  C11 UNL     1      20.269   2.304  48.426  1.00  0.00     0.217 C 
HETATM   20  C12 UNL     1      21.645   1.923  49.089  1.00  0.00     0.149 C 
BRANCH  20  21
HETATM   21  C13 UNL     1      22.662   2.623  48.256  1.00  0.00     0.365 C 
HETATM   22  F2  UNL     1      23.918   2.633  48.806  1.00  0.00    -0.214 F 
HETATM   23  F3  UNL     1      22.744   1.921  47.067  1.00  0.00    -0.214 F 
ENDBRANCH  20  21
ENDBRANCH   4  10
BRANCH   1  24
HETATM   24  N2  UNL     1      26.089   2.096  54.147  1.00  0.00    -0.187 N 
HETATM   25  H5  UNL     1      25.933   2.688  55.003  1.00  0.00     0.184 HD
BRANCH  24  26
HETATM   26  C3  UNL     1      27.400   1.610  53.897  1.00  0.00     0.085 A 
HETATM   27  C2  UNL     1      27.827   0.286  54.002  1.00  0.00     0.143 A 
HETATM   28  N1  UNL     1      29.131   0.208  53.687  1.00  0.00    -0.283 N 
HETATM   29  C1  UNL     1      29.964  -0.997  53.670  1.00  0.00     0.179 C 
HETATM   30  N6  UNL     1      29.570   1.421  53.382  1.00  0.00    -0.183 NA
HETATM   31  C16 UNL     1      28.540   2.277  53.505  1.00  0.00     0.170 A 
ENDBRANCH  24  26
ENDBRANCH   1  24
TORSDOF 4
ENDMDL
MODEL 8
REMARK VINA RESULT:      -7.4      4.330      5.883
REMARK  4 active torsions:
REMARK  status: ('A' for Active; 'I' for Inactive)
REMARK    1  A    between atoms: C3_4  and  N2_5 
REMARK    2  A    between atoms: N2_5  and  C4_6 
REMARK    3  A    between atoms: C6_9  and  C7_10 
REMARK    4  A    between atoms: C12_19  and  C13_20 
ROOT
HETATM    1  C4  UNL     1      27.511   6.126  48.726  1.00  0.00     0.704 C 
HETATM    2  N3  UNL     1      27.196   4.879  48.628  1.00  0.00    -0.076 NA
HETATM    3  C5  UNL     1      26.177   4.204  49.359  1.00  0.00     0.151 C 
HETATM    4  C6  UNL     1      25.185   4.610  50.137  1.00  0.00     0.050 C 
HETATM    5  C14 UNL     1      24.953   6.027  50.425  1.00  0.00     0.063 C 
HETATM    6 CL1  UNL     1      23.452   6.445  51.230  1.00  0.00    -0.082 Cl
HETATM    7  C15 UNL     1      25.699   7.104  50.178  1.00  0.00     0.130 C 
HETATM    8  N5  UNL     1      26.989   7.199  49.537  1.00  0.00    -0.198 N 
HETATM    9  H19 UNL     1      27.588   8.027  49.629  1.00  0.00     0.183 HD
ENDROOT
BRANCH   4  10
HETATM   10  C7  UNL     1      24.268   3.657  50.771  1.00  0.00     0.247 C 
HETATM   11  F1  UNL     1      23.068   4.379  50.999  1.00  0.00    -0.205 F 
HETATM   12  O1  UNL     1      23.961   2.588  49.988  1.00  0.00    -0.347 OA
HETATM   13  C8  UNL     1      23.100   2.716  48.935  1.00  0.00     0.173 C 
HETATM   14  C9  UNL     1      21.669   2.883  49.412  1.00  0.00     0.048 C 
HETATM   15  C10 UNL     1      21.219   1.646  50.170  1.00  0.00     0.148 C 
HETATM   16  N4  UNL     1      22.173   1.026  50.981  1.00  0.00    -0.303 N 
HETATM   17  O2  UNL     1      23.121   1.500  51.609  1.00  0.00    -0.284 OA
HETATM   18  H13 UNL     1      22.128  -0.021  51.004  1.00  0.00     0.187 HD
HETATM   19  C11 UNL     1      23.297   2.394  52.541  1.00  0.00     0.217 C 
HETATM   20  C12 UNL     1      24.611   3.169  52.152  1.00  0.00     0.149 C 
BRANCH  20  21
HETATM   21  C13 UNL     1      25.683   2.137  52.223  1.00  0.00     0.365 C 
HETATM   22  F2  UNL     1      26.951   2.644  52.100  1.00  0.00    -0.214 F 
HETATM   23  F3  UNL     1      25.593   1.566  53.481  1.00  0.00    -0.214 F 
ENDBRANCH  20  21
ENDBRANCH   4  10
BRANCH   1  24
HETATM   24  N2  UNL     1      28.567   6.500  47.869  1.00  0.00    -0.187 N 
HETATM   25  H5  UNL     1      28.340   6.607  46.846  1.00  0.00     0.184 HD
BRANCH  24  26
HETATM   26  C3  UNL     1      29.901   6.745  48.288  1.00  0.00     0.085 A 
HETATM   27  C2  UNL     1      30.957   5.833  48.266  1.00  0.00     0.143 A 
HETATM   28  N1  UNL     1      32.070   6.422  48.737  1.00  0.00    -0.283 N 
HETATM   29  C1  UNL     1      33.395   5.815  48.880  1.00  0.00     0.179 C 
HETATM   30  N6  UNL     1      31.784   7.674  49.064  1.00  0.00    -0.183 NA
HETATM   31  C16 UNL     1      30.482   7.884  48.801  1.00  0.00     0.170 A 
ENDBRANCH  24  26
ENDBRANCH   1  24
TORSDOF 4
ENDMDL
MODEL 9
REMARK VINA RESULT:      -7.4      3.179      8.835
REMARK  4 active torsions:
REMARK  status: ('A' for Active; 'I' for Inactive)
REMARK    1  A    between atoms: C3_4  and  N2_5 
REMARK    2  A    between atoms: N2_5  and  C4_6 
REMARK    3  A    between atoms: C6_9  and  C7_10 
REMARK    4  A    between atoms: C12_19  and  C13_20 
ROOT
HETATM    1  C4  UNL     1      18.150   3.154  51.400  1.00  0.00     0.704 C 
HETATM    2  N3  UNL     1      19.051   3.409  52.288  1.00  0.00    -0.076 NA
HETATM    3  C5  UNL     1      20.310   2.759  52.426  1.00  0.00     0.151 C 
HETATM    4  C6  UNL     1      20.998   1.921  51.665  1.00  0.00     0.050 C 
HETATM    5  C14 UNL     1      20.491   1.447  50.375  1.00  0.00     0.063 C 
HETATM    6 CL1  UNL     1      21.611   0.575  49.346  1.00  0.00    -0.082 Cl
HETATM    7  C15 UNL     1      19.287   1.563  49.812  1.00  0.00     0.130 C 
HETATM    8  N5  UNL     1      18.096   2.203  50.317  1.00  0.00    -0.198 N 
HETATM    9  H19 UNL     1      17.165   2.012  49.930  1.00  0.00     0.183 HD
ENDROOT
BRANCH   4  10
HETATM   10  C7  UNL     1      22.306   1.404  52.080  1.00  0.00     0.247 C 
HETATM   11  F1  UNL     1      23.010   1.143  50.877  1.00  0.00    -0.205 F 
HETATM   12  O1  UNL     1      23.042   2.291  52.802  1.00  0.00    -0.347 OA
HETATM   13  C8  UNL     1      23.654   3.351  52.195  1.00  0.00     0.173 C 
HETATM   14  C9  UNL     1      24.848   2.900  51.374  1.00  0.00     0.048 C 
HETATM   15  C10 UNL     1      25.899   2.273  52.275  1.00  0.00     0.148 C 
HETATM   16  N4  UNL     1      25.431   1.498  53.339  1.00  0.00    -0.303 N 
HETATM   17  O2  UNL     1      24.419   0.803  53.440  1.00  0.00    -0.284 OA
HETATM   18  H13 UNL     1      25.984   1.575  54.227  1.00  0.00     0.187 HD
HETATM   19  C11 UNL     1      23.892  -0.213  52.815  1.00  0.00     0.217 C 
HETATM   20  C12 UNL     1      22.344   0.066  52.767  1.00  0.00     0.149 C 
BRANCH  20  21
HETATM   21  C13 UNL     1      21.923   0.062  54.195  1.00  0.00     0.365 C 
HETATM   22  F2  UNL     1      20.565   0.126  54.375  1.00  0.00    -0.214 F 
HETATM   23  F3  UNL     1      22.347  -1.145  54.724  1.00  0.00    -0.214 F 
ENDBRANCH  20  21
ENDBRANCH   4  10
BRANCH   1  24
HETATM   24  N2  UNL     1      17.006   3.969  51.521  1.00  0.00    -0.187 N 
HETATM   25  H5  UNL     1      17.051   4.929  51.090  1.00  0.00     0.184 HD
BRANCH  24  26
HETATM   26  C3  UNL     1      15.806   3.586  52.177  1.00  0.00     0.085 A 
HETATM   27  C2  UNL     1      14.957   4.420  52.907  1.00  0.00     0.143 A 
HETATM   28  N1  UNL     1      13.921   3.706  53.379  1.00  0.00    -0.283 N 
HETATM   29  C1  UNL     1      12.807   4.200  54.191  1.00  0.00     0.179 C 
HETATM   30  N6  UNL     1      14.058   2.446  52.988  1.00  0.00    -0.183 NA
HETATM   31  C16 UNL     1      15.188   2.358  52.264  1.00  0.00     0.170 A 
ENDBRANCH  24  26
ENDBRANCH   1  24
TORSDOF 4
ENDMDL
