MODEL 1
REMARK VINA RESULT:      -8.0      0.000      0.000
REMARK  8 active torsions:
REMARK  status: ('A' for Active; 'I' for Inactive)
REMARK    1  A    between atoms: O1_2  and  C2_3 
REMARK    2  A    between atoms: C7_8  and  N1_9 
REMARK    3  A    between atoms: N1_9  and  C8_10 
REMARK    4  A    between atoms: C8_10  and  C9_11 
REMARK    5  A    between atoms: C13_17  and  C14_18 
REMARK    6  A    between atoms: C14_18  and  N3_19 
REMARK    7  A    between atoms: N3_19  and  C15_20 
REMARK    8  A    between atoms: C18_23  and  N4_24 
ROOT
HETATM    1  C9  UNL     1      26.806   1.740  51.941  1.00  0.00    -0.041 C 
HETATM    2  C10 UNL     1      27.886   2.091  52.669  1.00  0.00     0.096 C 
HETATM    3  N2  UNL     1      28.498   1.377  53.761  1.00  0.00    -0.337 N 
HETATM    4  C11 UNL     1      27.850   0.131  54.091  1.00  0.00     0.222 C 
HETATM    5  O2  UNL     1      27.929  -0.257  55.297  1.00  0.00    -0.273 OA
HETATM    6  C12 UNL     1      27.191  -0.463  52.871  1.00  0.00     0.114 C 
HETATM    7  C13 UNL     1      26.131   0.461  52.339  1.00  0.00     0.044 C 
HETATM    8  H12 UNL     1      29.333   1.759  54.250  1.00  0.00     0.168 HD
ENDROOT
BRANCH   7   9
HETATM    9  C14 UNL     1      25.102   0.744  53.433  1.00  0.00     0.131 C 
BRANCH   9  10
HETATM   10  N3  UNL     1      24.400  -0.503  53.637  1.00  0.00    -0.374 N 
HETATM   11  H18 UNL     1      24.677  -1.442  54.025  1.00  0.00     0.161 HD
BRANCH  10  12
HETATM   12  C15 UNL     1      23.065  -0.323  53.190  1.00  0.00     0.123 A 
HETATM   13  C16 UNL     1      22.602   0.448  52.146  1.00  0.00     0.052 A 
HETATM   14  C17 UNL     1      21.262   0.517  51.843  1.00  0.00     0.034 A 
HETATM   15  C18 UNL     1      20.378  -0.209  52.611  1.00  0.00     0.048 A 
HETATM   16  C24 UNL     1      20.839  -0.990  53.667  1.00  0.00     0.148 A 
HETATM   17  N6  UNL     1      22.167  -1.024  53.925  1.00  0.00    -0.241 NA
BRANCH  15  18
HETATM   18  N4  UNL     1      18.988  -0.164  52.325  1.00  0.00    -0.376 N 
HETATM   19  C19 UNL     1      18.263   0.776  51.490  1.00  0.00     0.153 C 
HETATM   20  C20 UNL     1      17.308  -0.044  50.646  1.00  0.00     0.291 C 
HETATM   21  N5  UNL     1      16.197  -0.385  51.519  1.00  0.00     0.087 N 
HETATM   22  C21 UNL     1      15.150   0.612  51.473  1.00  0.00     0.310 C 
HETATM   23  C22 UNL     1      16.650  -0.682  52.851  1.00  0.00     0.291 C 
HETATM   24  C23 UNL     1      18.094  -1.137  52.896  1.00  0.00     0.153 C 
ENDBRANCH  15  18
ENDBRANCH  10  12
ENDBRANCH   9  10
ENDBRANCH   7   9
BRANCH   1  25
HETATM   25  C8  UNL     1      26.329   2.649  50.828  1.00  0.00     0.156 C 
BRANCH  25  26
HETATM   26  N1  UNL     1      25.036   3.169  51.023  1.00  0.00    -0.384 N 
HETATM   27  H8  UNL     1      25.572   3.920  51.570  1.00  0.00     0.160 HD
BRANCH  26  28
HETATM   28  C7  UNL     1      23.749   3.713  51.234  1.00  0.00     0.062 A 
HETATM   29  C2  UNL     1      23.004   3.603  50.045  1.00  0.00     0.094 A 
HETATM   30  C3  UNL     1      21.702   4.091  50.029  1.00  0.00     0.039 A 
HETATM   31  C4  UNL     1      21.244   4.649  51.201  1.00  0.00     0.003 A 
HETATM   32  C5  UNL     1      21.930   4.776  52.379  1.00  0.00     0.002 A 
HETATM   33  C6  UNL     1      23.214   4.287  52.367  1.00  0.00     0.032 A 
BRANCH  29  34
HETATM   34  O1  UNL     1      23.370   3.069  48.843  1.00  0.00    -0.354 OA
HETATM   35  C1  UNL     1      22.620   2.241  48.017  1.00  0.00     0.210 C 
ENDBRANCH  29  34
ENDBRANCH  26  28
ENDBRANCH  25  26
ENDBRANCH   1  25
TORSDOF 8
ENDMDL
MODEL 2
REMARK VINA RESULT:      -7.9      2.030      2.936
REMARK  8 active torsions:
REMARK  status: ('A' for Active; 'I' for Inactive)
REMARK    1  A    between atoms: O1_2  and  C2_3 
REMARK    2  A    between atoms: C7_8  and  N1_9 
REMARK    3  A    between atoms: N1_9  and  C8_10 
REMARK    4  A    between atoms: C8_10  and  C9_11 
REMARK    5  A    between atoms: C13_17  and  C14_18 
REMARK    6  A    between atoms: C14_18  and  N3_19 
REMARK    7  A    between atoms: N3_19  and  C15_20 
REMARK    8  A    between atoms: C18_23  and  N4_24 
ROOT
HETATM    1  C9  UNL     1      26.227   1.794  51.650  1.00  0.00    -0.041 C 
HETATM    2  C10 UNL     1      27.299   2.461  52.125  1.00  0.00     0.096 C 
HETATM    3  N2  UNL     1      28.200   2.069  53.180  1.00  0.00    -0.337 N 
HETATM    4  C11 UNL     1      27.890   0.795  53.781  1.00  0.00     0.222 C 
HETATM    5  O2  UNL     1      28.223   0.635  54.995  1.00  0.00    -0.273 OA
HETATM    6  C12 UNL     1      27.207  -0.109  52.785  1.00  0.00     0.114 C 
HETATM    7  C13 UNL     1      25.908   0.494  52.328  1.00  0.00     0.044 C 
HETATM    8  H12 UNL     1      28.995   2.680  53.461  1.00  0.00     0.168 HD
ENDROOT
BRANCH   7   9
HETATM    9  C14 UNL     1      25.009   0.753  53.536  1.00  0.00     0.131 C 
BRANCH   9  10
HETATM   10  N3  UNL     1      24.535  -0.547  53.953  1.00  0.00    -0.374 N 
HETATM   11  H18 UNL     1      25.002  -1.401  54.354  1.00  0.00     0.161 HD
BRANCH  10  12
HETATM   12  C15 UNL     1      23.132  -0.582  53.737  1.00  0.00     0.123 A 
HETATM   13  C16 UNL     1      22.163  -1.230  54.470  1.00  0.00     0.052 A 
HETATM   14  C17 UNL     1      20.834  -1.165  54.121  1.00  0.00     0.034 A 
HETATM   15  C18 UNL     1      20.484  -0.430  53.010  1.00  0.00     0.048 A 
HETATM   16  C24 UNL     1      21.458   0.227  52.264  1.00  0.00     0.148 A 
HETATM   17  N6  UNL     1      22.751   0.132  52.649  1.00  0.00    -0.241 NA
BRANCH  15  18
HETATM   18  N4  UNL     1      19.122  -0.339  52.621  1.00  0.00    -0.376 N 
HETATM   19  C19 UNL     1      18.481   0.663  51.787  1.00  0.00     0.153 C 
HETATM   20  C20 UNL     1      17.581  -0.089  50.825  1.00  0.00     0.291 C 
HETATM   21  N5  UNL     1      16.399  -0.454  51.589  1.00  0.00     0.087 N 
HETATM   22  C21 UNL     1      15.376   0.566  51.519  1.00  0.00     0.310 C 
HETATM   23  C22 UNL     1      16.741  -0.835  52.932  1.00  0.00     0.291 C 
HETATM   24  C23 UNL     1      18.168  -1.322  53.063  1.00  0.00     0.153 C 
ENDBRANCH  15  18
ENDBRANCH  10  12
ENDBRANCH   9  10
ENDBRANCH   7   9
BRANCH   1  25
HETATM   25  C8  UNL     1      25.411   2.397  50.527  1.00  0.00     0.156 C 
BRANCH  25  26
HETATM   26  N1  UNL     1      26.009   3.515  49.917  1.00  0.00    -0.384 N 
HETATM   27  H8  UNL     1      26.716   3.397  50.714  1.00  0.00     0.160 HD
BRANCH  26  28
HETATM   28  C7  UNL     1      26.629   4.637  49.324  1.00  0.00     0.062 A 
HETATM   29  C2  UNL     1      25.781   5.753  49.454  1.00  0.00     0.094 A 
HETATM   30  C3  UNL     1      26.197   6.970  48.925  1.00  0.00     0.039 A 
HETATM   31  C4  UNL     1      27.428   6.979  48.309  1.00  0.00     0.003 A 
HETATM   32  C5  UNL     1      28.285   5.922  48.160  1.00  0.00     0.002 A 
HETATM   33  C6  UNL     1      27.849   4.732  48.690  1.00  0.00     0.032 A 
BRANCH  29  34
HETATM   34  O1  UNL     1      24.553   5.840  50.045  1.00  0.00    -0.354 OA
HETATM   35  C1  UNL     1      24.199   6.582  51.165  1.00  0.00     0.210 C 
ENDBRANCH  29  34
ENDBRANCH  26  28
ENDBRANCH  25  26
ENDBRANCH   1  25
TORSDOF 8
ENDMDL
MODEL 3
REMARK VINA RESULT:      -7.9      3.310      8.247
REMARK  8 active torsions:
REMARK  status: ('A' for Active; 'I' for Inactive)
REMARK    1  A    between atoms: O1_2  and  C2_3 
REMARK    2  A    between atoms: C7_8  and  N1_9 
REMARK    3  A    between atoms: N1_9  and  C8_10 
REMARK    4  A    between atoms: C8_10  and  C9_11 
REMARK    5  A    between atoms: C13_17  and  C14_18 
REMARK    6  A    between atoms: C14_18  and  N3_19 
REMARK    7  A    between atoms: N3_19  and  C15_20 
REMARK    8  A    between atoms: C18_23  and  N4_24 
ROOT
HETATM    1  C9  UNL     1      23.732   1.408  51.905  1.00  0.00    -0.041 C 
HETATM    2  C10 UNL     1      23.811   0.707  53.054  1.00  0.00     0.096 C 
HETATM    3  N2  UNL     1      22.750   0.044  53.771  1.00  0.00    -0.337 N 
HETATM    4  C11 UNL     1      21.453   0.163  53.153  1.00  0.00     0.222 C 
HETATM    5  O2  UNL     1      20.444   0.131  53.921  1.00  0.00    -0.273 OA
HETATM    6  C12 UNL     1      21.590   0.306  51.657  1.00  0.00     0.114 C 
HETATM    7  C13 UNL     1      22.362   1.549  51.313  1.00  0.00     0.044 C 
HETATM    8  H12 UNL     1      22.940  -0.465  54.659  1.00  0.00     0.168 HD
ENDROOT
BRANCH   7   9
HETATM    9  C14 UNL     1      21.665   2.768  51.916  1.00  0.00     0.131 C 
BRANCH   9  10
HETATM   10  N3  UNL     1      21.206   3.550  50.790  1.00  0.00    -0.374 N 
HETATM   11  H18 UNL     1      20.284   3.637  50.289  1.00  0.00     0.161 HD
BRANCH  10  12
HETATM   12  C15 UNL     1      22.301   4.330  50.334  1.00  0.00     0.123 A 
HETATM   13  C16 UNL     1      22.824   4.422  49.063  1.00  0.00     0.052 A 
HETATM   14  C17 UNL     1      23.901   5.231  48.786  1.00  0.00     0.034 A 
HETATM   15  C18 UNL     1      24.456   5.959  49.815  1.00  0.00     0.048 A 
HETATM   16  C24 UNL     1      23.933   5.871  51.102  1.00  0.00     0.148 A 
HETATM   17  N6  UNL     1      22.873   5.060  51.323  1.00  0.00    -0.241 NA
BRANCH  15  18
HETATM   18  N4  UNL     1      25.567   6.806  49.566  1.00  0.00    -0.376 N 
HETATM   19  C19 UNL     1      26.805   6.499  48.870  1.00  0.00     0.153 C 
HETATM   20  C20 UNL     1      27.082   7.670  47.948  1.00  0.00     0.291 C 
HETATM   21  N5  UNL     1      27.621   8.723  48.793  1.00  0.00     0.087 N 
HETATM   22  C21 UNL     1      29.063   8.649  48.894  1.00  0.00     0.310 C 
HETATM   23  C22 UNL     1      26.957   8.763  50.068  1.00  0.00     0.291 C 
HETATM   24  C23 UNL     1      25.564   8.170  50.027  1.00  0.00     0.153 C 
ENDBRANCH  15  18
ENDBRANCH  10  12
ENDBRANCH   9  10
ENDBRANCH   7   9
BRANCH   1  25
HETATM   25  C8  UNL     1      24.984   2.028  51.322  1.00  0.00     0.156 C 
BRANCH  25  26
HETATM   26  N1  UNL     1      26.155   1.760  52.055  1.00  0.00    -0.384 N 
HETATM   27  H8  UNL     1      25.539   0.999  52.493  1.00  0.00     0.160 HD
BRANCH  26  28
HETATM   28  C7  UNL     1      27.317   1.470  52.804  1.00  0.00     0.062 A 
HETATM   29  C2  UNL     1      27.530   0.078  52.802  1.00  0.00     0.094 A 
HETATM   30  C3  UNL     1      28.623  -0.428  53.496  1.00  0.00     0.039 A 
HETATM   31  C4  UNL     1      29.421   0.493  54.137  1.00  0.00     0.003 A 
HETATM   32  C5  UNL     1      29.254   1.852  54.165  1.00  0.00     0.002 A 
HETATM   33  C6  UNL     1      28.166   2.325  53.474  1.00  0.00     0.032 A 
BRANCH  29  34
HETATM   34  O1  UNL     1      26.800  -0.906  52.199  1.00  0.00    -0.354 OA
HETATM   35  C1  UNL     1      26.879  -2.276  52.413  1.00  0.00     0.210 C 
ENDBRANCH  29  34
ENDBRANCH  26  28
ENDBRANCH  25  26
ENDBRANCH   1  25
TORSDOF 8
ENDMDL
MODEL 4
REMARK VINA RESULT:      -7.9      3.763      8.398
REMARK  8 active torsions:
REMARK  status: ('A' for Active; 'I' for Inactive)
REMARK    1  A    between atoms: O1_2  and  C2_3 
REMARK    2  A    between atoms: C7_8  and  N1_9 
REMARK    3  A    between atoms: N1_9  and  C8_10 
REMARK    4  A    between atoms: C8_10  and  C9_11 
REMARK    5  A    between atoms: C13_17  and  C14_18 
REMARK    6  A    between atoms: C14_18  and  N3_19 
REMARK    7  A    between atoms: N3_19  and  C15_20 
REMARK    8  A    between atoms: C18_23  and  N4_24 
ROOT
HETATM    1  C9  UNL     1      24.400   0.292  53.242  1.00  0.00    -0.041 C 
HETATM    2  C10 UNL     1      25.572  -0.297  53.556  1.00  0.00     0.096 C 
HETATM    3  N2  UNL     1      26.889   0.288  53.575  1.00  0.00    -0.337 N 
HETATM    4  C11 UNL     1      26.923   1.683  53.210  1.00  0.00     0.222 C 
HETATM    5  O2  UNL     1      27.988   2.111  52.668  1.00  0.00    -0.273 OA
HETATM    6  C12 UNL     1      25.622   2.357  53.570  1.00  0.00     0.114 C 
HETATM    7  C13 UNL     1      24.477   1.731  52.824  1.00  0.00     0.044 C 
HETATM    8  H12 UNL     1      27.724  -0.278  53.832  1.00  0.00     0.168 HD
ENDROOT
BRANCH   7   9
HETATM    9  C14 UNL     1      24.737   1.815  51.321  1.00  0.00     0.131 C 
BRANCH   9  10
HETATM   10  N3  UNL     1      24.091   3.031  50.883  1.00  0.00    -0.374 N 
HETATM   11  H18 UNL     1      23.104   3.395  50.940  1.00  0.00     0.161 HD
BRANCH  10  12
HETATM   12  C15 UNL     1      25.075   3.838  50.254  1.00  0.00     0.123 A 
HETATM   13  C16 UNL     1      26.225   3.447  49.606  1.00  0.00     0.052 A 
HETATM   14  C17 UNL     1      27.083   4.366  49.048  1.00  0.00     0.034 A 
HETATM   15  C18 UNL     1      26.768   5.703  49.150  1.00  0.00     0.048 A 
HETATM   16  C24 UNL     1      25.608   6.106  49.804  1.00  0.00     0.148 A 
HETATM   17  N6  UNL     1      24.797   5.163  50.336  1.00  0.00    -0.241 NA
BRANCH  15  18
HETATM   18  N4  UNL     1      27.630   6.679  48.584  1.00  0.00    -0.376 N 
HETATM   19  C19 UNL     1      27.472   8.123  48.556  1.00  0.00     0.153 C 
HETATM   20  C20 UNL     1      28.821   8.711  48.919  1.00  0.00     0.291 C 
HETATM   21  N5  UNL     1      29.636   8.608  47.721  1.00  0.00     0.087 N 
HETATM   22  C21 UNL     1      29.515   9.781  46.883  1.00  0.00     0.310 C 
HETATM   23  C22 UNL     1      29.389   7.375  47.024  1.00  0.00     0.291 C 
HETATM   24  C23 UNL     1      28.847   6.285  47.925  1.00  0.00     0.153 C 
ENDBRANCH  15  18
ENDBRANCH  10  12
ENDBRANCH   9  10
ENDBRANCH   7   9
BRANCH   1  25
HETATM   25  C8  UNL     1      23.122  -0.519  53.287  1.00  0.00     0.156 C 
BRANCH  25  26
HETATM   26  N1  UNL     1      22.141  -0.100  52.369  1.00  0.00    -0.384 N 
HETATM   27  H8  UNL     1      21.711   0.344  53.245  1.00  0.00     0.160 HD
BRANCH  26  28
HETATM   28  C7  UNL     1      21.143   0.333  51.469  1.00  0.00     0.062 A 
HETATM   29  C2  UNL     1      19.877   0.045  52.013  1.00  0.00     0.094 A 
HETATM   30  C3  UNL     1      18.745   0.382  51.279  1.00  0.00     0.039 A 
HETATM   31  C4  UNL     1      18.964   0.981  50.059  1.00  0.00     0.003 A 
HETATM   32  C5  UNL     1      20.173   1.281  49.491  1.00  0.00     0.002 A 
HETATM   33  C6  UNL     1      21.275   0.937  50.236  1.00  0.00     0.032 A 
BRANCH  29  34
HETATM   34  O1  UNL     1      19.563  -0.541  53.206  1.00  0.00    -0.354 OA
HETATM   35  C1  UNL     1      18.459  -1.330  53.502  1.00  0.00     0.210 C 
ENDBRANCH  29  34
ENDBRANCH  26  28
ENDBRANCH  25  26
ENDBRANCH   1  25
TORSDOF 8
ENDMDL
MODEL 5
REMARK VINA RESULT:      -7.8      4.756     10.202
REMARK  8 active torsions:
REMARK  status: ('A' for Active; 'I' for Inactive)
REMARK    1  A    between atoms: O1_2  and  C2_3 
REMARK    2  A    between atoms: C7_8  and  N1_9 
REMARK    3  A    between atoms: N1_9  and  C8_10 
REMARK    4  A    between atoms: C8_10  and  C9_11 
REMARK    5  A    between atoms: C13_17  and  C14_18 
REMARK    6  A    between atoms: C14_18  and  N3_19 
REMARK    7  A    between atoms: N3_19  and  C15_20 
REMARK    8  A    between atoms: C18_23  and  N4_24 
ROOT
HETATM    1  C9  UNL     1      23.817   2.184  51.505  1.00  0.00    -0.041 C 
HETATM    2  C10 UNL     1      22.835   2.952  52.020  1.00  0.00     0.096 C 
HETATM    3  N2  UNL     1      22.247   4.144  51.462  1.00  0.00    -0.337 N 
HETATM    4  C11 UNL     1      22.800   4.537  50.190  1.00  0.00     0.222 C 
HETATM    5  O2  UNL     1      22.781   5.775  49.911  1.00  0.00    -0.273 OA
HETATM    6  C12 UNL     1      23.303   3.331  49.435  1.00  0.00     0.114 C 
HETATM    7  C13 UNL     1      24.399   2.646  50.202  1.00  0.00     0.044 C 
HETATM    8  H12 UNL     1      21.492   4.656  51.965  1.00  0.00     0.168 HD
ENDROOT
BRANCH   7   9
HETATM    9  C14 UNL     1      25.533   3.634  50.470  1.00  0.00     0.131 C 
BRANCH   9  10
HETATM   10  N3  UNL     1      26.471   3.450  49.386  1.00  0.00    -0.374 N 
HETATM   11  H18 UNL     1      26.827   2.608  48.862  1.00  0.00     0.161 HD
BRANCH  10  12
HETATM   12  C15 UNL     1      26.963   4.731  49.021  1.00  0.00     0.123 A 
HETATM   13  C16 UNL     1      26.305   5.941  49.030  1.00  0.00     0.052 A 
HETATM   14  C17 UNL     1      26.931   7.101  48.639  1.00  0.00     0.034 A 
HETATM   15  C18 UNL     1      28.245   7.033  48.232  1.00  0.00     0.048 A 
HETATM   16  C24 UNL     1      28.916   5.813  48.220  1.00  0.00     0.148 A 
HETATM   17  N6  UNL     1      28.256   4.700  48.614  1.00  0.00    -0.241 NA
BRANCH  15  18
HETATM   18  N4  UNL     1      28.924   8.211  47.823  1.00  0.00    -0.376 N 
HETATM   19  C19 UNL     1      28.877   8.886  46.538  1.00  0.00     0.153 C 
HETATM   20  C20 UNL     1      28.741  10.366  46.834  1.00  0.00     0.291 C 
HETATM   21  N5  UNL     1      30.068  10.820  47.214  1.00  0.00     0.087 N 
HETATM   22  C21 UNL     1      30.833  11.268  46.071  1.00  0.00     0.310 C 
HETATM   23  C22 UNL     1      30.749   9.837  48.012  1.00  0.00     0.291 C 
HETATM   24  C23 UNL     1      29.801   8.901  48.732  1.00  0.00     0.153 C 
ENDBRANCH  15  18
ENDBRANCH  10  12
ENDBRANCH   9  10
ENDBRANCH   7   9
BRANCH   1  25
HETATM   25  C8  UNL     1      24.287   0.964  52.268  1.00  0.00     0.156 C 
BRANCH  25  26
HETATM   26  N1  UNL     1      25.610   1.052  52.737  1.00  0.00    -0.384 N 
HETATM   27  H8  UNL     1      25.174   1.755  53.419  1.00  0.00     0.160 HD
BRANCH  26  28
HETATM   28  C7  UNL     1      26.931   1.159  53.227  1.00  0.00     0.062 A 
HETATM   29  C2  UNL     1      27.404  -0.125  53.557  1.00  0.00     0.094 A 
HETATM   30  C3  UNL     1      28.690  -0.248  54.072  1.00  0.00     0.039 A 
HETATM   31  C4  UNL     1      29.405   0.920  54.216  1.00  0.00     0.003 A 
HETATM   32  C5  UNL     1      28.987   2.187  53.909  1.00  0.00     0.002 A 
HETATM   33  C6  UNL     1      27.713   2.280  53.403  1.00  0.00     0.032 A 
BRANCH  29  34
HETATM   34  O1  UNL     1      26.774  -1.332  53.448  1.00  0.00    -0.354 OA
HETATM   35  C1  UNL     1      26.957  -2.302  52.470  1.00  0.00     0.210 C 
ENDBRANCH  29  34
ENDBRANCH  26  28
ENDBRANCH  25  26
ENDBRANCH   1  25
TORSDOF 8
ENDMDL
MODEL 6
REMARK VINA RESULT:      -7.7      2.656      8.036
REMARK  8 active torsions:
REMARK  status: ('A' for Active; 'I' for Inactive)
REMARK    1  A    between atoms: O1_2  and  C2_3 
REMARK    2  A    between atoms: C7_8  and  N1_9 
REMARK    3  A    between atoms: N1_9  and  C8_10 
REMARK    4  A    between atoms: C8_10  and  C9_11 
REMARK    5  A    between atoms: C13_17  and  C14_18 
REMARK    6  A    between atoms: C14_18  and  N3_19 
REMARK    7  A    between atoms: N3_19  and  C15_20 
REMARK    8  A    between atoms: C18_23  and  N4_24 
ROOT
HETATM    1  C9  UNL     1      21.191   2.628  49.256  1.00  0.00    -0.041 C 
HETATM    2  C10 UNL     1      19.857   2.757  49.109  1.00  0.00     0.096 C 
HETATM    3  N2  UNL     1      19.084   3.968  48.986  1.00  0.00    -0.337 N 
HETATM    4  C11 UNL     1      19.867   5.177  49.027  1.00  0.00     0.222 C 
HETATM    5  O2  UNL     1      19.299   6.217  49.480  1.00  0.00    -0.273 OA
HETATM    6  C12 UNL     1      21.257   4.927  48.495  1.00  0.00     0.114 C 
HETATM    7  C13 UNL     1      21.970   3.907  49.338  1.00  0.00     0.044 C 
HETATM    8  H12 UNL     1      18.048   3.934  48.882  1.00  0.00     0.168 HD
ENDROOT
BRANCH   7   9
HETATM    9  C14 UNL     1      22.019   4.385  50.789  1.00  0.00     0.131 C 
BRANCH   9  10
HETATM   10  N3  UNL     1      23.318   4.999  50.951  1.00  0.00    -0.374 N 
HETATM   11  H18 UNL     1      23.714   5.945  50.714  1.00  0.00     0.161 HD
BRANCH  10  12
HETATM   12  C15 UNL     1      24.168   4.046  51.571  1.00  0.00     0.123 A 
HETATM   13  C16 UNL     1      24.058   3.474  52.819  1.00  0.00     0.052 A 
HETATM   14  C17 UNL     1      24.979   2.559  53.274  1.00  0.00     0.034 A 
HETATM   15  C18 UNL     1      26.028   2.219  52.449  1.00  0.00     0.048 A 
HETATM   16  C24 UNL     1      26.146   2.793  51.186  1.00  0.00     0.148 A 
HETATM   17  N6  UNL     1      25.214   3.688  50.785  1.00  0.00    -0.241 NA
BRANCH  15  18
HETATM   18  N4  UNL     1      26.996   1.276  52.885  1.00  0.00    -0.376 N 
HETATM   19  C19 UNL     1      28.379   1.505  53.262  1.00  0.00     0.153 C 
HETATM   20  C20 UNL     1      28.617   0.711  54.531  1.00  0.00     0.291 C 
HETATM   21  N5  UNL     1      28.782  -0.671  54.113  1.00  0.00     0.087 N 
HETATM   22  C21 UNL     1      30.166  -0.987  53.831  1.00  0.00     0.310 C 
HETATM   23  C22 UNL     1      27.886  -1.003  53.039  1.00  0.00     0.291 C 
HETATM   24  C23 UNL     1      26.658  -0.118  52.999  1.00  0.00     0.153 C 
ENDBRANCH  15  18
ENDBRANCH  10  12
ENDBRANCH   9  10
ENDBRANCH   7   9
BRANCH   1  25
HETATM   25  C8  UNL     1      21.800   1.247  49.368  1.00  0.00     0.156 C 
BRANCH  25  26
HETATM   26  N1  UNL     1      21.818   0.729  50.676  1.00  0.00    -0.384 N 
HETATM   27  H8  UNL     1      22.476   1.560  50.845  1.00  0.00     0.160 HD
BRANCH  26  28
HETATM   28  C7  UNL     1      21.854   0.231  51.997  1.00  0.00     0.062 A 
HETATM   29  C2  UNL     1      20.549   0.232  52.524  1.00  0.00     0.094 A 
HETATM   30  C3  UNL     1      20.359  -0.215  53.828  1.00  0.00     0.039 A 
HETATM   31  C4  UNL     1      21.485  -0.628  54.503  1.00  0.00     0.003 A 
HETATM   32  C5  UNL     1      22.770  -0.648  54.032  1.00  0.00     0.002 A 
HETATM   33  C6  UNL     1      22.931  -0.201  52.743  1.00  0.00     0.032 A 
BRANCH  29  34
HETATM   34  O1  UNL     1      19.380   0.619  51.934  1.00  0.00    -0.354 OA
HETATM   35  C1  UNL     1      18.217  -0.125  51.783  1.00  0.00     0.210 C 
ENDBRANCH  29  34
ENDBRANCH  26  28
ENDBRANCH  25  26
ENDBRANCH   1  25
TORSDOF 8
ENDMDL
MODEL 7
REMARK VINA RESULT:      -7.7      4.480      9.588
REMARK  8 active torsions:
REMARK  status: ('A' for Active; 'I' for Inactive)
REMARK    1  A    between atoms: O1_2  and  C2_3 
REMARK    2  A    between atoms: C7_8  and  N1_9 
REMARK    3  A    between atoms: N1_9  and  C8_10 
REMARK    4  A    between atoms: C8_10  and  C9_11 
REMARK    5  A    between atoms: C13_17  and  C14_18 
REMARK    6  A    between atoms: C14_18  and  N3_19 
REMARK    7  A    between atoms: N3_19  and  C15_20 
REMARK    8  A    between atoms: C18_23  and  N4_24 
ROOT
HETATM    1  C9  UNL     1      23.404   3.337  51.849  1.00  0.00    -0.041 C 
HETATM    2  C10 UNL     1      22.153   3.840  51.828  1.00  0.00     0.096 C 
HETATM    3  N2  UNL     1      21.151   3.704  50.800  1.00  0.00    -0.337 N 
HETATM    4  C11 UNL     1      21.572   2.921  49.664  1.00  0.00     0.222 C 
HETATM    5  O2  UNL     1      21.042   3.200  48.545  1.00  0.00    -0.273 OA
HETATM    6  C12 UNL     1      22.598   1.895  50.078  1.00  0.00     0.114 C 
HETATM    7  C13 UNL     1      23.823   2.566  50.633  1.00  0.00     0.044 C 
HETATM    8  H12 UNL     1      20.216   4.149  50.900  1.00  0.00     0.168 HD
ENDROOT
BRANCH   7   9
HETATM    9  C14 UNL     1      24.399   3.525  49.592  1.00  0.00     0.131 C 
BRANCH   9  10
HETATM   10  N3  UNL     1      25.835   3.421  49.721  1.00  0.00    -0.374 N 
HETATM   11  H18 UNL     1      26.489   2.646  50.007  1.00  0.00     0.161 HD
BRANCH  10  12
HETATM   12  C15 UNL     1      26.390   4.679  49.367  1.00  0.00     0.123 A 
HETATM   13  C16 UNL     1      27.518   4.944  48.623  1.00  0.00     0.052 A 
HETATM   14  C17 UNL     1      27.926   6.233  48.371  1.00  0.00     0.034 A 
HETATM   15  C18 UNL     1      27.176   7.270  48.882  1.00  0.00     0.048 A 
HETATM   16  C24 UNL     1      26.035   7.009  49.635  1.00  0.00     0.148 A 
HETATM   17  N6  UNL     1      25.677   5.723  49.855  1.00  0.00    -0.241 NA
BRANCH  15  18
HETATM   18  N4  UNL     1      27.565   8.613  48.640  1.00  0.00    -0.376 N 
HETATM   19  C19 UNL     1      26.986   9.575  47.719  1.00  0.00     0.153 C 
HETATM   20  C20 UNL     1      26.873  10.883  48.476  1.00  0.00     0.291 C 
HETATM   21  N5  UNL     1      28.211  11.451  48.492  1.00  0.00     0.087 N 
HETATM   22  C21 UNL     1      28.449  12.303  47.347  1.00  0.00     0.310 C 
HETATM   23  C22 UNL     1      29.210  10.432  48.668  1.00  0.00     0.291 C 
HETATM   24  C23 UNL     1      28.674   9.192  49.352  1.00  0.00     0.153 C 
ENDBRANCH  15  18
ENDBRANCH  10  12
ENDBRANCH   9  10
ENDBRANCH   7   9
BRANCH   1  25
HETATM   25  C8  UNL     1      24.296   3.607  53.041  1.00  0.00     0.156 C 
BRANCH  25  26
HETATM   26  N1  UNL     1      25.396   2.736  53.147  1.00  0.00    -0.384 N 
HETATM   27  H8  UNL     1      25.926   3.582  52.757  1.00  0.00     0.160 HD
BRANCH  26  28
HETATM   28  C7  UNL     1      26.517   1.882  53.243  1.00  0.00     0.062 A 
HETATM   29  C2  UNL     1      26.097   0.550  53.069  1.00  0.00     0.094 A 
HETATM   30  C3  UNL     1      27.048  -0.462  53.137  1.00  0.00     0.039 A 
HETATM   31  C4  UNL     1      28.346  -0.067  53.372  1.00  0.00     0.003 A 
HETATM   32  C5  UNL     1      28.800   1.213  53.546  1.00  0.00     0.002 A 
HETATM   33  C6  UNL     1      27.840   2.193  53.476  1.00  0.00     0.032 A 
BRANCH  29  34
HETATM   34  O1  UNL     1      24.843   0.065  52.831  1.00  0.00    -0.354 OA
HETATM   35  C1  UNL     1      23.995  -0.575  53.727  1.00  0.00     0.210 C 
ENDBRANCH  29  34
ENDBRANCH  26  28
ENDBRANCH  25  26
ENDBRANCH   1  25
TORSDOF 8
ENDMDL
MODEL 8
REMARK VINA RESULT:      -7.6      5.054     10.513
REMARK  8 active torsions:
REMARK  status: ('A' for Active; 'I' for Inactive)
REMARK    1  A    between atoms: O1_2  and  C2_3 
REMARK    2  A    between atoms: C7_8  and  N1_9 
REMARK    3  A    between atoms: N1_9  and  C8_10 
REMARK    4  A    between atoms: C8_10  and  C9_11 
REMARK    5  A    between atoms: C13_17  and  C14_18 
REMARK    6  A    between atoms: C14_18  and  N3_19 
REMARK    7  A    between atoms: N3_19  and  C15_20 
REMARK    8  A    between atoms: C18_23  and  N4_24 
ROOT
HETATM    1  C9  UNL     1      23.060   3.712  50.918  1.00  0.00    -0.041 C 
HETATM    2  C10 UNL     1      22.538   4.554  51.833  1.00  0.00     0.096 C 
HETATM    3  N2  UNL     1      22.625   5.992  51.876  1.00  0.00    -0.337 N 
HETATM    4  C11 UNL     1      23.370   6.574  50.787  1.00  0.00     0.222 C 
HETATM    5  O2  UNL     1      23.961   7.673  51.015  1.00  0.00    -0.273 OA
HETATM    6  C12 UNL     1      23.276   5.704  49.557  1.00  0.00     0.114 C 
HETATM    7  C13 UNL     1      23.865   4.347  49.823  1.00  0.00     0.044 C 
HETATM    8  H12 UNL     1      22.179   6.533  52.646  1.00  0.00     0.168 HD
ENDROOT
BRANCH   7   9
HETATM    9  C14 UNL     1      25.317   4.498  50.276  1.00  0.00     0.131 C 
BRANCH   9  10
HETATM   10  N3  UNL     1      26.120   4.103  49.141  1.00  0.00    -0.374 N 
HETATM   11  H18 UNL     1      26.167   3.237  48.545  1.00  0.00     0.161 HD
BRANCH  10  12
HETATM   12  C15 UNL     1      27.001   5.177  48.844  1.00  0.00     0.123 A 
HETATM   13  C16 UNL     1      26.730   6.527  48.798  1.00  0.00     0.052 A 
HETATM   14  C17 UNL     1      27.705   7.445  48.488  1.00  0.00     0.034 A 
HETATM   15  C18 UNL     1      28.976   6.986  48.222  1.00  0.00     0.048 A 
HETATM   16  C24 UNL     1      29.258   5.624  48.266  1.00  0.00     0.148 A 
HETATM   17  N6  UNL     1      28.263   4.761  48.575  1.00  0.00    -0.241 NA
BRANCH  15  18
HETATM   18  N4  UNL     1      30.009   7.906  47.900  1.00  0.00    -0.376 N 
HETATM   19  C19 UNL     1      29.955   9.061  47.021  1.00  0.00     0.153 C 
HETATM   20  C20 UNL     1      30.659  10.189  47.748  1.00  0.00     0.291 C 
HETATM   21  N5  UNL     1      32.082   9.931  47.600  1.00  0.00     0.087 N 
HETATM   22  C21 UNL     1      32.623  10.555  46.412  1.00  0.00     0.310 C 
HETATM   23  C22 UNL     1      32.372   8.526  47.694  1.00  0.00     0.291 C 
HETATM   24  C23 UNL     1      31.323   7.757  48.469  1.00  0.00     0.153 C 
ENDBRANCH  15  18
ENDBRANCH  10  12
ENDBRANCH   9  10
ENDBRANCH   7   9
BRANCH   1  25
HETATM   25  C8  UNL     1      22.846   2.221  51.068  1.00  0.00     0.156 C 
BRANCH  25  26
HETATM   26  N1  UNL     1      23.931   1.538  51.645  1.00  0.00    -0.384 N 
HETATM   27  H8  UNL     1      23.901   0.995  50.721  1.00  0.00     0.160 HD
BRANCH  26  28
HETATM   28  C7  UNL     1      25.023   0.835  52.202  1.00  0.00     0.062 A 
HETATM   29  C2  UNL     1      24.561   0.028  53.258  1.00  0.00     0.094 A 
HETATM   30  C3  UNL     1      25.482  -0.746  53.956  1.00  0.00     0.039 A 
HETATM   31  C4  UNL     1      26.792  -0.655  53.545  1.00  0.00     0.003 A 
HETATM   32  C5  UNL     1      27.287   0.113  52.525  1.00  0.00     0.002 A 
HETATM   33  C6  UNL     1      26.357   0.868  51.853  1.00  0.00     0.032 A 
BRANCH  29  34
HETATM   34  O1  UNL     1      23.290  -0.126  53.734  1.00  0.00    -0.354 OA
HETATM   35  C1  UNL     1      22.359  -1.092  53.373  1.00  0.00     0.210 C 
ENDBRANCH  29  34
ENDBRANCH  26  28
ENDBRANCH  25  26
ENDBRANCH   1  25
TORSDOF 8
ENDMDL
MODEL 9
REMARK VINA RESULT:      -7.5      4.917     10.595
REMARK  8 active torsions:
REMARK  status: ('A' for Active; 'I' for Inactive)
REMARK    1  A    between atoms: O1_2  and  C2_3 
REMARK    2  A    between atoms: C7_8  and  N1_9 
REMARK    3  A    between atoms: N1_9  and  C8_10 
REMARK    4  A    between atoms: C8_10  and  C9_11 
REMARK    5  A    between atoms: C13_17  and  C14_18 
REMARK    6  A    between atoms: C14_18  and  N3_19 
REMARK    7  A    between atoms: N3_19  and  C15_20 
REMARK    8  A    between atoms: C18_23  and  N4_24 
ROOT
HETATM    1  C9  UNL     1      24.179   3.134  51.913  1.00  0.00    -0.041 C 
HETATM    2  C10 UNL     1      23.159   4.011  51.818  1.00  0.00     0.096 C 
HETATM    3  N2  UNL     1      22.674   4.695  50.645  1.00  0.00    -0.337 N 
HETATM    4  C11 UNL     1      23.390   4.376  49.435  1.00  0.00     0.222 C 
HETATM    5  O2  UNL     1      23.435   5.273  48.539  1.00  0.00    -0.273 OA
HETATM    6  C12 UNL     1      23.955   2.979  49.506  1.00  0.00     0.114 C 
HETATM    7  C13 UNL     1      24.930   2.859  50.644  1.00  0.00     0.044 C 
HETATM    8  H12 UNL     1      21.874   5.358  50.704  1.00  0.00     0.168 HD
ENDROOT
BRANCH   7   9
HETATM    9  C14 UNL     1      26.045   3.891  50.475  1.00  0.00     0.131 C 
BRANCH   9  10
HETATM   10  N3  UNL     1      26.510   3.739  49.115  1.00  0.00    -0.374 N 
HETATM   11  H18 UNL     1      26.431   2.973  48.396  1.00  0.00     0.161 HD
BRANCH  10  12
HETATM   12  C15 UNL     1      27.208   4.925  48.765  1.00  0.00     0.123 A 
HETATM   13  C16 UNL     1      26.715   6.201  48.606  1.00  0.00     0.052 A 
HETATM   14  C17 UNL     1      27.534   7.250  48.258  1.00  0.00     0.034 A 
HETATM   15  C18 UNL     1      28.875   7.000  48.069  1.00  0.00     0.048 A 
HETATM   16  C24 UNL     1      29.381   5.713  48.228  1.00  0.00     0.148 A 
HETATM   17  N6  UNL     1      28.533   4.715  48.570  1.00  0.00    -0.241 NA
BRANCH  15  18
HETATM   18  N4  UNL     1      29.750   8.059  47.712  1.00  0.00    -0.376 N 
HETATM   19  C19 UNL     1      30.528   8.926  48.579  1.00  0.00     0.153 C 
HETATM   20  C20 UNL     1      31.911   9.022  47.966  1.00  0.00     0.291 C 
HETATM   21  N5  UNL     1      31.791   9.955  46.858  1.00  0.00     0.087 N 
HETATM   22  C21 UNL     1      32.041  11.319  47.271  1.00  0.00     0.310 C 
HETATM   23  C22 UNL     1      30.545   9.784  46.161  1.00  0.00     0.291 C 
HETATM   24  C23 UNL     1      29.960   8.397  46.329  1.00  0.00     0.153 C 
ENDBRANCH  15  18
ENDBRANCH  10  12
ENDBRANCH   9  10
ENDBRANCH   7   9
BRANCH   1  25
HETATM   25  C8  UNL     1      24.522   2.531  53.258  1.00  0.00     0.156 C 
BRANCH  25  26
HETATM   26  N1  UNL     1      25.357   1.401  53.187  1.00  0.00    -0.384 N 
HETATM   27  H8  UNL     1      25.397   1.669  52.150  1.00  0.00     0.160 HD
BRANCH  26  28
HETATM   28  C7  UNL     1      26.199   0.271  53.088  1.00  0.00     0.062 A 
HETATM   29  C2  UNL     1      27.464   0.593  53.616  1.00  0.00     0.094 A 
HETATM   30  C3  UNL     1      28.456  -0.382  53.607  1.00  0.00     0.039 A 
HETATM   31  C4  UNL     1      28.108  -1.603  53.074  1.00  0.00     0.003 A 
HETATM   32  C5  UNL     1      26.894  -1.961  52.552  1.00  0.00     0.002 A 
HETATM   33  C6  UNL     1      25.933  -0.979  52.572  1.00  0.00     0.032 A 
BRANCH  29  34
HETATM   34  O1  UNL     1      27.898   1.766  54.163  1.00  0.00    -0.354 OA
HETATM   35  C1  UNL     1      28.948   2.567  53.734  1.00  0.00     0.210 C 
ENDBRANCH  29  34
ENDBRANCH  26  28
ENDBRANCH  25  26
ENDBRANCH   1  25
TORSDOF 8
ENDMDL
