MODEL 1
REMARK VINA RESULT:      -7.3      0.000      0.000
REMARK  8 active torsions:
REMARK  status: ('A' for Active; 'I' for Inactive)
REMARK    1  A    between atoms: O1_2  and  C2_3 
REMARK    2  A    between atoms: C3_4  and  C4_5 
REMARK    3  A    between atoms: C6_7  and  O2_8 
REMARK    4  A    between atoms: O2_8  and  C7_9 
REMARK    5  A    between atoms: C10_12  and  N1_13 
REMARK       I    between atoms: N1_13  and  C11_14 
REMARK       I    between atoms: C11_14  and  N2_16 
REMARK    6  A    between atoms: N2_16  and  C12_17 
REMARK    7  A    between atoms: C13_18  and  C14_19 
REMARK    8  A    between atoms: C15_20  and  C16_21 
ROOT
HETATM    1  C7  UNL     1      22.566   2.498  51.365  1.00  0.00     0.078 A 
HETATM    2  C8  UNL     1      22.855   2.302  50.037  1.00  0.00     0.039 A 
HETATM    3  C9  UNL     1      23.743   3.071  49.338  1.00  0.00     0.032 A 
HETATM    4  C10 UNL     1      24.398   4.099  49.961  1.00  0.00     0.036 A 
HETATM    5  C17 UNL     1      24.136   4.335  51.315  1.00  0.00     0.032 A 
HETATM    6  C18 UNL     1      23.222   3.537  52.014  1.00  0.00     0.039 A 
ENDROOT
BRANCH   4   7
HETATM    7  N1  UNL     1      25.347   4.988  49.374  1.00  0.00    -0.309 N 
HETATM    8  C11 UNL     1      26.687   4.539  49.218  1.00  0.00     0.324 C 
HETATM    9  O3  UNL     1      27.058   3.392  49.575  1.00  0.00    -0.247 OA
HETATM   10  N2  UNL     1      27.555   5.491  48.628  1.00  0.00    -0.319 N 
HETATM   11  H10 UNL     1      27.255   6.456  48.325  1.00  0.00     0.170 HD
HETATM   12  H9  UNL     1      25.001   5.930  49.089  1.00  0.00     0.170 HD
BRANCH  10  13
HETATM   13  C12 UNL     1      28.939   5.427  48.308  1.00  0.00     0.092 C 
HETATM   14  C13 UNL     1      29.651   6.476  47.882  1.00  0.00     0.017 C 
BRANCH  14  15
HETATM   15  C14 UNL     1      28.997   7.763  47.727  1.00  0.00    -0.000 C 
HETATM   16  C15 UNL     1      29.429   8.837  48.327  1.00  0.00     0.004 C 
BRANCH  16  17
HETATM   17  C16 UNL     1      30.591   8.983  49.228  1.00  0.00     0.249 C 
HETATM   18  F1  UNL     1      30.585  10.238  49.846  1.00  0.00    -0.251 F 
ENDBRANCH  16  17
ENDBRANCH  14  15
ENDBRANCH  10  13
ENDBRANCH   4   7
BRANCH   1  19
HETATM   19  O2  UNL     1      21.711   1.817  52.183  1.00  0.00    -0.292 OA
BRANCH  19  20
HETATM   20  C6  UNL     1      22.078   0.861  53.098  1.00  0.00     0.173 A 
HETATM   21  C5  UNL     1      23.392   0.456  53.200  1.00  0.00     0.090 A 
HETATM   22  C4  UNL     1      23.851  -0.487  54.080  1.00  0.00     0.064 A 
HETATM   23  N4  UNL     1      22.928  -1.037  54.888  1.00  0.00    -0.242 NA
HETATM   24  C19 UNL     1      21.653  -0.678  54.825  1.00  0.00     0.236 A 
HETATM   25  N3  UNL     1      21.216   0.251  53.954  1.00  0.00    -0.217 NA
BRANCH  22  26
HETATM   26  C3  UNL     1      25.235  -0.915  54.192  1.00  0.00     0.055 C 
HETATM   27  C2  UNL     1      26.248  -0.101  54.420  1.00  0.00     0.136 C 
BRANCH  27  28
HETATM   28  O1  UNL     1      26.426   1.254  54.616  1.00  0.00    -0.368 OA
HETATM   29  C1  UNL     1      26.748   2.171  53.594  1.00  0.00     0.208 C 
ENDBRANCH  27  28
ENDBRANCH  22  26
ENDBRANCH  19  20
ENDBRANCH   1  19
TORSDOF 8
ENDMDL
MODEL 2
REMARK VINA RESULT:      -7.3      3.323      9.075
REMARK  8 active torsions:
REMARK  status: ('A' for Active; 'I' for Inactive)
REMARK    1  A    between atoms: O1_2  and  C2_3 
REMARK    2  A    between atoms: C3_4  and  C4_5 
REMARK    3  A    between atoms: C6_7  and  O2_8 
REMARK    4  A    between atoms: O2_8  and  C7_9 
REMARK    5  A    between atoms: C10_12  and  N1_13 
REMARK       I    between atoms: N1_13  and  C11_14 
REMARK       I    between atoms: C11_14  and  N2_16 
REMARK    6  A    between atoms: N2_16  and  C12_17 
REMARK    7  A    between atoms: C13_18  and  C14_19 
REMARK    8  A    between atoms: C15_20  and  C16_21 
ROOT
HETATM    1  C7  UNL     1      26.658   5.762  48.588  1.00  0.00     0.078 A 
HETATM    2  C8  UNL     1      27.353   4.603  48.829  1.00  0.00     0.039 A 
HETATM    3  C9  UNL     1      26.805   3.508  49.438  1.00  0.00     0.032 A 
HETATM    4  C10 UNL     1      25.497   3.534  49.842  1.00  0.00     0.036 A 
HETATM    5  C17 UNL     1      24.749   4.695  49.616  1.00  0.00     0.032 A 
HETATM    6  C18 UNL     1      25.329   5.806  48.991  1.00  0.00     0.039 A 
ENDROOT
BRANCH   4   7
HETATM    7  N1  UNL     1      24.781   2.482  50.488  1.00  0.00    -0.309 N 
HETATM    8  C11 UNL     1      25.208   2.068  51.780  1.00  0.00     0.324 C 
HETATM    9  O3  UNL     1      26.186   2.597  52.366  1.00  0.00    -0.247 OA
HETATM   10  N2  UNL     1      24.438   1.017  52.339  1.00  0.00    -0.319 N 
HETATM   11  H10 UNL     1      23.616   0.567  51.856  1.00  0.00     0.170 HD
HETATM   12  H9  UNL     1      23.975   2.069  49.971  1.00  0.00     0.170 HD
BRANCH  10  13
HETATM   13  C12 UNL     1      24.542   0.339  53.584  1.00  0.00     0.092 C 
HETATM   14  C13 UNL     1      25.413  -0.648  53.820  1.00  0.00     0.017 C 
BRANCH  14  15
HETATM   15  C14 UNL     1      26.314  -1.069  52.762  1.00  0.00    -0.000 C 
HETATM   16  C15 UNL     1      27.600  -0.863  52.822  1.00  0.00     0.004 C 
BRANCH  16  17
HETATM   17  C16 UNL     1      28.377  -0.208  53.894  1.00  0.00     0.249 C 
HETATM   18  F1  UNL     1      29.745  -0.449  53.733  1.00  0.00    -0.251 F 
ENDBRANCH  16  17
ENDBRANCH  14  15
ENDBRANCH  10  13
ENDBRANCH   4   7
BRANCH   1  19
HETATM   19  O2  UNL     1      27.072   6.921  47.996  1.00  0.00    -0.292 OA
BRANCH  19  20
HETATM   20  C6  UNL     1      28.151   7.674  48.389  1.00  0.00     0.173 A 
HETATM   21  C5  UNL     1      29.414   7.390  47.913  1.00  0.00     0.090 A 
HETATM   22  C4  UNL     1      30.547   8.083  48.246  1.00  0.00     0.064 A 
HETATM   23  N4  UNL     1      30.380   9.107  49.100  1.00  0.00    -0.242 NA
HETATM   24  C19 UNL     1      29.185   9.416  49.584  1.00  0.00     0.236 A 
HETATM   25  N3  UNL     1      28.079   8.726  49.247  1.00  0.00    -0.217 NA
BRANCH  22  26
HETATM   26  C3  UNL     1      31.878   7.789  47.745  1.00  0.00     0.055 C 
HETATM   27  C2  UNL     1      32.495   6.633  47.909  1.00  0.00     0.136 C 
BRANCH  27  28
HETATM   28  O1  UNL     1      32.218   5.421  48.508  1.00  0.00    -0.368 OA
HETATM   29  C1  UNL     1      32.388   4.167  47.885  1.00  0.00     0.208 C 
ENDBRANCH  27  28
ENDBRANCH  22  26
ENDBRANCH  19  20
ENDBRANCH   1  19
TORSDOF 8
ENDMDL
MODEL 3
REMARK VINA RESULT:      -7.2      4.133     10.080
REMARK  8 active torsions:
REMARK  status: ('A' for Active; 'I' for Inactive)
REMARK    1  A    between atoms: O1_2  and  C2_3 
REMARK    2  A    between atoms: C3_4  and  C4_5 
REMARK    3  A    between atoms: C6_7  and  O2_8 
REMARK    4  A    between atoms: O2_8  and  C7_9 
REMARK    5  A    between atoms: C10_12  and  N1_13 
REMARK       I    between atoms: N1_13  and  C11_14 
REMARK       I    between atoms: C11_14  and  N2_16 
REMARK    6  A    between atoms: N2_16  and  C12_17 
REMARK    7  A    between atoms: C13_18  and  C14_19 
REMARK    8  A    between atoms: C15_20  and  C16_21 
ROOT
HETATM    1  C7  UNL     1      27.241   6.221  48.449  1.00  0.00     0.078 A 
HETATM    2  C8  UNL     1      26.158   6.680  49.158  1.00  0.00     0.039 A 
HETATM    3  C9  UNL     1      25.421   5.894  49.999  1.00  0.00     0.032 A 
HETATM    4  C10 UNL     1      25.750   4.576  50.169  1.00  0.00     0.036 A 
HETATM    5  C17 UNL     1      26.847   4.065  49.468  1.00  0.00     0.032 A 
HETATM    6  C18 UNL     1      27.590   4.885  48.610  1.00  0.00     0.039 A 
ENDROOT
BRANCH   4   7
HETATM    7  N1  UNL     1      25.084   3.630  51.004  1.00  0.00    -0.309 N 
HETATM    8  C11 UNL     1      23.945   2.954  50.486  1.00  0.00     0.324 C 
HETATM    9  O3  UNL     1      23.512   3.160  49.325  1.00  0.00    -0.247 OA
HETATM   10  N2  UNL     1      23.351   2.037  51.389  1.00  0.00    -0.319 N 
HETATM   11  H10 UNL     1      23.707   1.856  52.365  1.00  0.00     0.170 HD
HETATM   12  H9  UNL     1      25.474   3.484  51.961  1.00  0.00     0.170 HD
BRANCH  10  13
HETATM   13  C12 UNL     1      22.222   1.184  51.251  1.00  0.00     0.092 C 
HETATM   14  C13 UNL     1      22.028   0.086  51.990  1.00  0.00     0.017 C 
BRANCH  14  15
HETATM   15  C14 UNL     1      23.011  -0.277  52.995  1.00  0.00    -0.000 C 
HETATM   16  C15 UNL     1      22.669  -0.671  54.190  1.00  0.00     0.004 C 
BRANCH  16  17
HETATM   17  C16 UNL     1      21.312  -0.829  54.753  1.00  0.00     0.249 C 
HETATM   18  F1  UNL     1      20.792   0.408  55.148  1.00  0.00    -0.251 F 
ENDBRANCH  16  17
ENDBRANCH  14  15
ENDBRANCH  10  13
ENDBRANCH   4   7
BRANCH   1  19
HETATM   19  O2  UNL     1      28.062   6.883  47.583  1.00  0.00    -0.292 OA
BRANCH  19  20
HETATM   20  C6  UNL     1      29.286   7.420  47.899  1.00  0.00     0.173 A 
HETATM   21  C5  UNL     1      30.430   6.975  47.271  1.00  0.00     0.090 A 
HETATM   22  C4  UNL     1      31.691   7.450  47.519  1.00  0.00     0.064 A 
HETATM   23  N4  UNL     1      31.783   8.417  48.446  1.00  0.00    -0.242 NA
HETATM   24  C19 UNL     1      30.710   8.876  49.077  1.00  0.00     0.236 A 
HETATM   25  N3  UNL     1      29.476   8.400  48.822  1.00  0.00    -0.217 NA
BRANCH  22  26
HETATM   26  C3  UNL     1      32.898   6.985  46.857  1.00  0.00     0.055 C 
HETATM   27  C2  UNL     1      33.882   6.352  47.467  1.00  0.00     0.136 C 
BRANCH  27  28
HETATM   28  O1  UNL     1      34.163   5.926  48.750  1.00  0.00    -0.368 OA
HETATM   29  C1  UNL     1      35.425   5.463  49.177  1.00  0.00     0.208 C 
ENDBRANCH  27  28
ENDBRANCH  22  26
ENDBRANCH  19  20
ENDBRANCH   1  19
TORSDOF 8
ENDMDL
MODEL 4
REMARK VINA RESULT:      -7.2      3.194      4.629
REMARK  8 active torsions:
REMARK  status: ('A' for Active; 'I' for Inactive)
REMARK    1  A    between atoms: O1_2  and  C2_3 
REMARK    2  A    between atoms: C3_4  and  C4_5 
REMARK    3  A    between atoms: C6_7  and  O2_8 
REMARK    4  A    between atoms: O2_8  and  C7_9 
REMARK    5  A    between atoms: C10_12  and  N1_13 
REMARK       I    between atoms: N1_13  and  C11_14 
REMARK       I    between atoms: C11_14  and  N2_16 
REMARK    6  A    between atoms: N2_16  and  C12_17 
REMARK    7  A    between atoms: C13_18  and  C14_19 
REMARK    8  A    between atoms: C15_20  and  C16_21 
ROOT
HETATM    1  C7  UNL     1      25.664   5.126  49.873  1.00  0.00     0.078 A 
HETATM    2  C8  UNL     1      26.573   4.236  49.358  1.00  0.00     0.039 A 
HETATM    3  C9  UNL     1      27.665   4.613  48.627  1.00  0.00     0.032 A 
HETATM    4  C10 UNL     1      27.896   5.939  48.376  1.00  0.00     0.036 A 
HETATM    5  C17 UNL     1      26.996   6.883  48.883  1.00  0.00     0.032 A 
HETATM    6  C18 UNL     1      25.882   6.476  49.629  1.00  0.00     0.039 A 
ENDROOT
BRANCH   4   7
HETATM    7  N1  UNL     1      28.982   6.492  47.634  1.00  0.00    -0.309 N 
HETATM    8  C11 UNL     1      30.306   6.131  48.003  1.00  0.00     0.324 C 
HETATM    9  O3  UNL     1      30.549   5.345  48.954  1.00  0.00    -0.247 OA
HETATM   10  N2  UNL     1      31.317   6.731  47.210  1.00  0.00    -0.319 N 
HETATM   11  H10 UNL     1      31.124   7.391  46.410  1.00  0.00     0.170 HD
HETATM   12  H9  UNL     1      28.741   7.138  46.851  1.00  0.00     0.170 HD
BRANCH  10  13
HETATM   13  C12 UNL     1      32.734   6.625  47.259  1.00  0.00     0.092 C 
HETATM   14  C13 UNL     1      33.427   5.666  46.636  1.00  0.00     0.017 C 
BRANCH  14  15
HETATM   15  C14 UNL     1      32.717   4.665  45.862  1.00  0.00    -0.000 C 
HETATM   16  C15 UNL     1      32.562   3.441  46.284  1.00  0.00     0.004 C 
BRANCH  16  17
HETATM   17  C16 UNL     1      33.036   2.837  47.547  1.00  0.00     0.249 C 
HETATM   18  F1  UNL     1      32.803   1.458  47.555  1.00  0.00    -0.251 F 
ENDBRANCH  16  17
ENDBRANCH  14  15
ENDBRANCH  10  13
ENDBRANCH   4   7
BRANCH   1  19
HETATM   19  O2  UNL     1      24.540   4.895  50.614  1.00  0.00    -0.292 OA
BRANCH  19  20
HETATM   20  C6  UNL     1      23.882   3.694  50.709  1.00  0.00     0.173 A 
HETATM   21  C5  UNL     1      24.099   2.859  51.785  1.00  0.00     0.090 A 
HETATM   22  C4  UNL     1      23.490   1.646  51.966  1.00  0.00     0.064 A 
HETATM   23  N4  UNL     1      22.627   1.272  51.007  1.00  0.00    -0.242 NA
HETATM   24  C19 UNL     1      22.387   2.042  49.953  1.00  0.00     0.236 A 
HETATM   25  N3  UNL     1      22.993   3.233  49.789  1.00  0.00    -0.217 NA
BRANCH  22  26
HETATM   26  C3  UNL     1      23.714   0.765  53.099  1.00  0.00     0.055 C 
HETATM   27  C2  UNL     1      24.778  -0.002  53.245  1.00  0.00     0.136 C 
BRANCH  27  28
HETATM   28  O1  UNL     1      25.932  -0.268  52.536  1.00  0.00    -0.368 OA
HETATM   29  C1  UNL     1      27.087   0.542  52.559  1.00  0.00     0.208 C 
ENDBRANCH  27  28
ENDBRANCH  22  26
ENDBRANCH  19  20
ENDBRANCH   1  19
TORSDOF 8
ENDMDL
MODEL 5
REMARK VINA RESULT:      -7.1      3.950      9.754
REMARK  8 active torsions:
REMARK  status: ('A' for Active; 'I' for Inactive)
REMARK    1  A    between atoms: O1_2  and  C2_3 
REMARK    2  A    between atoms: C3_4  and  C4_5 
REMARK    3  A    between atoms: C6_7  and  O2_8 
REMARK    4  A    between atoms: O2_8  and  C7_9 
REMARK    5  A    between atoms: C10_12  and  N1_13 
REMARK       I    between atoms: N1_13  and  C11_14 
REMARK       I    between atoms: C11_14  and  N2_16 
REMARK    6  A    between atoms: N2_16  and  C12_17 
REMARK    7  A    between atoms: C13_18  and  C14_19 
REMARK    8  A    between atoms: C15_20  and  C16_21 
ROOT
HETATM    1  C7  UNL     1      27.157   5.515  48.689  1.00  0.00     0.078 A 
HETATM    2  C8  UNL     1      27.201   4.188  49.037  1.00  0.00     0.039 A 
HETATM    3  C9  UNL     1      26.284   3.593  49.858  1.00  0.00     0.032 A 
HETATM    4  C10 UNL     1      25.254   4.330  50.380  1.00  0.00     0.036 A 
HETATM    5  C17 UNL     1      25.169   5.688  50.053  1.00  0.00     0.032 A 
HETATM    6  C18 UNL     1      26.119   6.278  49.210  1.00  0.00     0.039 A 
ENDROOT
BRANCH   4   7
HETATM    7  N1  UNL     1      24.223   3.861  51.249  1.00  0.00    -0.309 N 
HETATM    8  C11 UNL     1      23.252   2.966  50.724  1.00  0.00     0.324 C 
HETATM    9  O3  UNL     1      23.273   2.576  49.529  1.00  0.00    -0.247 OA
HETATM   10  N2  UNL     1      22.269   2.559  51.660  1.00  0.00    -0.319 N 
HETATM   11  H10 UNL     1      22.242   2.880  52.664  1.00  0.00     0.170 HD
HETATM   12  H9  UNL     1      24.240   4.206  52.234  1.00  0.00     0.170 HD
BRANCH  10  13
HETATM   13  C12 UNL     1      21.152   1.688  51.528  1.00  0.00     0.092 C 
HETATM   14  C13 UNL     1      21.168   0.402  51.893  1.00  0.00     0.017 C 
BRANCH  14  15
HETATM   15  C14 UNL     1      22.381  -0.162  52.458  1.00  0.00    -0.000 C 
HETATM   16  C15 UNL     1      22.407  -0.709  53.641  1.00  0.00     0.004 C 
BRANCH  16  17
HETATM   17  C16 UNL     1      21.298  -0.870  54.604  1.00  0.00     0.249 C 
HETATM   18  F1  UNL     1      21.012   0.342  55.239  1.00  0.00    -0.251 F 
ENDBRANCH  16  17
ENDBRANCH  14  15
ENDBRANCH  10  13
ENDBRANCH   4   7
BRANCH   1  19
HETATM   19  O2  UNL     1      27.995   6.236  47.888  1.00  0.00    -0.292 OA
BRANCH  19  20
HETATM   20  C6  UNL     1      29.340   6.413  48.098  1.00  0.00     0.173 A 
HETATM   21  C5  UNL     1      30.219   5.362  47.942  1.00  0.00     0.090 A 
HETATM   22  C4  UNL     1      31.573   5.443  48.129  1.00  0.00     0.064 A 
HETATM   23  N4  UNL     1      32.046   6.648  48.490  1.00  0.00    -0.242 NA
HETATM   24  C19 UNL     1      31.239   7.688  48.652  1.00  0.00     0.236 A 
HETATM   25  N3  UNL     1      29.909   7.593  48.465  1.00  0.00    -0.217 NA
BRANCH  22  26
HETATM   26  C3  UNL     1      32.502   4.338  47.963  1.00  0.00     0.055 C 
HETATM   27  C2  UNL     1      32.842   3.823  46.797  1.00  0.00     0.136 C 
BRANCH  27  28
HETATM   28  O1  UNL     1      32.536   4.046  45.470  1.00  0.00    -0.368 OA
HETATM   29  C1  UNL     1      33.049   5.113  44.702  1.00  0.00     0.208 C 
ENDBRANCH  27  28
ENDBRANCH  22  26
ENDBRANCH  19  20
ENDBRANCH   1  19
TORSDOF 8
ENDMDL
MODEL 6
REMARK VINA RESULT:      -7.1      3.181      5.102
REMARK  8 active torsions:
REMARK  status: ('A' for Active; 'I' for Inactive)
REMARK    1  A    between atoms: O1_2  and  C2_3 
REMARK    2  A    between atoms: C3_4  and  C4_5 
REMARK    3  A    between atoms: C6_7  and  O2_8 
REMARK    4  A    between atoms: O2_8  and  C7_9 
REMARK    5  A    between atoms: C10_12  and  N1_13 
REMARK       I    between atoms: N1_13  and  C11_14 
REMARK       I    between atoms: C11_14  and  N2_16 
REMARK    6  A    between atoms: N2_16  and  C12_17 
REMARK    7  A    between atoms: C13_18  and  C14_19 
REMARK    8  A    between atoms: C15_20  and  C16_21 
ROOT
HETATM    1  C7  UNL     1      26.840   4.758  49.021  1.00  0.00     0.078 A 
HETATM    2  C8  UNL     1      26.009   5.851  49.047  1.00  0.00     0.039 A 
HETATM    3  C9  UNL     1      26.376   7.088  48.597  1.00  0.00     0.032 A 
HETATM    4  C10 UNL     1      27.631   7.286  48.087  1.00  0.00     0.036 A 
HETATM    5  C17 UNL     1      28.513   6.201  48.039  1.00  0.00     0.032 A 
HETATM    6  C18 UNL     1      28.118   4.940  48.506  1.00  0.00     0.039 A 
ENDROOT
BRANCH   4   7
HETATM    7  N1  UNL     1      28.165   8.509  47.581  1.00  0.00    -0.309 N 
HETATM    8  C11 UNL     1      29.018   9.273  48.423  1.00  0.00     0.324 C 
HETATM    9  O3  UNL     1      29.316   8.909  49.588  1.00  0.00    -0.247 OA
HETATM   10  N2  UNL     1      29.496  10.471  47.834  1.00  0.00    -0.319 N 
HETATM   11  H10 UNL     1      29.252  10.787  46.858  1.00  0.00     0.170 HD
HETATM   12  H9  UNL     1      27.896   8.777  46.609  1.00  0.00     0.170 HD
BRANCH  10  13
HETATM   13  C12 UNL     1      30.354  11.486  48.339  1.00  0.00     0.092 C 
HETATM   14  C13 UNL     1      29.913  12.620  48.896  1.00  0.00     0.017 C 
BRANCH  14  15
HETATM   15  C14 UNL     1      28.484  12.850  49.003  1.00  0.00    -0.000 C 
HETATM   16  C15 UNL     1      27.867  13.738  48.273  1.00  0.00     0.004 C 
BRANCH  16  17
HETATM   17  C16 UNL     1      28.434  14.642  47.252  1.00  0.00     0.249 C 
HETATM   18  F1  UNL     1      28.710  13.946  46.071  1.00  0.00    -0.251 F 
ENDBRANCH  16  17
ENDBRANCH  14  15
ENDBRANCH  10  13
ENDBRANCH   4   7
BRANCH   1  19
HETATM   19  O2  UNL     1      26.612   3.476  49.432  1.00  0.00    -0.292 OA
BRANCH  19  20
HETATM   20  C6  UNL     1      26.154   3.108  50.673  1.00  0.00     0.173 A 
HETATM   21  C5  UNL     1      26.988   2.473  51.568  1.00  0.00     0.090 A 
HETATM   22  C4  UNL     1      26.622   2.070  52.824  1.00  0.00     0.064 A 
HETATM   23  N4  UNL     1      25.352   2.327  53.178  1.00  0.00    -0.242 NA
HETATM   24  C19 UNL     1      24.512   2.935  52.350  1.00  0.00     0.236 A 
HETATM   25  N3  UNL     1      24.887   3.326  51.117  1.00  0.00    -0.217 NA
BRANCH  22  26
HETATM   26  C3  UNL     1      27.499   1.402  53.771  1.00  0.00     0.055 C 
HETATM   27  C2  UNL     1      27.413   0.125  54.090  1.00  0.00     0.136 C 
BRANCH  27  28
HETATM   28  O1  UNL     1      26.616  -0.947  53.744  1.00  0.00    -0.368 OA
HETATM   29  C1  UNL     1      26.864  -1.806  52.652  1.00  0.00     0.208 C 
ENDBRANCH  27  28
ENDBRANCH  22  26
ENDBRANCH  19  20
ENDBRANCH   1  19
TORSDOF 8
ENDMDL
MODEL 7
REMARK VINA RESULT:      -6.9      6.179      9.230
REMARK  8 active torsions:
REMARK  status: ('A' for Active; 'I' for Inactive)
REMARK    1  A    between atoms: O1_2  and  C2_3 
REMARK    2  A    between atoms: C3_4  and  C4_5 
REMARK    3  A    between atoms: C6_7  and  O2_8 
REMARK    4  A    between atoms: O2_8  and  C7_9 
REMARK    5  A    between atoms: C10_12  and  N1_13 
REMARK       I    between atoms: N1_13  and  C11_14 
REMARK       I    between atoms: C11_14  and  N2_16 
REMARK    6  A    between atoms: N2_16  and  C12_17 
REMARK    7  A    between atoms: C13_18  and  C14_19 
REMARK    8  A    between atoms: C15_20  and  C16_21 
ROOT
HETATM    1  C7  UNL     1      23.066   1.771  51.359  1.00  0.00     0.078 A 
HETATM    2  C8  UNL     1      22.285   1.260  50.351  1.00  0.00     0.039 A 
HETATM    3  C9  UNL     1      20.961   1.562  50.197  1.00  0.00     0.032 A 
HETATM    4  C10 UNL     1      20.347   2.414  51.076  1.00  0.00     0.036 A 
HETATM    5  C17 UNL     1      21.103   2.960  52.118  1.00  0.00     0.032 A 
HETATM    6  C18 UNL     1      22.459   2.639  52.259  1.00  0.00     0.039 A 
ENDROOT
BRANCH   4   7
HETATM    7  N1  UNL     1      18.980   2.825  51.053  1.00  0.00    -0.309 N 
HETATM    8  C11 UNL     1      17.991   1.909  51.503  1.00  0.00     0.324 C 
HETATM    9  O3  UNL     1      18.279   0.758  51.919  1.00  0.00    -0.247 OA
HETATM   10  N2  UNL     1      16.665   2.406  51.442  1.00  0.00    -0.319 N 
HETATM   11  H10 UNL     1      16.412   3.369  51.095  1.00  0.00     0.170 HD
HETATM   12  H9  UNL     1      18.780   3.788  50.703  1.00  0.00     0.170 HD
BRANCH  10  13
HETATM   13  C12 UNL     1      15.423   1.810  51.794  1.00  0.00     0.092 C 
HETATM   14  C13 UNL     1      14.524   2.390  52.598  1.00  0.00     0.017 C 
BRANCH  14  15
HETATM   15  C14 UNL     1      14.810   3.700  53.154  1.00  0.00    -0.000 C 
HETATM   16  C15 UNL     1      13.873   4.470  53.633  1.00  0.00     0.004 C 
BRANCH  16  17
HETATM   17  C16 UNL     1      12.421   4.210  53.715  1.00  0.00     0.249 C 
HETATM   18  F1  UNL     1      11.951   4.421  55.015  1.00  0.00    -0.251 F 
ENDBRANCH  16  17
ENDBRANCH  14  15
ENDBRANCH  10  13
ENDBRANCH   4   7
BRANCH   1  19
HETATM   19  O2  UNL     1      24.387   1.561  51.632  1.00  0.00    -0.292 OA
BRANCH  19  20
HETATM   20  C6  UNL     1      24.877   0.656  52.541  1.00  0.00     0.173 A 
HETATM   21  C5  UNL     1      26.144   0.132  52.395  1.00  0.00     0.090 A 
HETATM   22  C4  UNL     1      26.717  -0.772  53.249  1.00  0.00     0.064 A 
HETATM   23  N4  UNL     1      25.963  -1.156  54.292  1.00  0.00    -0.242 NA
HETATM   24  C19 UNL     1      24.738  -0.680  54.473  1.00  0.00     0.236 A 
HETATM   25  N3  UNL     1      24.187   0.210  53.625  1.00  0.00    -0.217 NA
BRANCH  22  26
HETATM   26  C3  UNL     1      28.053  -1.324  53.100  1.00  0.00     0.055 C 
HETATM   27  C2  UNL     1      29.163  -0.620  53.207  1.00  0.00     0.136 C 
BRANCH  27  28
HETATM   28  O1  UNL     1      29.502   0.694  53.458  1.00  0.00    -0.368 OA
HETATM   29  C1  UNL     1      29.167   1.392  54.638  1.00  0.00     0.208 C 
ENDBRANCH  27  28
ENDBRANCH  22  26
ENDBRANCH  19  20
ENDBRANCH   1  19
TORSDOF 8
ENDMDL
MODEL 8
REMARK VINA RESULT:      -6.8      4.268     10.481
REMARK  8 active torsions:
REMARK  status: ('A' for Active; 'I' for Inactive)
REMARK    1  A    between atoms: O1_2  and  C2_3 
REMARK    2  A    between atoms: C3_4  and  C4_5 
REMARK    3  A    between atoms: C6_7  and  O2_8 
REMARK    4  A    between atoms: O2_8  and  C7_9 
REMARK    5  A    between atoms: C10_12  and  N1_13 
REMARK       I    between atoms: N1_13  and  C11_14 
REMARK       I    between atoms: C11_14  and  N2_16 
REMARK    6  A    between atoms: N2_16  and  C12_17 
REMARK    7  A    between atoms: C13_18  and  C14_19 
REMARK    8  A    between atoms: C15_20  and  C16_21 
ROOT
HETATM    1  C7  UNL     1      27.660   6.164  48.333  1.00  0.00     0.078 A 
HETATM    2  C8  UNL     1      27.727   4.816  48.586  1.00  0.00     0.039 A 
HETATM    3  C9  UNL     1      26.843   4.156  49.392  1.00  0.00     0.032 A 
HETATM    4  C10 UNL     1      25.824   4.842  49.996  1.00  0.00     0.036 A 
HETATM    5  C17 UNL     1      25.714   6.218  49.766  1.00  0.00     0.032 A 
HETATM    6  C18 UNL     1      26.631   6.877  48.937  1.00  0.00     0.039 A 
ENDROOT
BRANCH   4   7
HETATM    7  N1  UNL     1      24.825   4.303  50.862  1.00  0.00    -0.309 N 
HETATM    8  C11 UNL     1      23.881   3.389  50.318  1.00  0.00     0.324 C 
HETATM    9  O3  UNL     1      23.899   3.043  49.110  1.00  0.00    -0.247 OA
HETATM   10  N2  UNL     1      22.929   2.910  51.253  1.00  0.00    -0.319 N 
HETATM   11  H10 UNL     1      22.906   3.193  52.268  1.00  0.00     0.170 HD
HETATM   12  H9  UNL     1      24.844   4.612  51.858  1.00  0.00     0.170 HD
BRANCH  10  13
HETATM   13  C12 UNL     1      21.845   2.002  51.105  1.00  0.00     0.092 C 
HETATM   14  C13 UNL     1      21.790   0.810  51.709  1.00  0.00     0.017 C 
BRANCH  14  15
HETATM   15  C14 UNL     1      22.885   0.397  52.568  1.00  0.00    -0.000 C 
HETATM   16  C15 UNL     1      22.721  -0.457  53.540  1.00  0.00     0.004 C 
BRANCH  16  17
HETATM   17  C16 UNL     1      21.484  -1.147  53.959  1.00  0.00     0.249 C 
HETATM   18  F1  UNL     1      21.778  -2.238  54.783  1.00  0.00    -0.251 F 
ENDBRANCH  16  17
ENDBRANCH  14  15
ENDBRANCH  10  13
ENDBRANCH   4   7
BRANCH   1  19
HETATM   19  O2  UNL     1      28.465   6.949  47.558  1.00  0.00    -0.292 OA
BRANCH  19  20
HETATM   20  C6  UNL     1      29.645   7.522  47.962  1.00  0.00     0.173 A 
HETATM   21  C5  UNL     1      29.975   8.801  47.565  1.00  0.00     0.090 A 
HETATM   22  C4  UNL     1      31.126   9.454  47.918  1.00  0.00     0.064 A 
HETATM   23  N4  UNL     1      31.972   8.771  48.707  1.00  0.00    -0.242 NA
HETATM   24  C19 UNL     1      31.697   7.539  49.114  1.00  0.00     0.236 A 
HETATM   25  N3  UNL     1      30.561   6.909  48.759  1.00  0.00    -0.217 NA
BRANCH  22  26
HETATM   26  C3  UNL     1      31.476  10.802  47.504  1.00  0.00     0.055 C 
HETATM   27  C2  UNL     1      31.015  11.898  48.076  1.00  0.00     0.136 C 
BRANCH  27  28
HETATM   28  O1  UNL     1      30.163  12.208  49.116  1.00  0.00    -0.368 OA
HETATM   29  C1  UNL     1      28.782  12.460  48.968  1.00  0.00     0.208 C 
ENDBRANCH  27  28
ENDBRANCH  22  26
ENDBRANCH  19  20
ENDBRANCH   1  19
TORSDOF 8
ENDMDL
MODEL 9
REMARK VINA RESULT:      -6.7      5.925      9.143
REMARK  8 active torsions:
REMARK  status: ('A' for Active; 'I' for Inactive)
REMARK    1  A    between atoms: O1_2  and  C2_3 
REMARK    2  A    between atoms: C3_4  and  C4_5 
REMARK    3  A    between atoms: C6_7  and  O2_8 
REMARK    4  A    between atoms: O2_8  and  C7_9 
REMARK    5  A    between atoms: C10_12  and  N1_13 
REMARK       I    between atoms: N1_13  and  C11_14 
REMARK       I    between atoms: C11_14  and  N2_16 
REMARK    6  A    between atoms: N2_16  and  C12_17 
REMARK    7  A    between atoms: C13_18  and  C14_19 
REMARK    8  A    between atoms: C15_20  and  C16_21 
ROOT
HETATM    1  C7  UNL     1      23.565   2.355  51.344  1.00  0.00     0.078 A 
HETATM    2  C8  UNL     1      22.827   1.967  50.253  1.00  0.00     0.039 A 
HETATM    3  C9  UNL     1      21.495   2.240  50.109  1.00  0.00     0.032 A 
HETATM    4  C10 UNL     1      20.830   2.934  51.084  1.00  0.00     0.036 A 
HETATM    5  C17 UNL     1      21.542   3.351  52.213  1.00  0.00     0.032 A 
HETATM    6  C18 UNL     1      22.906   3.062  52.343  1.00  0.00     0.039 A 
ENDROOT
BRANCH   4   7
HETATM    7  N1  UNL     1      19.449   3.295  51.084  1.00  0.00    -0.309 N 
HETATM    8  C11 UNL     1      18.491   2.303  51.430  1.00  0.00     0.324 C 
HETATM    9  O3  UNL     1      18.819   1.129  51.735  1.00  0.00    -0.247 OA
HETATM   10  N2  UNL     1      17.148   2.755  51.400  1.00  0.00    -0.319 N 
HETATM   11  H10 UNL     1      16.862   3.738  51.146  1.00  0.00     0.170 HD
HETATM   12  H9  UNL     1      19.216   4.279  50.827  1.00  0.00     0.170 HD
BRANCH  10  13
HETATM   13  C12 UNL     1      15.926   2.082  51.677  1.00  0.00     0.092 C 
HETATM   14  C13 UNL     1      14.957   2.592  52.445  1.00  0.00     0.017 C 
BRANCH  14  15
HETATM   15  C14 UNL     1      15.139   3.902  53.042  1.00  0.00    -0.000 C 
HETATM   16  C15 UNL     1      14.152   4.563  53.581  1.00  0.00     0.004 C 
BRANCH  16  17
HETATM   17  C16 UNL     1      12.735   4.164  53.699  1.00  0.00     0.249 C 
HETATM   18  F1  UNL     1      12.291   4.291  55.019  1.00  0.00    -0.251 F 
ENDBRANCH  16  17
ENDBRANCH  14  15
ENDBRANCH  10  13
ENDBRANCH   4   7
BRANCH   1  19
HETATM   19  O2  UNL     1      24.887   2.155  51.619  1.00  0.00    -0.292 OA
BRANCH  19  20
HETATM   20  C6  UNL     1      25.412   1.049  52.240  1.00  0.00     0.173 A 
HETATM   21  C5  UNL     1      24.806   0.519  53.359  1.00  0.00     0.090 A 
HETATM   22  C4  UNL     1      25.255  -0.579  54.043  1.00  0.00     0.064 A 
HETATM   23  N4  UNL     1      26.368  -1.157  53.562  1.00  0.00    -0.242 NA
HETATM   24  C19 UNL     1      26.986  -0.682  52.489  1.00  0.00     0.236 A 
HETATM   25  N3  UNL     1      26.533   0.399  51.826  1.00  0.00    -0.217 NA
BRANCH  22  26
HETATM   26  C3  UNL     1      24.618  -1.142  55.222  1.00  0.00     0.055 C 
HETATM   27  C2  UNL     1      23.312  -1.218  55.394  1.00  0.00     0.136 C 
BRANCH  27  28
HETATM   28  O1  UNL     1      22.180  -0.871  54.683  1.00  0.00    -0.368 OA
HETATM   29  C1  UNL     1      21.109  -1.748  54.413  1.00  0.00     0.208 C 
ENDBRANCH  27  28
ENDBRANCH  22  26
ENDBRANCH  19  20
ENDBRANCH   1  19
TORSDOF 8
ENDMDL
