MODEL 1
REMARK VINA RESULT:      -9.0      0.000      0.000
REMARK  2 active torsions:
REMARK  status: ('A' for Active; 'I' for Inactive)
REMARK    1  A    between atoms: C4_5  and  N1_6 
REMARK    2  A    between atoms: N1_6  and  C5_7 
ROOT
HETATM    1  C5  UNL     1      26.201   2.821  51.652  1.00  0.00     0.707 A 
HETATM    2  N2  UNL     1      26.889   3.230  50.640  1.00  0.00    -0.058 NA
HETATM    3  C6  UNL     1      26.119   3.544  49.480  1.00  0.00     0.251 A 
HETATM    4  N3  UNL     1      24.851   3.477  49.301  1.00  0.00    -0.230 NA
HETATM    5  C7  UNL     1      23.999   3.041  50.341  1.00  0.00     0.377 A 
HETATM    6  O1  UNL     1      23.173   1.947  49.996  1.00  0.00    -0.305 OA
HETATM    7  C8  UNL     1      22.380   1.336  50.955  1.00  0.00     0.081 A 
HETATM    8  C9  UNL     1      21.263   0.602  50.720  1.00  0.00     0.037 A 
HETATM    9  C10 UNL     1      20.602   0.070  51.810  1.00  0.00     0.003 A 
HETATM   10  C11 UNL     1      21.015   0.246  53.115  1.00  0.00     0.001 A 
HETATM   11  C12 UNL     1      22.170   1.009  53.319  1.00  0.00     0.011 A 
HETATM   12  C13 UNL     1      22.854   1.555  52.232  1.00  0.00    -0.006 A 
HETATM   13  C14 UNL     1      24.042   2.322  52.685  1.00  0.00     0.187 C 
HETATM   14  N4  UNL     1      24.773   2.740  51.519  1.00  0.00    -0.165 N 
ENDROOT
BRANCH   1  15
HETATM   15  N1  UNL     1      26.889   2.492  52.824  1.00  0.00    -0.190 N 
HETATM   16  H3  UNL     1      26.836   3.187  53.629  1.00  0.00     0.184 HD
BRANCH  15  17
HETATM   17  C4  UNL     1      27.644   1.312  53.030  1.00  0.00     0.051 A 
HETATM   18  C3  UNL     1      28.907   1.208  53.561  1.00  0.00     0.033 A 
HETATM   19  C2  UNL     1      29.603   0.056  53.751  1.00  0.00     0.046 A 
HETATM   20  C1  UNL     1      29.027  -1.144  53.389  1.00  0.00     0.138 A 
HETATM   21  F1  UNL     1      29.691  -2.299  53.563  1.00  0.00    -0.204 F 
HETATM   22  C16 UNL     1      27.759  -1.124  52.846  1.00  0.00     0.074 A 
HETATM   23  C15 UNL     1      27.102   0.076  52.678  1.00  0.00     0.057 A 
HETATM   24 CL1  UNL     1      27.020  -2.642  52.382  1.00  0.00    -0.081 Cl
ENDBRANCH  15  17
ENDBRANCH   1  15
TORSDOF 2
ENDMDL
MODEL 2
REMARK VINA RESULT:      -8.5      1.945      4.569
REMARK  2 active torsions:
REMARK  status: ('A' for Active; 'I' for Inactive)
REMARK    1  A    between atoms: C4_5  and  N1_6 
REMARK    2  A    between atoms: N1_6  and  C5_7 
ROOT
HETATM    1  C5  UNL     1      25.129   2.427  52.332  1.00  0.00     0.707 A 
HETATM    2  N2  UNL     1      24.022   2.215  52.960  1.00  0.00    -0.058 NA
HETATM    3  C6  UNL     1      22.853   2.684  52.289  1.00  0.00     0.251 A 
HETATM    4  N3  UNL     1      22.748   3.284  51.160  1.00  0.00    -0.230 NA
HETATM    5  C7  UNL     1      23.895   3.570  50.386  1.00  0.00     0.377 A 
HETATM    6  O1  UNL     1      24.044   4.934  50.050  1.00  0.00    -0.305 OA
HETATM    7  C8  UNL     1      25.187   5.376  49.401  1.00  0.00     0.081 A 
HETATM    8  C9  UNL     1      25.299   6.504  48.654  1.00  0.00     0.037 A 
HETATM    9  C10 UNL     1      26.526   6.779  48.084  1.00  0.00     0.003 A 
HETATM   10  C11 UNL     1      27.636   5.973  48.233  1.00  0.00     0.001 A 
HETATM   11  C12 UNL     1      27.484   4.819  49.010  1.00  0.00     0.011 A 
HETATM   12  C13 UNL     1      26.253   4.522  49.596  1.00  0.00    -0.006 A 
HETATM   13  C14 UNL     1      26.328   3.257  50.369  1.00  0.00     0.187 C 
HETATM   14  N4  UNL     1      25.075   3.080  51.054  1.00  0.00    -0.165 N 
ENDROOT
BRANCH   1  15
HETATM   15  N1  UNL     1      26.317   1.995  52.931  1.00  0.00    -0.190 N 
HETATM   16  H3  UNL     1      26.890   2.723  53.454  1.00  0.00     0.184 HD
BRANCH  15  17
HETATM   17  C4  UNL     1      26.815   0.669  52.904  1.00  0.00     0.051 A 
HETATM   18  C3  UNL     1      26.166  -0.460  52.470  1.00  0.00     0.033 A 
HETATM   19  C2  UNL     1      26.676  -1.720  52.453  1.00  0.00     0.046 A 
HETATM   20  C1  UNL     1      27.962  -1.930  52.905  1.00  0.00     0.138 A 
HETATM   21  F1  UNL     1      28.493  -3.164  52.901  1.00  0.00    -0.204 F 
HETATM   22  C16 UNL     1      28.681  -0.844  53.360  1.00  0.00     0.074 A 
HETATM   23  C15 UNL     1      28.110   0.410  53.352  1.00  0.00     0.057 A 
HETATM   24 CL1  UNL     1      30.314  -1.100  53.937  1.00  0.00    -0.081 Cl
ENDBRANCH  15  17
ENDBRANCH   1  15
TORSDOF 2
ENDMDL
MODEL 3
REMARK VINA RESULT:      -8.4      3.943      6.791
REMARK  2 active torsions:
REMARK  status: ('A' for Active; 'I' for Inactive)
REMARK    1  A    between atoms: C4_5  and  N1_6 
REMARK    2  A    between atoms: N1_6  and  C5_7 
ROOT
HETATM    1  C5  UNL     1      24.201   2.029  52.990  1.00  0.00     0.707 A 
HETATM    2  N2  UNL     1      23.015   1.627  52.680  1.00  0.00    -0.058 NA
HETATM    3  C6  UNL     1      22.777   0.237  52.899  1.00  0.00     0.251 A 
HETATM    4  N3  UNL     1      23.569  -0.663  53.355  1.00  0.00    -0.230 NA
HETATM    5  C7  UNL     1      24.893  -0.337  53.725  1.00  0.00     0.377 A 
HETATM    6  O1  UNL     1      25.885  -1.106  53.076  1.00  0.00    -0.305 OA
HETATM    7  C8  UNL     1      27.228  -0.810  53.250  1.00  0.00     0.081 A 
HETATM    8  C9  UNL     1      28.267  -1.664  53.067  1.00  0.00     0.037 A 
HETATM    9  C10 UNL     1      29.542  -1.183  53.289  1.00  0.00     0.003 A 
HETATM   10  C11 UNL     1      29.813   0.110  53.686  1.00  0.00     0.001 A 
HETATM   11  C12 UNL     1      28.718   0.963  53.865  1.00  0.00     0.011 A 
HETATM   12  C13 UNL     1      27.421   0.498  53.645  1.00  0.00    -0.006 A 
HETATM   13  C14 UNL     1      26.426   1.571  53.895  1.00  0.00     0.187 C 
HETATM   14  N4  UNL     1      25.129   1.071  53.522  1.00  0.00    -0.165 N 
ENDROOT
BRANCH   1  15
HETATM   15  N1  UNL     1      24.507   3.381  52.800  1.00  0.00    -0.190 N 
HETATM   16  H3  UNL     1      24.804   3.937  53.658  1.00  0.00     0.184 HD
BRANCH  15  17
HETATM   17  C4  UNL     1      24.460   4.067  51.562  1.00  0.00     0.051 A 
HETATM   18  C3  UNL     1      25.056   3.703  50.380  1.00  0.00     0.033 A 
HETATM   19  C2  UNL     1      24.987   4.383  49.205  1.00  0.00     0.046 A 
HETATM   20  C1  UNL     1      24.261   5.555  49.150  1.00  0.00     0.138 A 
HETATM   21  F1  UNL     1      24.174   6.250  48.004  1.00  0.00    -0.204 F 
HETATM   22  C16 UNL     1      23.631   5.990  50.299  1.00  0.00     0.074 A 
HETATM   23  C15 UNL     1      23.738   5.256  51.460  1.00  0.00     0.057 A 
HETATM   24 CL1  UNL     1      22.708   7.477  50.239  1.00  0.00    -0.081 Cl
ENDBRANCH  15  17
ENDBRANCH   1  15
TORSDOF 2
ENDMDL
MODEL 4
REMARK VINA RESULT:      -8.3      2.845      5.282
REMARK  2 active torsions:
REMARK  status: ('A' for Active; 'I' for Inactive)
REMARK    1  A    between atoms: C4_5  and  N1_6 
REMARK    2  A    between atoms: N1_6  and  C5_7 
ROOT
HETATM    1  C5  UNL     1      23.870   3.107  51.414  1.00  0.00     0.707 A 
HETATM    2  N2  UNL     1      22.903   3.227  52.260  1.00  0.00    -0.058 NA
HETATM    3  C6  UNL     1      22.265   4.504  52.265  1.00  0.00     0.251 A 
HETATM    4  N3  UNL     1      22.516   5.542  51.553  1.00  0.00    -0.230 NA
HETATM    5  C7  UNL     1      23.555   5.525  50.595  1.00  0.00     0.377 A 
HETATM    6  O1  UNL     1      24.517   6.547  50.762  1.00  0.00    -0.305 OA
HETATM    7  C8  UNL     1      25.655   6.574  49.971  1.00  0.00     0.081 A 
HETATM    8  C9  UNL     1      26.423   7.663  49.710  1.00  0.00     0.037 A 
HETATM    9  C10 UNL     1      27.524   7.493  48.895  1.00  0.00     0.003 A 
HETATM   10  C11 UNL     1      27.883   6.283  48.337  1.00  0.00     0.001 A 
HETATM   11  C12 UNL     1      27.069   5.182  48.628  1.00  0.00     0.011 A 
HETATM   12  C13 UNL     1      25.952   5.332  49.450  1.00  0.00    -0.006 A 
HETATM   13  C14 UNL     1      25.242   4.038  49.618  1.00  0.00     0.187 C 
HETATM   14  N4  UNL     1      24.188   4.230  50.577  1.00  0.00    -0.165 N 
ENDROOT
BRANCH   1  15
HETATM   15  N1  UNL     1      24.542   1.882  51.356  1.00  0.00    -0.190 N 
HETATM   16  H3  UNL     1      24.387   1.284  50.489  1.00  0.00     0.184 HD
BRANCH  15  17
HETATM   17  C4  UNL     1      25.415   1.377  52.349  1.00  0.00     0.051 A 
HETATM   18  C3  UNL     1      25.239   0.259  53.128  1.00  0.00     0.033 A 
HETATM   19  C2  UNL     1      26.101  -0.204  54.071  1.00  0.00     0.046 A 
HETATM   20  C1  UNL     1      27.275   0.483  54.303  1.00  0.00     0.138 A 
HETATM   21  F1  UNL     1      28.147   0.051  55.229  1.00  0.00    -0.204 F 
HETATM   22  C16 UNL     1      27.526   1.619  53.560  1.00  0.00     0.074 A 
HETATM   23  C15 UNL     1      26.613   2.039  52.617  1.00  0.00     0.057 A 
HETATM   24 CL1  UNL     1      29.012   2.499  53.847  1.00  0.00    -0.081 Cl
ENDBRANCH  15  17
ENDBRANCH   1  15
TORSDOF 2
ENDMDL
MODEL 5
REMARK VINA RESULT:      -8.2      3.682      5.547
REMARK  2 active torsions:
REMARK  status: ('A' for Active; 'I' for Inactive)
REMARK    1  A    between atoms: C4_5  and  N1_6 
REMARK    2  A    between atoms: N1_6  and  C5_7 
ROOT
HETATM    1  C5  UNL     1      27.348   1.951  52.548  1.00  0.00     0.707 A 
HETATM    2  N2  UNL     1      28.488   2.332  53.016  1.00  0.00    -0.058 NA
HETATM    3  C6  UNL     1      29.018   1.504  54.052  1.00  0.00     0.251 A 
HETATM    4  N3  UNL     1      28.523   0.445  54.580  1.00  0.00    -0.230 NA
HETATM    5  C7  UNL     1      27.278  -0.064  54.146  1.00  0.00     0.377 A 
HETATM    6  O1  UNL     1      26.323  -0.221  55.175  1.00  0.00    -0.305 OA
HETATM    7  C8  UNL     1      25.022  -0.591  54.874  1.00  0.00     0.081 A 
HETATM    8  C9  UNL     1      24.141  -1.182  55.721  1.00  0.00     0.037 A 
HETATM    9  C10 UNL     1      22.882  -1.477  55.237  1.00  0.00     0.003 A 
HETATM   10  C11 UNL     1      22.476  -1.205  53.947  1.00  0.00     0.001 A 
HETATM   11  C12 UNL     1      23.410  -0.596  53.101  1.00  0.00     0.011 A 
HETATM   12  C13 UNL     1      24.687  -0.289  53.570  1.00  0.00    -0.006 A 
HETATM   13  C14 UNL     1      25.502   0.348  52.504  1.00  0.00     0.187 C 
HETATM   14  N4  UNL     1      26.751   0.762  53.087  1.00  0.00    -0.165 N 
ENDROOT
BRANCH   1  15
HETATM   15  N1  UNL     1      26.768   2.716  51.531  1.00  0.00    -0.190 N 
HETATM   16  H3  UNL     1      27.412   3.064  50.757  1.00  0.00     0.184 HD
BRANCH  15  17
HETATM   17  C4  UNL     1      25.397   3.059  51.441  1.00  0.00     0.051 A 
HETATM   18  C3  UNL     1      24.542   3.364  52.472  1.00  0.00     0.033 A 
HETATM   19  C2  UNL     1      23.230   3.696  52.352  1.00  0.00     0.046 A 
HETATM   20  C1  UNL     1      22.661   3.742  51.096  1.00  0.00     0.138 A 
HETATM   21  F1  UNL     1      21.366   4.066  50.945  1.00  0.00    -0.204 F 
HETATM   22  C16 UNL     1      23.455   3.447  50.007  1.00  0.00     0.074 A 
HETATM   23  C15 UNL     1      24.781   3.118  50.192  1.00  0.00     0.057 A 
HETATM   24 CL1  UNL     1      22.742   3.502  48.409  1.00  0.00    -0.081 Cl
ENDBRANCH  15  17
ENDBRANCH   1  15
TORSDOF 2
ENDMDL
MODEL 6
REMARK VINA RESULT:      -8.1      2.030      2.786
REMARK  2 active torsions:
REMARK  status: ('A' for Active; 'I' for Inactive)
REMARK    1  A    between atoms: C4_5  and  N1_6 
REMARK    2  A    between atoms: N1_6  and  C5_7 
ROOT
HETATM    1  C5  UNL     1      23.986   1.017  52.428  1.00  0.00     0.707 A 
HETATM    2  N2  UNL     1      24.729   1.677  51.605  1.00  0.00    -0.058 NA
HETATM    3  C6  UNL     1      24.021   2.551  50.727  1.00  0.00     0.251 A 
HETATM    4  N3  UNL     1      22.760   2.771  50.639  1.00  0.00    -0.230 NA
HETATM    5  C7  UNL     1      21.851   2.102  51.490  1.00  0.00     0.377 A 
HETATM    6  O1  UNL     1      20.836   1.389  50.812  1.00  0.00    -0.305 OA
HETATM    7  C8  UNL     1      19.953   0.587  51.517  1.00  0.00     0.081 A 
HETATM    8  C9  UNL     1      18.718   0.202  51.104  1.00  0.00     0.037 A 
HETATM    9  C10 UNL     1      17.980  -0.604  51.948  1.00  0.00     0.003 A 
HETATM   10  C11 UNL     1      18.429  -1.035  53.180  1.00  0.00     0.001 A 
HETATM   11  C12 UNL     1      19.706  -0.619  53.572  1.00  0.00     0.011 A 
HETATM   12  C13 UNL     1      20.469   0.195  52.734  1.00  0.00    -0.006 A 
HETATM   13  C14 UNL     1      21.781   0.509  53.354  1.00  0.00     0.187 C 
HETATM   14  N4  UNL     1      22.567   1.232  52.390  1.00  0.00    -0.165 N 
ENDROOT
BRANCH   1  15
HETATM   15  N1  UNL     1      24.613   0.139  53.318  1.00  0.00    -0.190 N 
HETATM   16  H3  UNL     1      23.997  -0.340  54.043  1.00  0.00     0.184 HD
BRANCH  15  17
HETATM   17  C4  UNL     1      25.995  -0.170  53.331  1.00  0.00     0.051 A 
HETATM   18  C3  UNL     1      26.600  -1.318  52.881  1.00  0.00     0.033 A 
HETATM   19  C2  UNL     1      27.933  -1.582  52.903  1.00  0.00     0.046 A 
HETATM   20  C1  UNL     1      28.796  -0.637  53.417  1.00  0.00     0.138 A 
HETATM   21  F1  UNL     1      30.119  -0.869  53.453  1.00  0.00    -0.204 F 
HETATM   22  C16 UNL     1      28.265   0.545  53.891  1.00  0.00     0.074 A 
HETATM   23  C15 UNL     1      26.904   0.755  53.842  1.00  0.00     0.057 A 
HETATM   24 CL1  UNL     1      29.353   1.751  54.548  1.00  0.00    -0.081 Cl
ENDBRANCH  15  17
ENDBRANCH   1  15
TORSDOF 2
ENDMDL
MODEL 7
REMARK VINA RESULT:      -7.9      3.231      6.056
REMARK  2 active torsions:
REMARK  status: ('A' for Active; 'I' for Inactive)
REMARK    1  A    between atoms: C4_5  and  N1_6 
REMARK    2  A    between atoms: N1_6  and  C5_7 
ROOT
HETATM    1  C5  UNL     1      23.627   4.891  51.501  1.00  0.00     0.707 A 
HETATM    2  N2  UNL     1      22.515   5.487  51.775  1.00  0.00    -0.058 NA
HETATM    3  C6  UNL     1      22.054   6.388  50.768  1.00  0.00     0.251 A 
HETATM    4  N3  UNL     1      22.584   6.688  49.640  1.00  0.00    -0.230 NA
HETATM    5  C7  UNL     1      23.803   6.097  49.236  1.00  0.00     0.377 A 
HETATM    6  O1  UNL     1      24.820   7.024  48.913  1.00  0.00    -0.305 OA
HETATM    7  C8  UNL     1      26.103   6.586  48.623  1.00  0.00     0.081 A 
HETATM    8  C9  UNL     1      27.036   7.261  47.905  1.00  0.00     0.037 A 
HETATM    9  C10 UNL     1      28.265   6.658  47.720  1.00  0.00     0.003 A 
HETATM   10  C11 UNL     1      28.591   5.415  48.223  1.00  0.00     0.001 A 
HETATM   11  C12 UNL     1      27.604   4.749  48.959  1.00  0.00     0.011 A 
HETATM   12  C13 UNL     1      26.356   5.340  49.158  1.00  0.00    -0.006 A 
HETATM   13  C14 UNL     1      25.474   4.454  49.961  1.00  0.00     0.187 C 
HETATM   14  N4  UNL     1      24.261   5.173  50.245  1.00  0.00    -0.165 N 
ENDROOT
BRANCH   1  15
HETATM   15  N1  UNL     1      24.140   3.995  52.444  1.00  0.00    -0.190 N 
HETATM   16  H3  UNL     1      24.902   4.356  53.094  1.00  0.00     0.184 HD
BRANCH  15  17
HETATM   17  C4  UNL     1      23.726   2.650  52.609  1.00  0.00     0.051 A 
HETATM   18  C3  UNL     1      22.463   2.137  52.442  1.00  0.00     0.033 A 
HETATM   19  C2  UNL     1      22.100   0.837  52.604  1.00  0.00     0.046 A 
HETATM   20  C1  UNL     1      23.056  -0.087  52.970  1.00  0.00     0.138 A 
HETATM   21  F1  UNL     1      22.728  -1.379  53.138  1.00  0.00    -0.204 F 
HETATM   22  C16 UNL     1      24.351   0.351  53.158  1.00  0.00     0.074 A 
HETATM   23  C15 UNL     1      24.659   1.682  52.978  1.00  0.00     0.057 A 
HETATM   24 CL1  UNL     1      25.572  -0.815  53.623  1.00  0.00    -0.081 Cl
ENDBRANCH  15  17
ENDBRANCH   1  15
TORSDOF 2
ENDMDL
MODEL 8
REMARK VINA RESULT:      -7.8      3.841      6.528
REMARK  2 active torsions:
REMARK  status: ('A' for Active; 'I' for Inactive)
REMARK    1  A    between atoms: C4_5  and  N1_6 
REMARK    2  A    between atoms: N1_6  and  C5_7 
ROOT
HETATM    1  C5  UNL     1      25.066   2.924  50.562  1.00  0.00     0.707 A 
HETATM    2  N2  UNL     1      23.795   2.926  50.337  1.00  0.00    -0.058 NA
HETATM    3  C6  UNL     1      22.984   2.638  51.475  1.00  0.00     0.251 A 
HETATM    4  N3  UNL     1      23.337   2.377  52.681  1.00  0.00    -0.230 NA
HETATM    5  C7  UNL     1      24.703   2.346  53.042  1.00  0.00     0.377 A 
HETATM    6  O1  UNL     1      25.119   1.134  53.638  1.00  0.00    -0.305 OA
HETATM    7  C8  UNL     1      26.458   0.918  53.927  1.00  0.00     0.081 A 
HETATM    8  C9  UNL     1      26.948   0.048  54.847  1.00  0.00     0.037 A 
HETATM    9  C10 UNL     1      28.319  -0.028  54.993  1.00  0.00     0.003 A 
HETATM   10  C11 UNL     1      29.210   0.728  54.259  1.00  0.00     0.001 A 
HETATM   11  C12 UNL     1      28.669   1.614  53.320  1.00  0.00     0.011 A 
HETATM   12  C13 UNL     1      27.286   1.707  53.156  1.00  0.00    -0.006 A 
HETATM   13  C14 UNL     1      26.944   2.706  52.112  1.00  0.00     0.187 C 
HETATM   14  N4  UNL     1      25.522   2.655  51.896  1.00  0.00    -0.165 N 
ENDROOT
BRANCH   1  15
HETATM   15  N1  UNL     1      25.922   3.197  49.490  1.00  0.00    -0.190 N 
HETATM   16  H3  UNL     1      26.263   2.367  48.916  1.00  0.00     0.184 HD
BRANCH  15  17
HETATM   17  C4  UNL     1      26.368   4.484  49.103  1.00  0.00     0.051 A 
HETATM   18  C3  UNL     1      25.642   5.650  49.081  1.00  0.00     0.033 A 
HETATM   19  C2  UNL     1      26.102   6.873  48.708  1.00  0.00     0.046 A 
HETATM   20  C1  UNL     1      27.416   7.002  48.305  1.00  0.00     0.138 A 
HETATM   21  F1  UNL     1      27.900   8.197  47.930  1.00  0.00    -0.204 F 
HETATM   22  C16 UNL     1      28.211   5.875  48.298  1.00  0.00     0.074 A 
HETATM   23  C15 UNL     1      27.688   4.661  48.688  1.00  0.00     0.057 A 
HETATM   24 CL1  UNL     1      29.879   6.028  47.788  1.00  0.00    -0.081 Cl
ENDBRANCH  15  17
ENDBRANCH   1  15
TORSDOF 2
ENDMDL
MODEL 9
REMARK VINA RESULT:      -7.7      1.960      2.426
REMARK  2 active torsions:
REMARK  status: ('A' for Active; 'I' for Inactive)
REMARK    1  A    between atoms: C4_5  and  N1_6 
REMARK    2  A    between atoms: N1_6  and  C5_7 
ROOT
HETATM    1  C5  UNL     1      25.023   2.825  51.280  1.00  0.00     0.707 A 
HETATM    2  N2  UNL     1      25.093   3.994  50.739  1.00  0.00    -0.058 NA
HETATM    3  C6  UNL     1      24.049   4.893  51.114  1.00  0.00     0.251 A 
HETATM    4  N3  UNL     1      23.058   4.703  51.907  1.00  0.00    -0.230 NA
HETATM    5  C7  UNL     1      22.880   3.460  52.555  1.00  0.00     0.377 A 
HETATM    6  O1  UNL     1      21.621   2.861  52.328  1.00  0.00    -0.305 OA
HETATM    7  C8  UNL     1      21.357   1.584  52.799  1.00  0.00     0.081 A 
HETATM    8  C9  UNL     1      20.128   1.058  53.042  1.00  0.00     0.037 A 
HETATM    9  C10 UNL     1      20.066  -0.239  53.510  1.00  0.00     0.003 A 
HETATM   10  C11 UNL     1      21.177  -1.022  53.744  1.00  0.00     0.001 A 
HETATM   11  C12 UNL     1      22.427  -0.448  53.483  1.00  0.00     0.011 A 
HETATM   12  C13 UNL     1      22.513   0.861  53.008  1.00  0.00    -0.006 A 
HETATM   13  C14 UNL     1      23.930   1.257  52.805  1.00  0.00     0.187 C 
HETATM   14  N4  UNL     1      23.945   2.558  52.190  1.00  0.00    -0.165 N 
ENDROOT
BRANCH   1  15
HETATM   15  N1  UNL     1      26.012   1.892  50.956  1.00  0.00    -0.190 N 
HETATM   16  H3  UNL     1      26.172   1.692  49.923  1.00  0.00     0.184 HD
BRANCH  15  17
HETATM   17  C4  UNL     1      26.822   1.196  51.888  1.00  0.00     0.051 A 
HETATM   18  C3  UNL     1      26.861  -0.158  52.115  1.00  0.00     0.033 A 
HETATM   19  C2  UNL     1      27.655  -0.796  53.015  1.00  0.00     0.046 A 
HETATM   20  C1  UNL     1      28.517  -0.053  53.794  1.00  0.00     0.138 A 
HETATM   21  F1  UNL     1      29.314  -0.655  54.693  1.00  0.00    -0.204 F 
HETATM   22  C16 UNL     1      28.537   1.316  53.626  1.00  0.00     0.074 A 
HETATM   23  C15 UNL     1      27.708   1.906  52.697  1.00  0.00     0.057 A 
HETATM   24 CL1  UNL     1      29.628   2.267  54.611  1.00  0.00    -0.081 Cl
ENDBRANCH  15  17
ENDBRANCH   1  15
TORSDOF 2
ENDMDL
