MODEL 1
REMARK VINA RESULT:      -8.1      0.000      0.000
REMARK  5 active torsions:
REMARK  status: ('A' for Active; 'I' for Inactive)
REMARK    1  A    between atoms: C4_6  and  O1_7 
REMARK    2  A    between atoms: O1_7  and  C5_8 
REMARK    3  A    between atoms: C8_11  and  N3_12 
REMARK       I    between atoms: N3_12  and  C9_13 
REMARK       I    between atoms: C9_13  and  N4_15 
REMARK    4  A    between atoms: N4_15  and  C10_16 
REMARK    5  A    between atoms: C18_25  and  C19_26 
ROOT
HETATM    1  C5  UNL     1      22.119   2.068  51.740  1.00  0.00     0.078 A 
HETATM    2  C6  UNL     1      22.144   3.422  52.079  1.00  0.00     0.039 A 
HETATM    3  C7  UNL     1      22.718   4.387  51.269  1.00  0.00     0.032 A 
HETATM    4  C8  UNL     1      23.293   3.993  50.070  1.00  0.00     0.036 A 
HETATM    5  C16 UNL     1      23.269   2.649  49.732  1.00  0.00     0.032 A 
HETATM    6  C17 UNL     1      22.697   1.707  50.545  1.00  0.00     0.039 A 
ENDROOT
BRANCH   4   7
HETATM    7  N3  UNL     1      23.903   4.937  49.186  1.00  0.00    -0.309 N 
HETATM    8  C9  UNL     1      25.293   5.155  49.269  1.00  0.00     0.325 C 
HETATM    9  O2  UNL     1      25.888   4.489  50.127  1.00  0.00    -0.247 OA
HETATM   10  N4  UNL     1      26.025   6.059  48.457  1.00  0.00    -0.309 N 
HETATM   11  H8  UNL     1      25.395   6.547  47.783  1.00  0.00     0.170 HD
HETATM   12  H7  UNL     1      23.350   5.487  48.463  1.00  0.00     0.170 HD
BRANCH  10  13
HETATM   13  C10 UNL     1      27.403   6.350  48.457  1.00  0.00     0.036 A 
HETATM   14  C11 UNL     1      27.803   7.655  48.607  1.00  0.00     0.031 A 
HETATM   15  C12 UNL     1      29.130   8.023  48.618  1.00  0.00     0.021 A 
HETATM   16  C13 UNL     1      30.138   7.093  48.478  1.00  0.00     0.011 A 
HETATM   17 BR1  UNL     1      31.934   7.730  48.509  1.00  0.00    -0.051 Br
HETATM   18  C14 UNL     1      29.757   5.776  48.326  1.00  0.00     0.021 A 
HETATM   19  C15 UNL     1      28.434   5.450  48.320  1.00  0.00     0.031 A 
ENDBRANCH  10  13
ENDBRANCH   4   7
BRANCH   1  20
HETATM   20  O1  UNL     1      21.497   1.276  52.690  1.00  0.00    -0.291 OA
BRANCH  20  21
HETATM   21  C4  UNL     1      20.273   0.735  52.332  1.00  0.00     0.179 A 
HETATM   22  N2  UNL     1      19.594   1.224  51.278  1.00  0.00    -0.217 NA
HETATM   23  C3  UNL     1      18.407   0.706  50.922  1.00  0.00     0.236 A 
HETATM   24  N1  UNL     1      17.944  -0.309  51.669  1.00  0.00    -0.246 NA
HETATM   25  C2  UNL     1      18.587  -0.832  52.732  1.00  0.00     0.043 A 
HETATM   26  C1  UNL     1      17.959  -1.970  53.486  1.00  0.00     0.071 C 
HETATM   27  C18 UNL     1      19.827  -0.304  53.116  1.00  0.00     0.028 A 
BRANCH  27  28
HETATM   28  C19 UNL     1      20.442  -0.925  54.269  1.00  0.00     0.073 C 
HETATM   29  C20 UNL     1      21.659  -1.774  53.875  1.00  0.00     0.179 C 
HETATM   30  O3  UNL     1      22.087  -1.545  55.208  1.00  0.00    -0.390 OA
HETATM   31  C21 UNL     1      21.527  -0.251  55.020  1.00  0.00     0.179 C 
ENDBRANCH  27  28
ENDBRANCH  20  21
ENDBRANCH   1  20
TORSDOF 5
ENDMDL
MODEL 2
REMARK VINA RESULT:      -8.0      2.310      2.633
REMARK  5 active torsions:
REMARK  status: ('A' for Active; 'I' for Inactive)
REMARK    1  A    between atoms: C4_6  and  O1_7 
REMARK    2  A    between atoms: O1_7  and  C5_8 
REMARK    3  A    between atoms: C8_11  and  N3_12 
REMARK       I    between atoms: N3_12  and  C9_13 
REMARK       I    between atoms: C9_13  and  N4_15 
REMARK    4  A    between atoms: N4_15  and  C10_16 
REMARK    5  A    between atoms: C18_25  and  C19_26 
ROOT
HETATM    1  C5  UNL     1      22.206   1.951  52.132  1.00  0.00     0.078 A 
HETATM    2  C6  UNL     1      23.541   2.178  52.469  1.00  0.00     0.039 A 
HETATM    3  C7  UNL     1      24.086   3.447  52.564  1.00  0.00     0.032 A 
HETATM    4  C8  UNL     1      23.270   4.541  52.313  1.00  0.00     0.036 A 
HETATM    5  C16 UNL     1      21.944   4.318  51.979  1.00  0.00     0.032 A 
HETATM    6  C17 UNL     1      21.421   3.055  51.889  1.00  0.00     0.039 A 
ENDROOT
BRANCH   4   7
HETATM    7  N3  UNL     1      23.767   5.880  52.393  1.00  0.00    -0.309 N 
HETATM    8  C9  UNL     1      24.298   6.485  51.236  1.00  0.00     0.325 C 
HETATM    9  O2  UNL     1      24.288   5.783  50.215  1.00  0.00    -0.247 OA
HETATM   10  N4  UNL     1      24.823   7.800  51.173  1.00  0.00    -0.309 N 
HETATM   11  H8  UNL     1      24.765   8.268  52.104  1.00  0.00     0.170 HD
HETATM   12  H7  UNL     1      23.754   6.443  53.295  1.00  0.00     0.170 HD
BRANCH  10  13
HETATM   13  C10 UNL     1      25.372   8.495  50.077  1.00  0.00     0.036 A 
HETATM   14  C11 UNL     1      26.719   8.758  50.069  1.00  0.00     0.031 A 
HETATM   15  C12 UNL     1      27.333   9.432  49.037  1.00  0.00     0.021 A 
HETATM   16  C13 UNL     1      26.621   9.883  47.945  1.00  0.00     0.011 A 
HETATM   17 BR1  UNL     1      27.587  10.801  46.584  1.00  0.00    -0.051 Br
HETATM   18  C14 UNL     1      25.266   9.628  47.935  1.00  0.00     0.021 A 
HETATM   19  C15 UNL     1      24.694   8.959  48.975  1.00  0.00     0.031 A 
ENDBRANCH  10  13
ENDBRANCH   4   7
BRANCH   1  20
HETATM   20  O1  UNL     1      21.870   0.609  52.094  1.00  0.00    -0.291 OA
BRANCH  20  21
HETATM   21  C4  UNL     1      20.539   0.316  51.842  1.00  0.00     0.179 A 
HETATM   22  N2  UNL     1      19.946   0.758  50.719  1.00  0.00    -0.217 NA
HETATM   23  C3  UNL     1      18.656   0.479  50.464  1.00  0.00     0.236 A 
HETATM   24  N1  UNL     1      18.006  -0.253  51.384  1.00  0.00    -0.246 NA
HETATM   25  C2  UNL     1      18.557  -0.718  52.522  1.00  0.00     0.043 A 
HETATM   26  C1  UNL     1      17.719  -1.528  53.470  1.00  0.00     0.071 C 
HETATM   27  C18 UNL     1      19.901  -0.436  52.802  1.00  0.00     0.028 A 
BRANCH  27  28
HETATM   28  C19 UNL     1      20.407  -0.973  54.046  1.00  0.00     0.073 C 
HETATM   29  C20 UNL     1      21.779  -1.638  53.862  1.00  0.00     0.179 C 
HETATM   30  O3  UNL     1      21.954  -1.361  55.242  1.00  0.00    -0.390 OA
HETATM   31  C21 UNL     1      21.254  -0.158  54.949  1.00  0.00     0.179 C 
ENDBRANCH  27  28
ENDBRANCH  20  21
ENDBRANCH   1  20
TORSDOF 5
ENDMDL
MODEL 3
REMARK VINA RESULT:      -7.9      3.056      3.877
REMARK  5 active torsions:
REMARK  status: ('A' for Active; 'I' for Inactive)
REMARK    1  A    between atoms: C4_6  and  O1_7 
REMARK    2  A    between atoms: O1_7  and  C5_8 
REMARK    3  A    between atoms: C8_11  and  N3_12 
REMARK       I    between atoms: N3_12  and  C9_13 
REMARK       I    between atoms: C9_13  and  N4_15 
REMARK    4  A    between atoms: N4_15  and  C10_16 
REMARK    5  A    between atoms: C18_25  and  C19_26 
ROOT
HETATM    1  C5  UNL     1      23.407   2.671  51.447  1.00  0.00     0.078 A 
HETATM    2  C6  UNL     1      23.351   3.337  50.221  1.00  0.00     0.039 A 
HETATM    3  C7  UNL     1      23.484   4.710  50.107  1.00  0.00     0.032 A 
HETATM    4  C8  UNL     1      23.680   5.457  51.260  1.00  0.00     0.036 A 
HETATM    5  C16 UNL     1      23.737   4.798  52.477  1.00  0.00     0.032 A 
HETATM    6  C17 UNL     1      23.604   3.437  52.572  1.00  0.00     0.039 A 
ENDROOT
BRANCH   4   7
HETATM    7  N3  UNL     1      23.825   6.879  51.215  1.00  0.00    -0.309 N 
HETATM    8  C9  UNL     1      24.927   7.435  50.533  1.00  0.00     0.325 C 
HETATM    9  O2  UNL     1      25.700   6.619  50.014  1.00  0.00    -0.247 OA
HETATM   10  N4  UNL     1      25.192   8.822  50.411  1.00  0.00    -0.309 N 
HETATM   11  H8  UNL     1      24.458   9.386  50.896  1.00  0.00     0.170 HD
HETATM   12  H7  UNL     1      23.133   7.541  51.677  1.00  0.00     0.170 HD
BRANCH  10  13
HETATM   13  C10 UNL     1      26.254   9.479  49.757  1.00  0.00     0.036 A 
HETATM   14  C11 UNL     1      27.536   9.261  50.196  1.00  0.00     0.031 A 
HETATM   15  C12 UNL     1      28.628   9.862  49.612  1.00  0.00     0.021 A 
HETATM   16  C13 UNL     1      28.492  10.725  48.545  1.00  0.00     0.011 A 
HETATM   17 BR1  UNL     1      30.080  11.493  47.826  1.00  0.00    -0.051 Br
HETATM   18  C14 UNL     1      27.211  10.957  48.089  1.00  0.00     0.021 A 
HETATM   19  C15 UNL     1      26.155  10.343  48.693  1.00  0.00     0.031 A 
ENDBRANCH  10  13
ENDBRANCH   4   7
BRANCH   1  20
HETATM   20  O1  UNL     1      23.251   1.300  51.334  1.00  0.00    -0.291 OA
BRANCH  20  21
HETATM   21  C4  UNL     1      23.642   0.545  52.428  1.00  0.00     0.179 A 
HETATM   22  N2  UNL     1      24.940   0.475  52.778  1.00  0.00    -0.217 NA
HETATM   23  C3  UNL     1      25.329  -0.254  53.838  1.00  0.00     0.236 A 
HETATM   24  N1  UNL     1      24.364  -0.897  54.513  1.00  0.00    -0.246 NA
HETATM   25  C2  UNL     1      23.054  -0.857  54.201  1.00  0.00     0.043 A 
HETATM   26  C1  UNL     1      22.072  -1.624  55.041  1.00  0.00     0.071 C 
HETATM   27  C18 UNL     1      22.631  -0.101  53.100  1.00  0.00     0.028 A 
BRANCH  27  28
HETATM   28  C19 UNL     1      21.208  -0.117  52.839  1.00  0.00     0.073 C 
HETATM   29  C20 UNL     1      20.547   1.218  53.211  1.00  0.00     0.179 C 
HETATM   30  O3  UNL     1      19.560   0.845  52.263  1.00  0.00    -0.390 OA
HETATM   31  C21 UNL     1      20.659   0.315  51.532  1.00  0.00     0.179 C 
ENDBRANCH  27  28
ENDBRANCH  20  21
ENDBRANCH   1  20
TORSDOF 5
ENDMDL
MODEL 4
REMARK VINA RESULT:      -7.9      2.851      3.660
REMARK  5 active torsions:
REMARK  status: ('A' for Active; 'I' for Inactive)
REMARK    1  A    between atoms: C4_6  and  O1_7 
REMARK    2  A    between atoms: O1_7  and  C5_8 
REMARK    3  A    between atoms: C8_11  and  N3_12 
REMARK       I    between atoms: N3_12  and  C9_13 
REMARK       I    between atoms: C9_13  and  N4_15 
REMARK    4  A    between atoms: N4_15  and  C10_16 
REMARK    5  A    between atoms: C18_25  and  C19_26 
ROOT
HETATM    1  C5  UNL     1      23.566   2.411  51.795  1.00  0.00     0.078 A 
HETATM    2  C6  UNL     1      23.412   3.003  50.540  1.00  0.00     0.039 A 
HETATM    3  C7  UNL     1      23.457   4.373  50.347  1.00  0.00     0.032 A 
HETATM    4  C8  UNL     1      23.662   5.194  51.446  1.00  0.00     0.036 A 
HETATM    5  C16 UNL     1      23.815   4.608  52.693  1.00  0.00     0.032 A 
HETATM    6  C17 UNL     1      23.768   3.249  52.866  1.00  0.00     0.039 A 
ENDROOT
BRANCH   4   7
HETATM    7  N3  UNL     1      23.720   6.617  51.319  1.00  0.00    -0.309 N 
HETATM    8  C9  UNL     1      24.819   7.203  50.659  1.00  0.00     0.325 C 
HETATM    9  O2  UNL     1      25.669   6.410  50.232  1.00  0.00    -0.247 OA
HETATM   10  N4  UNL     1      25.002   8.595  50.463  1.00  0.00    -0.309 N 
HETATM   11  H8  UNL     1      24.209   9.136  50.874  1.00  0.00     0.170 HD
HETATM   12  H7  UNL     1      22.963   7.258  51.703  1.00  0.00     0.170 HD
BRANCH  10  13
HETATM   13  C10 UNL     1      26.054   9.280  49.823  1.00  0.00     0.036 A 
HETATM   14  C11 UNL     1      25.769  10.054  48.727  1.00  0.00     0.031 A 
HETATM   15  C12 UNL     1      26.738  10.755  48.046  1.00  0.00     0.021 A 
HETATM   16  C13 UNL     1      28.062  10.717  48.432  1.00  0.00     0.011 A 
HETATM   17 BR1  UNL     1      29.307  11.730  47.406  1.00  0.00    -0.051 Br
HETATM   18  C14 UNL     1      28.369   9.943  49.532  1.00  0.00     0.021 A 
HETATM   19  C15 UNL     1      27.382   9.264  50.180  1.00  0.00     0.031 A 
ENDBRANCH  10  13
ENDBRANCH   4   7
BRANCH   1  20
HETATM   20  O1  UNL     1      23.487   1.029  51.762  1.00  0.00    -0.291 OA
BRANCH  20  21
HETATM   21  C4  UNL     1      22.751   0.432  52.773  1.00  0.00     0.179 A 
HETATM   22  N2  UNL     1      21.415   0.583  52.822  1.00  0.00    -0.217 NA
HETATM   23  C3  UNL     1      20.691   0.008  53.797  1.00  0.00     0.236 A 
HETATM   24  N1  UNL     1      21.370  -0.713  54.705  1.00  0.00    -0.246 NA
HETATM   25  C2  UNL     1      22.706  -0.892  54.697  1.00  0.00     0.043 A 
HETATM   26  C1  UNL     1      23.344  -1.724  55.773  1.00  0.00     0.071 C 
HETATM   27  C18 UNL     1      23.474  -0.300  53.686  1.00  0.00     0.028 A 
BRANCH  27  28
HETATM   28  C19 UNL     1      24.898  -0.544  53.758  1.00  0.00     0.073 C 
HETATM   29  C20 UNL     1      25.589  -0.283  52.412  1.00  0.00     0.179 C 
HETATM   30  O3  UNL     1      26.750  -0.066  53.197  1.00  0.00    -0.390 OA
HETATM   31  C21 UNL     1      25.849   0.534  54.118  1.00  0.00     0.179 C 
ENDBRANCH  27  28
ENDBRANCH  20  21
ENDBRANCH   1  20
TORSDOF 5
ENDMDL
MODEL 5
REMARK VINA RESULT:      -7.8     23.963     25.804
REMARK  5 active torsions:
REMARK  status: ('A' for Active; 'I' for Inactive)
REMARK    1  A    between atoms: C4_6  and  O1_7 
REMARK    2  A    between atoms: O1_7  and  C5_8 
REMARK    3  A    between atoms: C8_11  and  N3_12 
REMARK       I    between atoms: N3_12  and  C9_13 
REMARK       I    between atoms: C9_13  and  N4_15 
REMARK    4  A    between atoms: N4_15  and  C10_16 
REMARK    5  A    between atoms: C18_25  and  C19_26 
ROOT
HETATM    1  C5  UNL     1      42.885   1.933  68.890  1.00  0.00     0.078 A 
HETATM    2  C6  UNL     1      42.757   3.278  69.243  1.00  0.00     0.039 A 
HETATM    3  C7  UNL     1      43.572   4.270  68.725  1.00  0.00     0.032 A 
HETATM    4  C8  UNL     1      44.557   3.914  67.816  1.00  0.00     0.036 A 
HETATM    5  C16 UNL     1      44.685   2.580  67.464  1.00  0.00     0.032 A 
HETATM    6  C17 UNL     1      43.871   1.610  67.987  1.00  0.00     0.039 A 
ENDROOT
BRANCH   4   7
HETATM    7  N3  UNL     1      45.433   4.888  67.242  1.00  0.00    -0.309 N 
HETATM    8  C9  UNL     1      45.322   5.185  65.869  1.00  0.00     0.325 C 
HETATM    9  O2  UNL     1      44.446   4.559  65.256  1.00  0.00    -0.247 OA
HETATM   10  N4  UNL     1      46.123   6.125  65.172  1.00  0.00    -0.309 N 
HETATM   11  H8  UNL     1      46.814   6.573  65.814  1.00  0.00     0.170 HD
HETATM   12  H7  UNL     1      46.171   5.401  67.810  1.00  0.00     0.170 HD
BRANCH  10  13
HETATM   13  C10 UNL     1      46.094   6.495  63.813  1.00  0.00     0.036 A 
HETATM   14  C11 UNL     1      46.173   7.827  63.489  1.00  0.00     0.031 A 
HETATM   15  C12 UNL     1      46.152   8.271  62.186  1.00  0.00     0.021 A 
HETATM   16  C13 UNL     1      46.050   7.395  61.126  1.00  0.00     0.011 A 
HETATM   17 BR1  UNL     1      46.032   8.136  59.371  1.00  0.00    -0.051 Br
HETATM   18  C14 UNL     1      45.970   6.052  61.431  1.00  0.00     0.021 A 
HETATM   19  C15 UNL     1      45.994   5.651  62.733  1.00  0.00     0.031 A 
ENDBRANCH  10  13
ENDBRANCH   4   7
BRANCH   1  20
HETATM   20  O1  UNL     1      41.970   1.110  69.525  1.00  0.00    -0.291 OA
BRANCH  20  21
HETATM   21  C4  UNL     1      41.377   0.133  68.741  1.00  0.00     0.179 A 
HETATM   22  N2  UNL     1      40.568   0.476  67.722  1.00  0.00    -0.217 NA
HETATM   23  C3  UNL     1      39.988  -0.463  66.956  1.00  0.00     0.236 A 
HETATM   24  N1  UNL     1      40.257  -1.741  67.264  1.00  0.00    -0.246 NA
HETATM   25  C2  UNL     1      41.059  -2.133  68.274  1.00  0.00     0.043 A 
HETATM   26  C1  UNL     1      41.279  -3.600  68.514  1.00  0.00     0.071 C 
HETATM   27  C18 UNL     1      41.672  -1.167  69.082  1.00  0.00     0.028 A 
BRANCH  27  28
HETATM   28  C19 UNL     1      42.514  -1.678  70.141  1.00  0.00     0.073 C 
HETATM   29  C20 UNL     1      44.003  -1.585  69.780  1.00  0.00     0.179 C 
HETATM   30  O3  UNL     1      44.210  -1.578  71.183  1.00  0.00    -0.390 OA
HETATM   31  C21 UNL     1      43.024  -0.794  71.216  1.00  0.00     0.179 C 
ENDBRANCH  27  28
ENDBRANCH  20  21
ENDBRANCH   1  20
TORSDOF 5
ENDMDL
MODEL 6
REMARK VINA RESULT:      -7.8      5.008     10.689
REMARK  5 active torsions:
REMARK  status: ('A' for Active; 'I' for Inactive)
REMARK    1  A    between atoms: C4_6  and  O1_7 
REMARK    2  A    between atoms: O1_7  and  C5_8 
REMARK    3  A    between atoms: C8_11  and  N3_12 
REMARK       I    between atoms: N3_12  and  C9_13 
REMARK       I    between atoms: C9_13  and  N4_15 
REMARK    4  A    between atoms: N4_15  and  C10_16 
REMARK    5  A    between atoms: C18_25  and  C19_26 
ROOT
HETATM    1  C5  UNL     1      22.783   2.993  51.017  1.00  0.00     0.078 A 
HETATM    2  C6  UNL     1      23.193   1.699  51.346  1.00  0.00     0.039 A 
HETATM    3  C7  UNL     1      22.470   0.876  52.192  1.00  0.00     0.032 A 
HETATM    4  C8  UNL     1      21.287   1.355  52.736  1.00  0.00     0.036 A 
HETATM    5  C16 UNL     1      20.879   2.638  52.411  1.00  0.00     0.032 A 
HETATM    6  C17 UNL     1      21.607   3.441  51.572  1.00  0.00     0.039 A 
ENDROOT
BRANCH   4   7
HETATM    7  N3  UNL     1      20.491   0.558  53.617  1.00  0.00    -0.309 N 
HETATM    8  C9  UNL     1      19.489  -0.271  53.074  1.00  0.00     0.325 C 
HETATM    9  O2  UNL     1      19.380  -0.239  51.841  1.00  0.00    -0.247 OA
HETATM   10  N4  UNL     1      18.630  -1.110  53.828  1.00  0.00    -0.309 N 
HETATM   11  H8  UNL     1      18.838  -1.034  54.849  1.00  0.00     0.170 HD
HETATM   12  H7  UNL     1      20.623   0.564  54.673  1.00  0.00     0.170 HD
BRANCH  10  13
HETATM   13  C10 UNL     1      17.605  -1.971  53.390  1.00  0.00     0.036 A 
HETATM   14  C11 UNL     1      17.663  -3.298  53.735  1.00  0.00     0.031 A 
HETATM   15  C12 UNL     1      16.702  -4.204  53.347  1.00  0.00     0.021 A 
HETATM   16  C13 UNL     1      15.618  -3.824  52.584  1.00  0.00     0.011 A 
HETATM   17 BR1  UNL     1      14.358  -5.173  52.112  1.00  0.00    -0.051 Br
HETATM   18  C14 UNL     1      15.542  -2.494  52.226  1.00  0.00     0.021 A 
HETATM   19  C15 UNL     1      16.512  -1.627  52.629  1.00  0.00     0.031 A 
ENDBRANCH  10  13
ENDBRANCH   4   7
BRANCH   1  20
HETATM   20  O1  UNL     1      23.652   3.642  50.157  1.00  0.00    -0.291 OA
BRANCH  20  21
HETATM   21  C4  UNL     1      23.133   4.022  48.930  1.00  0.00     0.179 A 
HETATM   22  N2  UNL     1      22.508   3.123  48.147  1.00  0.00    -0.217 NA
HETATM   23  C3  UNL     1      22.000   3.482  46.956  1.00  0.00     0.236 A 
HETATM   24  N1  UNL     1      22.152   4.767  46.599  1.00  0.00    -0.246 NA
HETATM   25  C2  UNL     1      22.768   5.702  47.349  1.00  0.00     0.043 A 
HETATM   26  C1  UNL     1      22.871   7.110  46.833  1.00  0.00     0.071 C 
HETATM   27  C18 UNL     1      23.303   5.345  48.594  1.00  0.00     0.028 A 
BRANCH  27  28
HETATM   28  C19 UNL     1      23.948   6.412  49.327  1.00  0.00     0.073 C 
HETATM   29  C20 UNL     1      23.119   6.847  50.545  1.00  0.00     0.179 C 
HETATM   30  O3  UNL     1      24.360   7.289  51.069  1.00  0.00    -0.390 OA
HETATM   31  C21 UNL     1      24.885   6.126  50.440  1.00  0.00     0.179 C 
ENDBRANCH  27  28
ENDBRANCH  20  21
ENDBRANCH   1  20
TORSDOF 5
ENDMDL
MODEL 7
REMARK VINA RESULT:      -7.8     23.359     25.219
REMARK  5 active torsions:
REMARK  status: ('A' for Active; 'I' for Inactive)
REMARK    1  A    between atoms: C4_6  and  O1_7 
REMARK    2  A    between atoms: O1_7  and  C5_8 
REMARK    3  A    between atoms: C8_11  and  N3_12 
REMARK       I    between atoms: N3_12  and  C9_13 
REMARK       I    between atoms: C9_13  and  N4_15 
REMARK    4  A    between atoms: N4_15  and  C10_16 
REMARK    5  A    between atoms: C18_25  and  C19_26 
ROOT
HETATM    1  C5  UNL     1      42.683   2.115  69.293  1.00  0.00     0.078 A 
HETATM    2  C6  UNL     1      43.687   1.619  68.460  1.00  0.00     0.039 A 
HETATM    3  C7  UNL     1      44.600   2.438  67.817  1.00  0.00     0.032 A 
HETATM    4  C8  UNL     1      44.512   3.809  68.006  1.00  0.00     0.036 A 
HETATM    5  C16 UNL     1      43.516   4.303  68.833  1.00  0.00     0.032 A 
HETATM    6  C17 UNL     1      42.620   3.479  69.463  1.00  0.00     0.039 A 
ENDROOT
BRANCH   4   7
HETATM    7  N3  UNL     1      45.421   4.713  67.372  1.00  0.00    -0.309 N 
HETATM    8  C9  UNL     1      45.285   4.968  65.993  1.00  0.00     0.325 C 
HETATM    9  O2  UNL     1      44.359   4.370  65.429  1.00  0.00    -0.247 OA
HETATM   10  N4  UNL     1      46.114   5.837  65.241  1.00  0.00    -0.309 N 
HETATM   11  H8  UNL     1      46.847   6.269  65.846  1.00  0.00     0.170 HD
HETATM   12  H7  UNL     1      46.203   5.204  67.900  1.00  0.00     0.170 HD
BRANCH  10  13
HETATM   13  C10 UNL     1      46.065   6.161  63.870  1.00  0.00     0.036 A 
HETATM   14  C11 UNL     1      46.105   7.483  63.501  1.00  0.00     0.031 A 
HETATM   15  C12 UNL     1      46.063   7.882  62.185  1.00  0.00     0.021 A 
HETATM   16  C13 UNL     1      45.975   6.969  61.155  1.00  0.00     0.011 A 
HETATM   17 BR1  UNL     1      45.922   7.650  59.377  1.00  0.00    -0.051 Br
HETATM   18  C14 UNL     1      45.932   5.636  61.505  1.00  0.00     0.021 A 
HETATM   19  C15 UNL     1      45.977   5.279  62.820  1.00  0.00     0.031 A 
ENDBRANCH  10  13
ENDBRANCH   4   7
BRANCH   1  20
HETATM   20  O1  UNL     1      41.881   1.125  69.835  1.00  0.00    -0.291 OA
BRANCH  20  21
HETATM   21  C4  UNL     1      40.514   1.339  69.772  1.00  0.00     0.179 A 
HETATM   22  N2  UNL     1      39.960   2.391  70.402  1.00  0.00    -0.217 NA
HETATM   23  C3  UNL     1      38.635   2.608  70.347  1.00  0.00     0.236 A 
HETATM   24  N1  UNL     1      37.909   1.726  69.641  1.00  0.00    -0.246 NA
HETATM   25  C2  UNL     1      38.418   0.659  68.995  1.00  0.00     0.043 A 
HETATM   26  C1  UNL     1      37.495  -0.253  68.237  1.00  0.00     0.071 C 
HETATM   27  C18 UNL     1      39.798   0.419  69.041  1.00  0.00     0.028 A 
BRANCH  27  28
HETATM   28  C19 UNL     1      40.255  -0.749  68.321  1.00  0.00     0.073 C 
HETATM   29  C20 UNL     1      40.994  -0.368  67.030  1.00  0.00     0.179 C 
HETATM   30  O3  UNL     1      41.629  -1.628  67.175  1.00  0.00    -0.390 OA
HETATM   31  C21 UNL     1      41.596  -1.331  68.566  1.00  0.00     0.179 C 
ENDBRANCH  27  28
ENDBRANCH  20  21
ENDBRANCH   1  20
TORSDOF 5
ENDMDL
MODEL 8
REMARK VINA RESULT:      -7.7      4.469      7.352
REMARK  5 active torsions:
REMARK  status: ('A' for Active; 'I' for Inactive)
REMARK    1  A    between atoms: C4_6  and  O1_7 
REMARK    2  A    between atoms: O1_7  and  C5_8 
REMARK    3  A    between atoms: C8_11  and  N3_12 
REMARK       I    between atoms: N3_12  and  C9_13 
REMARK       I    between atoms: C9_13  and  N4_15 
REMARK    4  A    between atoms: N4_15  and  C10_16 
REMARK    5  A    between atoms: C18_25  and  C19_26 
ROOT
HETATM    1  C5  UNL     1      26.125   5.975  49.159  1.00  0.00     0.078 A 
HETATM    2  C6  UNL     1      27.295   6.298  48.470  1.00  0.00     0.039 A 
HETATM    3  C7  UNL     1      27.976   7.487  48.664  1.00  0.00     0.032 A 
HETATM    4  C8  UNL     1      27.475   8.398  49.582  1.00  0.00     0.036 A 
HETATM    5  C16 UNL     1      26.314   8.080  50.267  1.00  0.00     0.032 A 
HETATM    6  C17 UNL     1      25.652   6.898  50.063  1.00  0.00     0.039 A 
ENDROOT
BRANCH   4   7
HETATM    7  N3  UNL     1      28.128   9.646  49.832  1.00  0.00    -0.309 N 
HETATM    8  C9  UNL     1      27.851  10.745  48.994  1.00  0.00     0.325 C 
HETATM    9  O2  UNL     1      27.040  10.530  48.083  1.00  0.00    -0.247 OA
HETATM   10  N4  UNL     1      28.425  12.034  49.126  1.00  0.00    -0.309 N 
HETATM   11  H8  UNL     1      29.087  12.066  49.934  1.00  0.00     0.170 HD
HETATM   12  H7  UNL     1      28.819   9.782  50.629  1.00  0.00     0.170 HD
BRANCH  10  13
HETATM   13  C10 UNL     1      28.220  13.192  48.350  1.00  0.00     0.036 A 
HETATM   14  C11 UNL     1      29.281  13.722  47.660  1.00  0.00     0.031 A 
HETATM   15  C12 UNL     1      29.163  14.850  46.879  1.00  0.00     0.021 A 
HETATM   16  C13 UNL     1      27.963  15.515  46.747  1.00  0.00     0.011 A 
HETATM   17 BR1  UNL     1      27.931  17.064  45.638  1.00  0.00    -0.051 Br
HETATM   18  C14 UNL     1      26.884  14.998  47.434  1.00  0.00     0.021 A 
HETATM   19  C15 UNL     1      27.039  13.879  48.196  1.00  0.00     0.031 A 
ENDBRANCH  10  13
ENDBRANCH   4   7
BRANCH   1  20
HETATM   20  O1  UNL     1      25.608   4.738  48.813  1.00  0.00    -0.291 OA
BRANCH  20  21
HETATM   21  C4  UNL     1      25.611   3.772  49.806  1.00  0.00     0.179 A 
HETATM   22  N2  UNL     1      26.763   3.412  50.403  1.00  0.00    -0.217 NA
HETATM   23  C3  UNL     1      26.776   2.477  51.367  1.00  0.00     0.236 A 
HETATM   24  N1  UNL     1      25.594   1.931  51.693  1.00  0.00    -0.246 NA
HETATM   25  C2  UNL     1      24.417   2.259  51.126  1.00  0.00     0.043 A 
HETATM   26  C1  UNL     1      23.161   1.572  51.583  1.00  0.00     0.071 C 
HETATM   27  C18 UNL     1      24.384   3.233  50.119  1.00  0.00     0.028 A 
BRANCH  27  28
HETATM   28  C19 UNL     1      23.079   3.519  49.566  1.00  0.00     0.073 C 
HETATM   29  C20 UNL     1      22.506   4.834  50.112  1.00  0.00     0.179 C 
HETATM   30  O3  UNL     1      21.748   4.851  48.913  1.00  0.00    -0.390 OA
HETATM   31  C21 UNL     1      22.925   4.312  48.323  1.00  0.00     0.179 C 
ENDBRANCH  27  28
ENDBRANCH  20  21
ENDBRANCH   1  20
TORSDOF 5
ENDMDL
MODEL 9
REMARK VINA RESULT:      -7.7      2.493      3.411
REMARK  5 active torsions:
REMARK  status: ('A' for Active; 'I' for Inactive)
REMARK    1  A    between atoms: C4_6  and  O1_7 
REMARK    2  A    between atoms: O1_7  and  C5_8 
REMARK    3  A    between atoms: C8_11  and  N3_12 
REMARK       I    between atoms: N3_12  and  C9_13 
REMARK       I    between atoms: C9_13  and  N4_15 
REMARK    4  A    between atoms: N4_15  and  C10_16 
REMARK    5  A    between atoms: C18_25  and  C19_26 
ROOT
HETATM    1  C5  UNL     1      23.291   2.735  50.742  1.00  0.00     0.078 A 
HETATM    2  C6  UNL     1      23.530   3.004  49.394  1.00  0.00     0.039 A 
HETATM    3  C7  UNL     1      23.985   4.231  48.942  1.00  0.00     0.032 A 
HETATM    4  C8  UNL     1      24.213   5.237  49.869  1.00  0.00     0.036 A 
HETATM    5  C16 UNL     1      23.978   4.972  51.209  1.00  0.00     0.032 A 
HETATM    6  C17 UNL     1      23.527   3.751  51.639  1.00  0.00     0.039 A 
ENDROOT
BRANCH   4   7
HETATM    7  N3  UNL     1      24.683   6.528  49.473  1.00  0.00    -0.309 N 
HETATM    8  C9  UNL     1      26.052   6.701  49.184  1.00  0.00     0.325 C 
HETATM    9  O2  UNL     1      26.754   5.687  49.301  1.00  0.00    -0.247 OA
HETATM   10  N4  UNL     1      26.651   7.921  48.781  1.00  0.00    -0.309 N 
HETATM   11  H8  UNL     1      25.940   8.684  48.725  1.00  0.00     0.170 HD
HETATM   12  H7  UNL     1      24.040   7.371  49.385  1.00  0.00     0.170 HD
BRANCH  10  13
HETATM   13  C10 UNL     1      27.997   8.200  48.470  1.00  0.00     0.036 A 
HETATM   14  C11 UNL     1      28.506   7.752  47.277  1.00  0.00     0.031 A 
HETATM   15  C12 UNL     1      29.810   7.983  46.899  1.00  0.00     0.021 A 
HETATM   16  C13 UNL     1      30.682   8.684  47.705  1.00  0.00     0.011 A 
HETATM   17 BR1  UNL     1      32.460   8.936  47.067  1.00  0.00    -0.051 Br
HETATM   18  C14 UNL     1      30.189   9.142  48.909  1.00  0.00     0.021 A 
HETATM   19  C15 UNL     1      28.893   8.894  49.249  1.00  0.00     0.031 A 
ENDBRANCH  10  13
ENDBRANCH   4   7
BRANCH   1  20
HETATM   20  O1  UNL     1      22.840   1.446  50.974  1.00  0.00    -0.291 OA
BRANCH  20  21
HETATM   21  C4  UNL     1      23.417   0.777  52.041  1.00  0.00     0.179 A 
HETATM   22  N2  UNL     1      24.753   0.776  52.204  1.00  0.00    -0.217 NA
HETATM   23  C3  UNL     1      25.321   0.131  53.236  1.00  0.00     0.236 A 
HETATM   24  N1  UNL     1      24.492  -0.505  54.079  1.00  0.00    -0.246 NA
HETATM   25  C2  UNL     1      23.150  -0.532  53.958  1.00  0.00     0.043 A 
HETATM   26  C1  UNL     1      22.333  -1.281  54.972  1.00  0.00     0.071 C 
HETATM   27  C18 UNL     1      22.541   0.137  52.888  1.00  0.00     0.028 A 
BRANCH  27  28
HETATM   28  C19 UNL     1      21.098   0.051  52.836  1.00  0.00     0.073 C 
HETATM   29  C20 UNL     1      20.438   1.414  53.095  1.00  0.00     0.179 C 
HETATM   30  O3  UNL     1      19.348   0.879  52.363  1.00  0.00    -0.390 OA
HETATM   31  C21 UNL     1      20.358   0.267  51.570  1.00  0.00     0.179 C 
ENDBRANCH  27  28
ENDBRANCH  20  21
ENDBRANCH   1  20
TORSDOF 5
ENDMDL
