MODEL 1
REMARK VINA RESULT:      -8.0      0.000      0.000
REMARK  0 active torsions:
REMARK  status: ('A' for Active; 'I' for Inactive)
ROOT
HETATM    1  N1  UNL     1      21.619  -0.052  55.198  1.00  0.00    -0.116 NA
HETATM    2  C1  UNL     1      21.402  -0.653  54.107  1.00  0.00     0.716 C 
HETATM    3  N2  UNL     1      22.846  -0.842  53.956  1.00  0.00    -0.063 NA
HETATM    4  C2  UNL     1      23.339   0.137  53.159  1.00  0.00     0.087 C 
HETATM    5  C3  UNL     1      24.768  -0.049  53.027  1.00  0.00     0.011 A 
HETATM    6  C4  UNL     1      25.634   0.757  52.323  1.00  0.00     0.017 A 
HETATM    7  C5  UNL     1      26.979   0.549  52.197  1.00  0.00     0.020 A 
HETATM    8  C6  UNL     1      27.570  -0.528  52.794  1.00  0.00     0.116 A 
HETATM    9  N3  UNL     1      26.781  -1.354  53.496  1.00  0.00    -0.272 NA
HETATM   10  C7  UNL     1      25.469  -1.094  53.582  1.00  0.00     0.130 A 
HETATM   11  C8  UNL     1      22.798   1.222  52.290  1.00  0.00     0.030 C 
HETATM   12  C9  UNL     1      21.706   1.800  51.745  1.00  0.00    -0.007 C 
HETATM   13  C10 UNL     1      20.208   1.421  51.862  1.00  0.00     0.033 A 
HETATM   14  C11 UNL     1      19.644   1.070  50.681  1.00  0.00    -0.009 A 
HETATM   15  C12 UNL     1      18.762   0.020  51.049  1.00  0.00     0.013 A 
HETATM   16  C13 UNL     1      18.681  -0.395  52.403  1.00  0.00     0.014 A 
HETATM   17  I1  UNL     1      17.456  -1.934  53.120  1.00  0.00    -0.046 I 
HETATM   18  C14 UNL     1      19.551   0.404  53.096  1.00  0.00     0.101 A 
HETATM   19  C15 UNL     1      20.468   1.422  53.148  1.00  0.00     0.048 A 
HETATM   20  N4  UNL     1      19.933  -0.461  54.260  1.00  0.00    -0.207 N 
HETATM   21  H1  UNL     1      22.610   0.049  55.505  1.00  0.00     0.206 HD
HETATM   22  H11 UNL     1      19.339  -0.870  54.999  1.00  0.00     0.179 HD
ENDROOT
TORSDOF 0
ENDMDL
MODEL 2
REMARK VINA RESULT:      -7.9      2.630      3.631
REMARK  0 active torsions:
REMARK  status: ('A' for Active; 'I' for Inactive)
ROOT
HETATM    1  N1  UNL     1      23.569  -0.339  53.939  1.00  0.00    -0.116 NA
HETATM    2  C1  UNL     1      23.778  -0.157  52.706  1.00  0.00     0.716 C 
HETATM    3  N2  UNL     1      25.048  -0.871  52.843  1.00  0.00    -0.063 NA
HETATM    4  C2  UNL     1      26.048   0.030  53.005  1.00  0.00     0.087 C 
HETATM    5  C3  UNL     1      27.297  -0.685  53.154  1.00  0.00     0.011 A 
HETATM    6  C4  UNL     1      28.536  -0.124  53.369  1.00  0.00     0.017 A 
HETATM    7  C5  UNL     1      29.706  -0.821  53.487  1.00  0.00     0.020 A 
HETATM    8  C6  UNL     1      29.711  -2.184  53.392  1.00  0.00     0.116 A 
HETATM    9  N3  UNL     1      28.535  -2.792  53.183  1.00  0.00    -0.272 NA
HETATM   10  C7  UNL     1      27.423  -2.051  53.077  1.00  0.00     0.130 A 
HETATM   11  C8  UNL     1      26.216   1.510  52.917  1.00  0.00     0.030 C 
HETATM   12  C9  UNL     1      25.656   2.698  52.606  1.00  0.00    -0.007 C 
HETATM   13  C10 UNL     1      24.239   3.030  52.071  1.00  0.00     0.033 A 
HETATM   14  C11 UNL     1      24.244   3.599  50.842  1.00  0.00    -0.009 A 
HETATM   15  C12 UNL     1      23.100   3.029  50.223  1.00  0.00     0.013 A 
HETATM   16  C13 UNL     1      22.305   2.091  50.931  1.00  0.00     0.014 A 
HETATM   17  I1  UNL     1      20.603   1.139  50.170  1.00  0.00    -0.046 I 
HETATM   18  C14 UNL     1      22.885   1.959  52.164  1.00  0.00     0.101 A 
HETATM   19  C15 UNL     1      23.854   2.283  53.079  1.00  0.00     0.048 A 
HETATM   20  N4  UNL     1      22.486   0.570  52.566  1.00  0.00    -0.207 N 
HETATM   21  H1  UNL     1      24.294  -0.859  54.481  1.00  0.00     0.206 HD
HETATM   22  H11 UNL     1      21.544   0.169  52.697  1.00  0.00     0.179 HD
ENDROOT
TORSDOF 0
ENDMDL
MODEL 3
REMARK VINA RESULT:      -7.9      2.669      3.726
REMARK  0 active torsions:
REMARK  status: ('A' for Active; 'I' for Inactive)
ROOT
HETATM    1  N1  UNL     1      24.312   1.728  50.766  1.00  0.00    -0.116 NA
HETATM    2  C1  UNL     1      23.794   2.104  51.857  1.00  0.00     0.716 C 
HETATM    3  N2  UNL     1      25.139   2.228  52.421  1.00  0.00    -0.063 NA
HETATM    4  C2  UNL     1      25.436   1.101  53.111  1.00  0.00     0.087 C 
HETATM    5  C3  UNL     1      26.772   1.227  53.653  1.00  0.00     0.011 A 
HETATM    6  C4  UNL     1      27.446   0.279  54.389  1.00  0.00     0.017 A 
HETATM    7  C5  UNL     1      28.702   0.430  54.907  1.00  0.00     0.020 A 
HETATM    8  C6  UNL     1      29.393   1.592  54.714  1.00  0.00     0.116 A 
HETATM    9  N3  UNL     1      28.792   2.557  54.004  1.00  0.00    -0.272 NA
HETATM   10  C7  UNL     1      27.559   2.346  53.523  1.00  0.00     0.130 A 
HETATM   11  C8  UNL     1      24.721  -0.124  53.573  1.00  0.00     0.030 C 
HETATM   12  C9  UNL     1      23.543  -0.776  53.682  1.00  0.00    -0.007 C 
HETATM   13  C10 UNL     1      22.117  -0.351  53.247  1.00  0.00     0.033 A 
HETATM   14  C11 UNL     1      21.249  -0.231  54.281  1.00  0.00    -0.009 A 
HETATM   15  C12 UNL     1      20.462   0.890  53.906  1.00  0.00     0.013 A 
HETATM   16  C13 UNL     1      20.728   1.568  52.688  1.00  0.00     0.014 A 
HETATM   17  I1  UNL     1      19.686   3.244  51.990  1.00  0.00    -0.046 I 
HETATM   18  C14 UNL     1      21.777   0.905  52.109  1.00  0.00     0.101 A 
HETATM   19  C15 UNL     1      22.709  -0.101  52.103  1.00  0.00     0.048 A 
HETATM   20  N4  UNL     1      22.425   1.977  51.283  1.00  0.00    -0.207 N 
HETATM   21  H1  UNL     1      25.352   1.669  50.721  1.00  0.00     0.206 HD
HETATM   22  H11 UNL     1      22.035   2.536  50.508  1.00  0.00     0.179 HD
ENDROOT
TORSDOF 0
ENDMDL
MODEL 4
REMARK VINA RESULT:      -7.7      3.431      6.509
REMARK  0 active torsions:
REMARK  status: ('A' for Active; 'I' for Inactive)
ROOT
HETATM    1  N1  UNL     1      22.285   3.838  52.307  1.00  0.00    -0.116 NA
HETATM    2  C1  UNL     1      22.798   2.984  51.528  1.00  0.00     0.716 C 
HETATM    3  N2  UNL     1      21.529   2.255  51.535  1.00  0.00    -0.063 NA
HETATM    4  C2  UNL     1      21.597   1.257  52.449  1.00  0.00     0.087 C 
HETATM    5  C3  UNL     1      20.334   0.551  52.459  1.00  0.00     0.011 A 
HETATM    6  C4  UNL     1      19.998  -0.507  53.273  1.00  0.00     0.017 A 
HETATM    7  C5  UNL     1      18.803  -1.171  53.250  1.00  0.00     0.020 A 
HETATM    8  C6  UNL     1      17.825  -0.802  52.371  1.00  0.00     0.116 A 
HETATM    9  N3  UNL     1      18.089   0.224  51.549  1.00  0.00    -0.272 NA
HETATM   10  C7  UNL     1      19.281   0.833  51.622  1.00  0.00     0.130 A 
HETATM   11  C8  UNL     1      22.641   0.620  53.303  1.00  0.00     0.030 C 
HETATM   12  C9  UNL     1      23.950   0.544  53.627  1.00  0.00    -0.007 C 
HETATM   13  C10 UNL     1      25.171   1.306  53.052  1.00  0.00     0.033 A 
HETATM   14  C11 UNL     1      26.080   0.499  52.453  1.00  0.00    -0.009 A 
HETATM   15  C12 UNL     1      26.517   1.278  51.349  1.00  0.00     0.013 A 
HETATM   16  C13 UNL     1      25.967   2.567  51.129  1.00  0.00     0.014 A 
HETATM   17  I1  UNL     1      26.477   3.839  49.547  1.00  0.00    -0.046 I 
HETATM   18  C14 UNL     1      25.067   2.771  52.140  1.00  0.00     0.101 A 
HETATM   19  C15 UNL     1      24.423   2.360  53.279  1.00  0.00     0.048 A 
HETATM   20  N4  UNL     1      24.090   3.726  51.520  1.00  0.00    -0.207 N 
HETATM   21  H1  UNL     1      21.294   3.692  52.598  1.00  0.00     0.206 HD
HETATM   22  H11 UNL     1      24.246   4.673  51.141  1.00  0.00     0.179 HD
ENDROOT
TORSDOF 0
ENDMDL
MODEL 5
REMARK VINA RESULT:      -7.7      3.854      4.414
REMARK  0 active torsions:
REMARK  status: ('A' for Active; 'I' for Inactive)
ROOT
HETATM    1  N1  UNL     1      24.159   4.462  53.401  1.00  0.00    -0.116 NA
HETATM    2  C1  UNL     1      23.642   3.473  52.806  1.00  0.00     0.716 C 
HETATM    3  N2  UNL     1      24.633   2.606  53.445  1.00  0.00    -0.063 NA
HETATM    4  C2  UNL     1      25.664   2.405  52.589  1.00  0.00     0.087 C 
HETATM    5  C3  UNL     1      26.644   1.559  53.235  1.00  0.00     0.011 A 
HETATM    6  C4  UNL     1      27.848   1.153  52.702  1.00  0.00     0.017 A 
HETATM    7  C5  UNL     1      28.750   0.336  53.326  1.00  0.00     0.020 A 
HETATM    8  C6  UNL     1      28.493  -0.149  54.576  1.00  0.00     0.116 A 
HETATM    9  N3  UNL     1      27.336   0.210  55.152  1.00  0.00    -0.272 NA
HETATM   10  C7  UNL     1      26.495   1.014  54.488  1.00  0.00     0.130 A 
HETATM   11  C8  UNL     1      25.972   2.687  51.157  1.00  0.00     0.030 C 
HETATM   12  C9  UNL     1      25.523   3.147  49.970  1.00  0.00    -0.007 C 
HETATM   13  C10 UNL     1      24.128   3.688  49.568  1.00  0.00     0.033 A 
HETATM   14  C11 UNL     1      23.507   2.941  48.623  1.00  0.00    -0.009 A 
HETATM   15  C12 UNL     1      22.146   2.985  49.024  1.00  0.00     0.013 A 
HETATM   16  C13 UNL     1      21.775   3.702  50.191  1.00  0.00     0.014 A 
HETATM   17  I1  UNL     1      19.826   3.857  50.940  1.00  0.00    -0.046 I 
HETATM   18  C14 UNL     1      22.932   4.238  50.690  1.00  0.00     0.101 A 
HETATM   19  C15 UNL     1      24.287   4.443  50.629  1.00  0.00     0.048 A 
HETATM   20  N4  UNL     1      22.634   4.355  52.155  1.00  0.00    -0.207 N 
HETATM   21  H1  UNL     1      24.974   4.278  54.024  1.00  0.00     0.206 HD
HETATM   22  H11 UNL     1      21.893   4.891  52.635  1.00  0.00     0.179 HD
ENDROOT
TORSDOF 0
ENDMDL
MODEL 6
REMARK VINA RESULT:      -7.5      4.109      6.712
REMARK  0 active torsions:
REMARK  status: ('A' for Active; 'I' for Inactive)
ROOT
HETATM    1  N1  UNL     1      24.566   3.365  53.470  1.00  0.00    -0.116 NA
HETATM    2  C1  UNL     1      25.348   2.708  52.725  1.00  0.00     0.716 C 
HETATM    3  N2  UNL     1      24.405   2.889  51.621  1.00  0.00    -0.063 NA
HETATM    4  C2  UNL     1      23.617   1.790  51.527  1.00  0.00     0.087 C 
HETATM    5  C3  UNL     1      22.679   1.984  50.443  1.00  0.00     0.011 A 
HETATM    6  C4  UNL     1      21.693   1.106  50.052  1.00  0.00     0.017 A 
HETATM    7  C5  UNL     1      20.830   1.303  49.010  1.00  0.00     0.020 A 
HETATM    8  C6  UNL     1      20.903   2.442  48.259  1.00  0.00     0.116 A 
HETATM    9  N3  UNL     1      21.842   3.339  48.589  1.00  0.00    -0.272 NA
HETATM   10  C7  UNL     1      22.658   3.086  49.622  1.00  0.00     0.130 A 
HETATM   11  C8  UNL     1      23.565   0.423  52.122  1.00  0.00     0.030 C 
HETATM   12  C9  UNL     1      24.165  -0.494  52.911  1.00  0.00    -0.007 C 
HETATM   13  C10 UNL     1      25.504  -0.425  53.688  1.00  0.00     0.033 A 
HETATM   14  C11 UNL     1      26.418  -1.336  53.274  1.00  0.00    -0.009 A 
HETATM   15  C12 UNL     1      27.643  -0.623  53.368  1.00  0.00     0.013 A 
HETATM   16  C13 UNL     1      27.646   0.726  53.807  1.00  0.00     0.014 A 
HETATM   17  I1  UNL     1      29.348   1.930  53.985  1.00  0.00    -0.046 I 
HETATM   18  C14 UNL     1      26.339   1.040  54.069  1.00  0.00     0.101 A 
HETATM   19  C15 UNL     1      25.010   0.707  54.131  1.00  0.00     0.048 A 
HETATM   20  N4  UNL     1      26.309   2.524  53.848  1.00  0.00    -0.207 N 
HETATM   21  H1  UNL     1      23.682   3.722  53.047  1.00  0.00     0.206 HD
HETATM   22  H11 UNL     1      26.838   3.271  54.326  1.00  0.00     0.179 HD
ENDROOT
TORSDOF 0
ENDMDL
MODEL 7
REMARK VINA RESULT:      -7.5      4.938      5.957
REMARK  0 active torsions:
REMARK  status: ('A' for Active; 'I' for Inactive)
ROOT
HETATM    1  N1  UNL     1      23.799   5.373  53.055  1.00  0.00    -0.116 NA
HETATM    2  C1  UNL     1      23.236   4.950  52.005  1.00  0.00     0.716 C 
HETATM    3  N2  UNL     1      23.624   3.589  52.377  1.00  0.00    -0.063 NA
HETATM    4  C2  UNL     1      24.768   3.261  51.729  1.00  0.00     0.087 C 
HETATM    5  C3  UNL     1      25.151   1.920  52.114  1.00  0.00     0.011 A 
HETATM    6  C4  UNL     1      26.272   1.240  51.693  1.00  0.00     0.017 A 
HETATM    7  C5  UNL     1      26.603  -0.036  52.057  1.00  0.00     0.020 A 
HETATM    8  C6  UNL     1      25.796  -0.744  52.900  1.00  0.00     0.116 A 
HETATM    9  N3  UNL     1      24.687  -0.138  53.347  1.00  0.00    -0.272 NA
HETATM   10  C7  UNL     1      24.419   1.115  52.953  1.00  0.00     0.130 A 
HETATM   11  C8  UNL     1      25.619   3.835  50.646  1.00  0.00     0.030 C 
HETATM   12  C9  UNL     1      25.770   4.802  49.715  1.00  0.00    -0.007 C 
HETATM   13  C10 UNL     1      24.841   5.982  49.335  1.00  0.00     0.033 A 
HETATM   14  C11 UNL     1      24.381   5.921  48.062  1.00  0.00    -0.009 A 
HETATM   15  C12 UNL     1      23.051   6.405  48.181  1.00  0.00     0.013 A 
HETATM   16  C13 UNL     1      22.547   6.788  49.451  1.00  0.00     0.014 A 
HETATM   17  I1  UNL     1      20.613   7.501  49.813  1.00  0.00    -0.046 I 
HETATM   18  C14 UNL     1      23.570   6.587  50.339  1.00  0.00     0.101 A 
HETATM   19  C15 UNL     1      24.855   6.207  50.628  1.00  0.00     0.048 A 
HETATM   20  N4  UNL     1      22.841   6.335  51.625  1.00  0.00    -0.207 N 
HETATM   21  H1  UNL     1      24.252   4.668  53.677  1.00  0.00     0.206 HD
HETATM   22  H11 UNL     1      22.188   6.946  52.142  1.00  0.00     0.179 HD
ENDROOT
TORSDOF 0
ENDMDL
MODEL 8
REMARK VINA RESULT:      -7.4      3.882      4.700
REMARK  0 active torsions:
REMARK  status: ('A' for Active; 'I' for Inactive)
ROOT
HETATM    1  N1  UNL     1      25.377   3.176  49.720  1.00  0.00    -0.116 NA
HETATM    2  C1  UNL     1      24.859   3.617  50.785  1.00  0.00     0.716 C 
HETATM    3  N2  UNL     1      25.985   3.056  51.533  1.00  0.00    -0.063 NA
HETATM    4  C2  UNL     1      25.631   1.845  52.026  1.00  0.00     0.087 C 
HETATM    5  C3  UNL     1      26.754   1.293  52.752  1.00  0.00     0.011 A 
HETATM    6  C4  UNL     1      26.799   0.064  53.372  1.00  0.00     0.017 A 
HETATM    7  C5  UNL     1      27.868  -0.428  54.069  1.00  0.00     0.020 A 
HETATM    8  C6  UNL     1      29.009   0.312  54.195  1.00  0.00     0.116 A 
HETATM    9  N3  UNL     1      29.030   1.519  53.613  1.00  0.00    -0.272 NA
HETATM   10  C7  UNL     1      27.949   1.943  52.943  1.00  0.00     0.130 A 
HETATM   11  C8  UNL     1      24.387   1.030  52.146  1.00  0.00     0.030 C 
HETATM   12  C9  UNL     1      23.049   0.971  51.973  1.00  0.00    -0.007 C 
HETATM   13  C10 UNL     1      22.058   2.040  51.447  1.00  0.00     0.033 A 
HETATM   14  C11 UNL     1      21.133   2.419  52.362  1.00  0.00    -0.009 A 
HETATM   15  C12 UNL     1      20.988   3.809  52.110  1.00  0.00     0.013 A 
HETATM   16  C13 UNL     1      21.757   4.429  51.091  1.00  0.00     0.014 A 
HETATM   17  I1  UNL     1      21.687   6.462  50.599  1.00  0.00    -0.046 I 
HETATM   18  C14 UNL     1      22.519   3.436  50.537  1.00  0.00     0.101 A 
HETATM   19  C15 UNL     1      22.917   2.126  50.459  1.00  0.00     0.048 A 
HETATM   20  N4  UNL     1      23.712   4.187  50.025  1.00  0.00    -0.207 N 
HETATM   21  H1  UNL     1      26.280   2.660  49.800  1.00  0.00     0.206 HD
HETATM   22  H11 UNL     1      23.761   4.947  49.328  1.00  0.00     0.179 HD
ENDROOT
TORSDOF 0
ENDMDL
MODEL 9
REMARK VINA RESULT:      -7.2      4.544      6.020
REMARK  0 active torsions:
REMARK  status: ('A' for Active; 'I' for Inactive)
ROOT
HETATM    1  N1  UNL     1      26.785   2.495  50.131  1.00  0.00    -0.116 NA
HETATM    2  C1  UNL     1      26.178   3.358  50.827  1.00  0.00     0.716 C 
HETATM    3  N2  UNL     1      26.129   2.397  51.929  1.00  0.00    -0.063 NA
HETATM    4  C2  UNL     1      24.929   1.768  51.914  1.00  0.00     0.087 C 
HETATM    5  C3  UNL     1      24.895   0.809  52.998  1.00  0.00     0.011 A 
HETATM    6  C4  UNL     1      23.858  -0.047  53.296  1.00  0.00     0.017 A 
HETATM    7  C5  UNL     1      23.842  -0.931  54.339  1.00  0.00     0.020 A 
HETATM    8  C6  UNL     1      24.908  -1.017  55.188  1.00  0.00     0.116 A 
HETATM    9  N3  UNL     1      25.952  -0.209  54.952  1.00  0.00    -0.272 NA
HETATM   10  C7  UNL     1      25.906   0.635  53.912  1.00  0.00     0.130 A 
HETATM   11  C8  UNL     1      23.626   1.906  51.201  1.00  0.00     0.030 C 
HETATM   12  C9  UNL     1      22.874   2.628  50.343  1.00  0.00    -0.007 C 
HETATM   13  C10 UNL     1      23.194   3.946  49.594  1.00  0.00     0.033 A 
HETATM   14  C11 UNL     1      22.384   4.976  49.939  1.00  0.00    -0.009 A 
HETATM   15  C12 UNL     1      23.263   6.091  49.926  1.00  0.00     0.013 A 
HETATM   16  C13 UNL     1      24.634   5.909  49.607  1.00  0.00     0.014 A 
HETATM   17  I1  UNL     1      26.071   7.430  49.560  1.00  0.00    -0.046 I 
HETATM   18  C14 UNL     1      24.788   4.572  49.355  1.00  0.00     0.101 A 
HETATM   19  C15 UNL     1      24.282   3.302  49.245  1.00  0.00     0.048 A 
HETATM   20  N4  UNL     1      26.228   4.338  49.705  1.00  0.00    -0.207 N 
HETATM   21  H1  UNL     1      26.978   1.569  50.571  1.00  0.00     0.206 HD
HETATM   22  H11 UNL     1      27.080   4.759  49.302  1.00  0.00     0.179 HD
ENDROOT
TORSDOF 0
ENDMDL
