MODEL 1
REMARK VINA RESULT:      -8.7      0.000      0.000
REMARK  5 active torsions:
REMARK  status: ('A' for Active; 'I' for Inactive)
REMARK    1  A    between atoms: O1_2  and  C2_3 
REMARK    2  A    between atoms: C9_12  and  O2_13 
REMARK    3  A    between atoms: O2_13  and  C10_14 
REMARK    4  A    between atoms: C10_14  and  C11_15 
REMARK    5  A    between atoms: C11_15  and  N3_16 
ROOT
HETATM    1  C2  UNL     1      26.337   3.607  50.087  1.00  0.00     0.103 A 
HETATM    2  C3  UNL     1      25.168   4.078  49.532  1.00  0.00     0.072 A 
HETATM    3  C4  UNL     1      23.933   3.794  50.077  1.00  0.00     0.075 A 
HETATM    4  N1  UNL     1      22.726   4.193  49.651  1.00  0.00    -0.233 NA
HETATM    5  C5  UNL     1      21.598   3.852  50.285  1.00  0.00     0.129 A 
HETATM    6  N2  UNL     1      21.625   3.099  51.370  1.00  0.00    -0.215 NA
HETATM    7  C6  UNL     1      22.753   2.641  51.886  1.00  0.00     0.138 A 
HETATM    8  C7  UNL     1      23.926   3.007  51.214  1.00  0.00     0.041 A 
HETATM    9  C8  UNL     1      25.067   2.494  51.831  1.00  0.00     0.057 A 
HETATM   10  C9  UNL     1      26.278   2.816  51.234  1.00  0.00     0.103 A 
HETATM   11  N4  UNL     1      22.829   1.753  53.038  1.00  0.00    -0.369 N 
HETATM   12  C16 UNL     1      22.452   0.449  52.601  1.00  0.00     0.088 A 
HETATM   13  C17 UNL     1      21.829  -0.601  53.404  1.00  0.00     0.032 A 
HETATM   14  C18 UNL     1      20.933   0.326  52.724  1.00  0.00     0.014 A 
HETATM   15  C19 UNL     1      20.416   0.248  51.342  1.00  0.00     0.033 C 
HETATM   16  C20 UNL     1      18.945   0.099  51.290  1.00  0.00    -0.030 C 
HETATM   17  C21 UNL     1      18.343   1.184  50.789  1.00  0.00    -0.025 C 
HETATM   18  C22 UNL     1      19.313   2.273  50.437  1.00  0.00     0.021 C 
HETATM   19  C23 UNL     1      19.173   3.520  49.905  1.00  0.00     0.006 C 
HETATM   20  C24 UNL     1      20.347   4.385  49.680  1.00  0.00     0.086 C 
HETATM   21  H18 UNL     1      23.134   2.525  53.632  1.00  0.00     0.161 HD
ENDROOT
BRANCH  10  22
HETATM   22  O2  UNL     1      27.499   2.394  51.712  1.00  0.00    -0.347 OA
BRANCH  22  23
HETATM   23  C10 UNL     1      27.863   2.430  53.093  1.00  0.00     0.195 C 
BRANCH  23  24
HETATM   24  C11 UNL     1      28.784   1.295  53.411  1.00  0.00     0.143 C 
BRANCH  24  25
HETATM   25  N3  UNL     1      28.156   0.069  53.772  1.00  0.00    -0.406 N 
HETATM   26  C12 UNL     1      27.742  -0.739  52.668  1.00  0.00     0.143 C 
HETATM   27  C13 UNL     1      26.542  -1.604  52.956  1.00  0.00     0.187 C 
HETATM   28  O3  UNL     1      25.486  -0.865  53.452  1.00  0.00    -0.388 OA
HETATM   29  C14 UNL     1      25.783  -0.024  54.487  1.00  0.00     0.187 C 
HETATM   30  C15 UNL     1      27.212   0.140  54.843  1.00  0.00     0.143 C 
ENDBRANCH  24  25
ENDBRANCH  23  24
ENDBRANCH  22  23
ENDBRANCH  10  22
BRANCH   1  31
HETATM   31  O1  UNL     1      27.542   3.932  49.486  1.00  0.00    -0.353 OA
HETATM   32  C1  UNL     1      27.558   5.044  48.611  1.00  0.00     0.210 C 
ENDBRANCH   1  31
TORSDOF 5
ENDMDL
MODEL 2
REMARK VINA RESULT:      -8.4      1.957      5.199
REMARK  5 active torsions:
REMARK  status: ('A' for Active; 'I' for Inactive)
REMARK    1  A    between atoms: O1_2  and  C2_3 
REMARK    2  A    between atoms: C9_12  and  O2_13 
REMARK    3  A    between atoms: O2_13  and  C10_14 
REMARK    4  A    between atoms: C10_14  and  C11_15 
REMARK    5  A    between atoms: C11_15  and  N3_16 
ROOT
HETATM    1  C2  UNL     1      22.138   0.607  53.473  1.00  0.00     0.103 A 
HETATM    2  C3  UNL     1      21.326   1.679  53.178  1.00  0.00     0.072 A 
HETATM    3  C4  UNL     1      21.630   2.575  52.174  1.00  0.00     0.075 A 
HETATM    4  N1  UNL     1      20.930   3.646  51.776  1.00  0.00    -0.233 NA
HETATM    5  C5  UNL     1      21.338   4.430  50.771  1.00  0.00     0.129 A 
HETATM    6  N2  UNL     1      22.460   4.180  50.120  1.00  0.00    -0.215 NA
HETATM    7  C6  UNL     1      23.239   3.154  50.422  1.00  0.00     0.138 A 
HETATM    8  C7  UNL     1      22.800   2.341  51.474  1.00  0.00     0.041 A 
HETATM    9  C8  UNL     1      23.672   1.279  51.715  1.00  0.00     0.057 A 
HETATM   10  C9  UNL     1      23.308   0.415  52.739  1.00  0.00     0.103 A 
HETATM   11  N4  UNL     1      24.517   2.878  49.781  1.00  0.00    -0.369 N 
HETATM   12  C16 UNL     1      25.468   3.805  50.300  1.00  0.00     0.088 A 
HETATM   13  C17 UNL     1      26.655   4.320  49.621  1.00  0.00     0.032 A 
HETATM   14  C18 UNL     1      25.418   5.070  49.442  1.00  0.00     0.014 A 
HETATM   15  C19 UNL     1      24.860   6.129  50.308  1.00  0.00     0.033 C 
HETATM   16  C20 UNL     1      24.769   7.437  49.624  1.00  0.00    -0.030 C 
HETATM   17  C21 UNL     1      23.502   7.811  49.410  1.00  0.00    -0.025 C 
HETATM   18  C22 UNL     1      22.510   6.797  49.896  1.00  0.00     0.021 C 
HETATM   19  C23 UNL     1      21.147   6.742  49.904  1.00  0.00     0.006 C 
HETATM   20  C24 UNL     1      20.438   5.573  50.456  1.00  0.00     0.086 C 
HETATM   21  H18 UNL     1      24.101   2.115  49.246  1.00  0.00     0.161 HD
ENDROOT
BRANCH  10  22
HETATM   22  O2  UNL     1      24.052  -0.684  53.109  1.00  0.00    -0.347 OA
BRANCH  22  23
HETATM   23  C10 UNL     1      25.253  -0.603  53.876  1.00  0.00     0.195 C 
BRANCH  23  24
HETATM   24  C11 UNL     1      26.408  -1.120  53.078  1.00  0.00     0.143 C 
BRANCH  24  25
HETATM   25  N3  UNL     1      27.509  -0.230  52.931  1.00  0.00    -0.406 N 
HETATM   26  C12 UNL     1      28.365  -0.143  54.072  1.00  0.00     0.143 C 
HETATM   27  C13 UNL     1      29.049   1.192  54.227  1.00  0.00     0.187 C 
HETATM   28  O3  UNL     1      28.143   2.234  54.207  1.00  0.00    -0.388 OA
HETATM   29  C14 UNL     1      27.247   2.224  53.176  1.00  0.00     0.187 C 
HETATM   30  C15 UNL     1      27.221   1.024  52.308  1.00  0.00     0.143 C 
ENDBRANCH  24  25
ENDBRANCH  23  24
ENDBRANCH  22  23
ENDBRANCH  10  22
BRANCH   1  31
HETATM   31  O1  UNL     1      21.769  -0.251  54.496  1.00  0.00    -0.353 OA
HETATM   32  C1  UNL     1      20.832  -1.268  54.191  1.00  0.00     0.210 C 
ENDBRANCH   1  31
TORSDOF 5
ENDMDL
MODEL 3
REMARK VINA RESULT:      -8.4      2.219      5.848
REMARK  5 active torsions:
REMARK  status: ('A' for Active; 'I' for Inactive)
REMARK    1  A    between atoms: O1_2  and  C2_3 
REMARK    2  A    between atoms: C9_12  and  O2_13 
REMARK    3  A    between atoms: O2_13  and  C10_14 
REMARK    4  A    between atoms: C10_14  and  C11_15 
REMARK    5  A    between atoms: C11_15  and  N3_16 
ROOT
HETATM    1  C2  UNL     1      25.730   0.110  52.500  1.00  0.00     0.103 A 
HETATM    2  C3  UNL     1      26.457   0.894  51.633  1.00  0.00     0.072 A 
HETATM    3  C4  UNL     1      26.038   2.154  51.257  1.00  0.00     0.075 A 
HETATM    4  N1  UNL     1      26.648   3.021  50.437  1.00  0.00    -0.233 NA
HETATM    5  C5  UNL     1      26.133   4.227  50.166  1.00  0.00     0.129 A 
HETATM    6  N2  UNL     1      24.991   4.618  50.701  1.00  0.00    -0.215 NA
HETATM    7  C6  UNL     1      24.295   3.851  51.523  1.00  0.00     0.138 A 
HETATM    8  C7  UNL     1      24.845   2.594  51.800  1.00  0.00     0.041 A 
HETATM    9  C8  UNL     1      24.054   1.858  52.683  1.00  0.00     0.057 A 
HETATM   10  C9  UNL     1      24.531   0.598  53.020  1.00  0.00     0.103 A 
HETATM   11  N4  UNL     1      22.999   4.211  52.082  1.00  0.00    -0.369 N 
HETATM   12  C16 UNL     1      22.027   4.056  51.050  1.00  0.00     0.088 A 
HETATM   13  C17 UNL     1      20.772   4.791  50.906  1.00  0.00     0.032 A 
HETATM   14  C18 UNL     1      21.949   5.368  50.268  1.00  0.00     0.014 A 
HETATM   15  C19 UNL     1      22.494   5.077  48.926  1.00  0.00     0.033 C 
HETATM   16  C20 UNL     1      22.464   6.253  48.030  1.00  0.00    -0.030 C 
HETATM   17  C21 UNL     1      23.691   6.706  47.746  1.00  0.00    -0.025 C 
HETATM   18  C22 UNL     1      24.770   5.919  48.429  1.00  0.00     0.021 C 
HETATM   19  C23 UNL     1      26.131   5.999  48.436  1.00  0.00     0.006 C 
HETATM   20  C24 UNL     1      26.942   5.065  49.239  1.00  0.00     0.086 C 
HETATM   21  H18 UNL     1      23.426   4.406  52.987  1.00  0.00     0.161 HD
ENDROOT
BRANCH  10  22
HETATM   22  O2  UNL     1      23.878  -0.258  53.879  1.00  0.00    -0.347 OA
BRANCH  22  23
HETATM   23  C10 UNL     1      22.613  -0.854  53.590  1.00  0.00     0.195 C 
BRANCH  23  24
HETATM   24  C11 UNL     1      21.588  -0.383  54.573  1.00  0.00     0.143 C 
BRANCH  24  25
HETATM   25  N3  UNL     1      20.379   0.120  54.015  1.00  0.00    -0.406 N 
HETATM   26  C12 UNL     1      19.452  -0.883  53.591  1.00  0.00     0.143 C 
HETATM   27  C13 UNL     1      18.572  -0.460  52.443  1.00  0.00     0.187 C 
HETATM   28  O3  UNL     1      19.314   0.010  51.377  1.00  0.00    -0.388 OA
HETATM   29  C14 UNL     1      20.261   0.947  51.680  1.00  0.00     0.187 C 
HETATM   30  C15 UNL     1      20.515   1.221  53.113  1.00  0.00     0.143 C 
ENDBRANCH  24  25
ENDBRANCH  23  24
ENDBRANCH  22  23
ENDBRANCH  10  22
BRANCH   1  31
HETATM   31  O1  UNL     1      26.211  -1.145  52.832  1.00  0.00    -0.353 OA
HETATM   32  C1  UNL     1      27.612  -1.293  52.977  1.00  0.00     0.210 C 
ENDBRANCH   1  31
TORSDOF 5
ENDMDL
MODEL 4
REMARK VINA RESULT:      -8.2      2.467      5.001
REMARK  5 active torsions:
REMARK  status: ('A' for Active; 'I' for Inactive)
REMARK    1  A    between atoms: O1_2  and  C2_3 
REMARK    2  A    between atoms: C9_12  and  O2_13 
REMARK    3  A    between atoms: O2_13  and  C10_14 
REMARK    4  A    between atoms: C10_14  and  C11_15 
REMARK    5  A    between atoms: C11_15  and  N3_16 
ROOT
HETATM    1  C2  UNL     1      23.336   1.005  52.767  1.00  0.00     0.103 A 
HETATM    2  C3  UNL     1      22.569   1.005  51.624  1.00  0.00     0.072 A 
HETATM    3  C4  UNL     1      22.879   1.790  50.533  1.00  0.00     0.075 A 
HETATM    4  N1  UNL     1      22.231   1.879  49.362  1.00  0.00    -0.233 NA
HETATM    5  C5  UNL     1      22.651   2.679  48.375  1.00  0.00     0.129 A 
HETATM    6  N2  UNL     1      23.734   3.423  48.512  1.00  0.00    -0.215 NA
HETATM    7  C6  UNL     1      24.456   3.425  49.620  1.00  0.00     0.138 A 
HETATM    8  C7  UNL     1      24.007   2.582  50.645  1.00  0.00     0.041 A 
HETATM    9  C8  UNL     1      24.833   2.636  51.768  1.00  0.00     0.057 A 
HETATM   10  C9  UNL     1      24.465   1.822  52.831  1.00  0.00     0.103 A 
HETATM   11  N4  UNL     1      25.615   4.278  49.844  1.00  0.00    -0.369 N 
HETATM   12  C16 UNL     1      25.136   5.595  50.106  1.00  0.00     0.088 A 
HETATM   13  C17 UNL     1      25.825   6.853  49.828  1.00  0.00     0.032 A 
HETATM   14  C18 UNL     1      24.978   6.320  48.769  1.00  0.00     0.014 A 
HETATM   15  C19 UNL     1      23.525   6.513  48.578  1.00  0.00     0.033 C 
HETATM   16  C20 UNL     1      23.204   7.231  47.326  1.00  0.00    -0.030 C 
HETATM   17  C21 UNL     1      22.584   6.447  46.436  1.00  0.00    -0.025 C 
HETATM   18  C22 UNL     1      22.401   5.043  46.931  1.00  0.00     0.021 C 
HETATM   19  C23 UNL     1      21.834   3.924  46.397  1.00  0.00     0.006 C 
HETATM   20  C24 UNL     1      21.818   2.652  47.142  1.00  0.00     0.086 C 
HETATM   21  H18 UNL     1      26.244   3.486  49.703  1.00  0.00     0.161 HD
ENDROOT
BRANCH  10  22
HETATM   22  O2  UNL     1      25.167   1.751  54.014  1.00  0.00    -0.347 OA
BRANCH  22  23
HETATM   23  C10 UNL     1      26.581   1.925  54.106  1.00  0.00     0.195 C 
BRANCH  23  24
HETATM   24  C11 UNL     1      27.239   0.619  54.423  1.00  0.00     0.143 C 
BRANCH  24  25
HETATM   25  N3  UNL     1      27.568  -0.198  53.305  1.00  0.00    -0.406 N 
HETATM   26  C12 UNL     1      26.661  -1.275  53.063  1.00  0.00     0.143 C 
HETATM   27  C13 UNL     1      27.295  -2.478  52.413  1.00  0.00     0.187 C 
HETATM   28  O3  UNL     1      28.402  -2.913  53.115  1.00  0.00    -0.388 OA
HETATM   29  C14 UNL     1      29.318  -1.950  53.435  1.00  0.00     0.187 C 
HETATM   30  C15 UNL     1      28.948  -0.541  53.164  1.00  0.00     0.143 C 
ENDBRANCH  24  25
ENDBRANCH  23  24
ENDBRANCH  22  23
ENDBRANCH  10  22
BRANCH   1  31
HETATM   31  O1  UNL     1      22.964   0.191  53.824  1.00  0.00    -0.353 OA
HETATM   32  C1  UNL     1      21.580   0.057  54.091  1.00  0.00     0.210 C 
ENDBRANCH   1  31
TORSDOF 5
ENDMDL
MODEL 5
REMARK VINA RESULT:      -8.1      2.460      5.289
REMARK  5 active torsions:
REMARK  status: ('A' for Active; 'I' for Inactive)
REMARK    1  A    between atoms: O1_2  and  C2_3 
REMARK    2  A    between atoms: C9_12  and  O2_13 
REMARK    3  A    between atoms: O2_13  and  C10_14 
REMARK    4  A    between atoms: C10_14  and  C11_15 
REMARK    5  A    between atoms: C11_15  and  N3_16 
ROOT
HETATM    1  C2  UNL     1      22.450  -0.380  53.400  1.00  0.00     0.103 A 
HETATM    2  C3  UNL     1      21.187  -0.844  53.693  1.00  0.00     0.072 A 
HETATM    3  C4  UNL     1      20.073  -0.426  52.994  1.00  0.00     0.075 A 
HETATM    4  N1  UNL     1      18.798  -0.801  53.163  1.00  0.00    -0.233 NA
HETATM    5  C5  UNL     1      17.807  -0.322  52.401  1.00  0.00     0.129 A 
HETATM    6  N2  UNL     1      18.047   0.549  51.437  1.00  0.00    -0.215 NA
HETATM    7  C6  UNL     1      19.263   0.997  51.174  1.00  0.00     0.138 A 
HETATM    8  C7  UNL     1      20.290   0.487  51.978  1.00  0.00     0.041 A 
HETATM    9  C8  UNL     1      21.538   1.002  51.624  1.00  0.00     0.057 A 
HETATM   10  C9  UNL     1      22.617   0.541  52.367  1.00  0.00     0.103 A 
HETATM   11  N4  UNL     1      19.567   2.008  50.170  1.00  0.00    -0.369 N 
HETATM   12  C16 UNL     1      19.171   3.272  50.699  1.00  0.00     0.088 A 
HETATM   13  C17 UNL     1      18.734   4.443  49.943  1.00  0.00     0.032 A 
HETATM   14  C18 UNL     1      17.700   3.497  50.345  1.00  0.00     0.014 A 
HETATM   15  C19 UNL     1      16.960   3.444  51.624  1.00  0.00     0.033 C 
HETATM   16  C20 UNL     1      15.509   3.671  51.453  1.00  0.00    -0.030 C 
HETATM   17  C21 UNL     1      14.790   2.573  51.709  1.00  0.00    -0.025 C 
HETATM   18  C22 UNL     1      15.643   1.395  52.076  1.00  0.00     0.021 C 
HETATM   19  C23 UNL     1      15.368   0.104  52.418  1.00  0.00     0.006 C 
HETATM   20  C24 UNL     1      16.452  -0.848  52.721  1.00  0.00     0.086 C 
HETATM   21  H18 UNL     1      19.938   1.294  49.543  1.00  0.00     0.161 HD
ENDROOT
BRANCH  10  22
HETATM   22  O2  UNL     1      23.916   0.944  52.151  1.00  0.00    -0.347 OA
BRANCH  22  23
HETATM   23  C10 UNL     1      24.393   2.261  52.431  1.00  0.00     0.195 C 
BRANCH  23  24
HETATM   24  C11 UNL     1      25.321   2.232  53.605  1.00  0.00     0.143 C 
BRANCH  24  25
HETATM   25  N3  UNL     1      26.477   1.415  53.461  1.00  0.00    -0.406 N 
HETATM   26  C12 UNL     1      26.774   0.594  54.593  1.00  0.00     0.143 C 
HETATM   27  C13 UNL     1      28.241   0.293  54.766  1.00  0.00     0.187 C 
HETATM   28  O3  UNL     1      29.001   1.446  54.779  1.00  0.00    -0.388 OA
HETATM   29  C14 UNL     1      28.765   2.324  53.759  1.00  0.00     0.187 C 
HETATM   30  C15 UNL     1      27.616   2.041  52.867  1.00  0.00     0.143 C 
ENDBRANCH  24  25
ENDBRANCH  23  24
ENDBRANCH  22  23
ENDBRANCH  10  22
BRANCH   1  31
HETATM   31  O1  UNL     1      23.522  -0.843  54.144  1.00  0.00    -0.353 OA
HETATM   32  C1  UNL     1      23.250  -1.362  55.433  1.00  0.00     0.210 C 
ENDBRANCH   1  31
TORSDOF 5
ENDMDL
MODEL 6
REMARK VINA RESULT:      -8.0      2.637      7.323
REMARK  5 active torsions:
REMARK  status: ('A' for Active; 'I' for Inactive)
REMARK    1  A    between atoms: O1_2  and  C2_3 
REMARK    2  A    between atoms: C9_12  and  O2_13 
REMARK    3  A    between atoms: O2_13  and  C10_14 
REMARK    4  A    between atoms: C10_14  and  C11_15 
REMARK    5  A    between atoms: C11_15  and  N3_16 
ROOT
HETATM    1  C2  UNL     1      19.705   1.198  50.279  1.00  0.00     0.103 A 
HETATM    2  C3  UNL     1      20.101   0.342  51.281  1.00  0.00     0.072 A 
HETATM    3  C4  UNL     1      21.287   0.514  51.966  1.00  0.00     0.075 A 
HETATM    4  N1  UNL     1      21.786  -0.231  52.963  1.00  0.00    -0.233 NA
HETATM    5  C5  UNL     1      22.953   0.057  53.552  1.00  0.00     0.129 A 
HETATM    6  N2  UNL     1      23.670   1.100  53.173  1.00  0.00    -0.215 NA
HETATM    7  C6  UNL     1      23.286   1.908  52.200  1.00  0.00     0.138 A 
HETATM    8  C7  UNL     1      22.063   1.596  51.593  1.00  0.00     0.041 A 
HETATM    9  C8  UNL     1      21.728   2.505  50.589  1.00  0.00     0.057 A 
HETATM   10  C9  UNL     1      20.523   2.275  49.938  1.00  0.00     0.103 A 
HETATM   11  N4  UNL     1      24.074   3.026  51.701  1.00  0.00    -0.369 N 
HETATM   12  C16 UNL     1      25.122   2.489  50.896  1.00  0.00     0.088 A 
HETATM   13  C17 UNL     1      26.440   3.075  50.665  1.00  0.00     0.032 A 
HETATM   14  C18 UNL     1      26.311   2.179  51.807  1.00  0.00     0.014 A 
HETATM   15  C19 UNL     1      26.433   0.706  51.830  1.00  0.00     0.033 C 
HETATM   16  C20 UNL     1      27.567   0.241  52.658  1.00  0.00    -0.030 C 
HETATM   17  C21 UNL     1      27.161  -0.399  53.761  1.00  0.00    -0.025 C 
HETATM   18  C22 UNL     1      25.667  -0.454  53.880  1.00  0.00     0.021 C 
HETATM   19  C23 UNL     1      24.816  -0.993  54.799  1.00  0.00     0.006 C 
HETATM   20  C24 UNL     1      23.355  -0.870  54.644  1.00  0.00     0.086 C 
HETATM   21  H18 UNL     1      23.468   3.689  52.185  1.00  0.00     0.161 HD
ENDROOT
BRANCH  10  22
HETATM   22  O2  UNL     1      20.041   3.074  48.925  1.00  0.00    -0.347 OA
BRANCH  22  23
HETATM   23  C10 UNL     1      20.041   4.501  48.975  1.00  0.00     0.195 C 
BRANCH  23  24
HETATM   24  C11 UNL     1      21.050   5.048  48.015  1.00  0.00     0.143 C 
BRANCH  24  25
HETATM   25  N3  UNL     1      22.008   5.945  48.567  1.00  0.00    -0.406 N 
HETATM   26  C12 UNL     1      23.353   5.462  48.560  1.00  0.00     0.143 C 
HETATM   27  C13 UNL     1      24.205   6.001  49.681  1.00  0.00     0.187 C 
HETATM   28  O3  UNL     1      23.614   5.803  50.913  1.00  0.00    -0.388 OA
HETATM   29  C14 UNL     1      22.309   6.194  51.016  1.00  0.00     0.187 C 
HETATM   30  C15 UNL     1      21.623   6.611  49.771  1.00  0.00     0.143 C 
ENDBRANCH  24  25
ENDBRANCH  23  24
ENDBRANCH  22  23
ENDBRANCH  10  22
BRANCH   1  31
HETATM   31  O1  UNL     1      18.502   0.964  49.634  1.00  0.00    -0.353 OA
HETATM   32  C1  UNL     1      17.558   0.139  50.290  1.00  0.00     0.210 C 
ENDBRANCH   1  31
TORSDOF 5
ENDMDL
MODEL 7
REMARK VINA RESULT:      -8.0      3.749      8.108
REMARK  5 active torsions:
REMARK  status: ('A' for Active; 'I' for Inactive)
REMARK    1  A    between atoms: O1_2  and  C2_3 
REMARK    2  A    between atoms: C9_12  and  O2_13 
REMARK    3  A    between atoms: O2_13  and  C10_14 
REMARK    4  A    between atoms: C10_14  and  C11_15 
REMARK    5  A    between atoms: C11_15  and  N3_16 
ROOT
HETATM    1  C2  UNL     1      25.241   4.655  49.727  1.00  0.00     0.103 A 
HETATM    2  C3  UNL     1      25.120   5.941  49.251  1.00  0.00     0.072 A 
HETATM    3  C4  UNL     1      26.164   6.591  48.626  1.00  0.00     0.075 A 
HETATM    4  N1  UNL     1      26.181   7.828  48.108  1.00  0.00    -0.233 NA
HETATM    5  C5  UNL     1      27.266   8.336  47.513  1.00  0.00     0.129 A 
HETATM    6  N2  UNL     1      28.380   7.634  47.408  1.00  0.00    -0.215 NA
HETATM    7  C6  UNL     1      28.488   6.404  47.882  1.00  0.00     0.138 A 
HETATM    8  C7  UNL     1      27.345   5.883  48.500  1.00  0.00     0.041 A 
HETATM    9  C8  UNL     1      27.543   4.580  48.957  1.00  0.00     0.057 A 
HETATM   10  C9  UNL     1      26.454   3.983  49.578  1.00  0.00     0.103 A 
HETATM   11  N4  UNL     1      29.714   5.617  47.852  1.00  0.00    -0.369 N 
HETATM   12  C16 UNL     1      30.577   6.127  48.866  1.00  0.00     0.088 A 
HETATM   13  C17 UNL     1      32.038   6.102  48.871  1.00  0.00     0.032 A 
HETATM   14  C18 UNL     1      31.403   7.263  48.261  1.00  0.00     0.014 A 
HETATM   15  C19 UNL     1      30.939   8.501  48.922  1.00  0.00     0.033 C 
HETATM   16  C20 UNL     1      31.667   9.703  48.459  1.00  0.00    -0.030 C 
HETATM   17  C21 UNL     1      30.886  10.528  47.753  1.00  0.00    -0.025 C 
HETATM   18  C22 UNL     1      29.488  10.009  47.596  1.00  0.00     0.021 C 
HETATM   19  C23 UNL     1      28.368  10.490  46.984  1.00  0.00     0.006 C 
HETATM   20  C24 UNL     1      27.110   9.721  46.990  1.00  0.00     0.086 C 
HETATM   21  H18 UNL     1      29.348   5.049  47.087  1.00  0.00     0.161 HD
ENDROOT
BRANCH  10  22
HETATM   22  O2  UNL     1      26.475   2.702  50.086  1.00  0.00    -0.347 OA
BRANCH  22  23
HETATM   23  C10 UNL     1      26.793   2.396  51.444  1.00  0.00     0.195 C 
BRANCH  23  24
HETATM   24  C11 UNL     1      25.816   1.402  51.988  1.00  0.00     0.143 C 
BRANCH  24  25
HETATM   25  N3  UNL     1      26.251   0.662  53.124  1.00  0.00    -0.406 N 
HETATM   26  C12 UNL     1      27.559   0.998  53.591  1.00  0.00     0.143 C 
HETATM   27  C13 UNL     1      28.285  -0.142  54.259  1.00  0.00     0.187 C 
HETATM   28  O3  UNL     1      28.319  -1.266  53.456  1.00  0.00    -0.388 OA
HETATM   29  C14 UNL     1      27.122  -1.651  52.921  1.00  0.00     0.187 C 
HETATM   30  C15 UNL     1      25.969  -0.739  53.104  1.00  0.00     0.143 C 
ENDBRANCH  24  25
ENDBRANCH  23  24
ENDBRANCH  22  23
ENDBRANCH  10  22
BRANCH   1  31
HETATM   31  O1  UNL     1      24.151   4.064  50.345  1.00  0.00    -0.353 OA
HETATM   32  C1  UNL     1      23.593   4.728  51.464  1.00  0.00     0.210 C 
ENDBRANCH   1  31
TORSDOF 5
ENDMDL
MODEL 8
REMARK VINA RESULT:      -8.0      4.773      9.432
REMARK  5 active torsions:
REMARK  status: ('A' for Active; 'I' for Inactive)
REMARK    1  A    between atoms: O1_2  and  C2_3 
REMARK    2  A    between atoms: C9_12  and  O2_13 
REMARK    3  A    between atoms: O2_13  and  C10_14 
REMARK    4  A    between atoms: C10_14  and  C11_15 
REMARK    5  A    between atoms: C11_15  and  N3_16 
ROOT
HETATM    1  C2  UNL     1      16.859   0.447  51.098  1.00  0.00     0.103 A 
HETATM    2  C3  UNL     1      17.591  -0.443  51.850  1.00  0.00     0.072 A 
HETATM    3  C4  UNL     1      18.787  -0.092  52.442  1.00  0.00     0.075 A 
HETATM    4  N1  UNL     1      19.591  -0.849  53.203  1.00  0.00    -0.233 NA
HETATM    5  C5  UNL     1      20.727  -0.375  53.729  1.00  0.00     0.129 A 
HETATM    6  N2  UNL     1      21.109   0.872  53.519  1.00  0.00    -0.215 NA
HETATM    7  C6  UNL     1      20.403   1.715  52.784  1.00  0.00     0.138 A 
HETATM    8  C7  UNL     1      19.216   1.207  52.241  1.00  0.00     0.041 A 
HETATM    9  C8  UNL     1      18.530   2.164  51.493  1.00  0.00     0.057 A 
HETATM   10  C9  UNL     1      17.334   1.747  50.924  1.00  0.00     0.103 A 
HETATM   11  N4  UNL     1      20.817   3.075  52.468  1.00  0.00    -0.369 N 
HETATM   12  C16 UNL     1      21.835   2.994  51.472  1.00  0.00     0.088 A 
HETATM   13  C17 UNL     1      22.925   3.941  51.250  1.00  0.00     0.032 A 
HETATM   14  C18 UNL     1      23.183   2.848  52.178  1.00  0.00     0.014 A 
HETATM   15  C19 UNL     1      23.659   1.483  51.871  1.00  0.00     0.033 C 
HETATM   16  C20 UNL     1      24.980   1.191  52.469  1.00  0.00    -0.030 C 
HETATM   17  C21 UNL     1      24.906   0.273  53.440  1.00  0.00    -0.025 C 
HETATM   18  C22 UNL     1      23.502  -0.199  53.683  1.00  0.00     0.021 C 
HETATM   19  C23 UNL     1      22.950  -1.104  54.540  1.00  0.00     0.006 C 
HETATM   20  C24 UNL     1      21.496  -1.348  54.552  1.00  0.00     0.086 C 
HETATM   21  H18 UNL     1      20.147   3.451  53.139  1.00  0.00     0.161 HD
ENDROOT
BRANCH  10  22
HETATM   22  O2  UNL     1      16.531   2.562  50.157  1.00  0.00    -0.347 OA
BRANCH  22  23
HETATM   23  C10 UNL     1      15.339   3.181  50.643  1.00  0.00     0.195 C 
BRANCH  23  24
HETATM   24  C11 UNL     1      15.613   3.875  51.940  1.00  0.00     0.143 C 
BRANCH  24  25
HETATM   25  N3  UNL     1      14.816   3.462  53.045  1.00  0.00    -0.406 N 
HETATM   26  C12 UNL     1      14.085   2.252  52.836  1.00  0.00     0.143 C 
HETATM   27  C13 UNL     1      12.794   2.172  53.611  1.00  0.00     0.187 C 
HETATM   28  O3  UNL     1      11.997   3.278  53.390  1.00  0.00    -0.388 OA
HETATM   29  C14 UNL     1      12.611   4.491  53.524  1.00  0.00     0.187 C 
HETATM   30  C15 UNL     1      14.082   4.493  53.707  1.00  0.00     0.143 C 
ENDBRANCH  24  25
ENDBRANCH  23  24
ENDBRANCH  22  23
ENDBRANCH  10  22
BRANCH   1  31
HETATM   31  O1  UNL     1      15.667   0.025  50.533  1.00  0.00    -0.353 OA
HETATM   32  C1  UNL     1      15.743  -0.836  49.412  1.00  0.00     0.210 C 
ENDBRANCH   1  31
TORSDOF 5
ENDMDL
MODEL 9
REMARK VINA RESULT:      -7.9      4.517      9.135
REMARK  5 active torsions:
REMARK  status: ('A' for Active; 'I' for Inactive)
REMARK    1  A    between atoms: O1_2  and  C2_3 
REMARK    2  A    between atoms: C9_12  and  O2_13 
REMARK    3  A    between atoms: O2_13  and  C10_14 
REMARK    4  A    between atoms: C10_14  and  C11_15 
REMARK    5  A    between atoms: C11_15  and  N3_16 
ROOT
HETATM    1  C2  UNL     1      18.283   1.081  51.555  1.00  0.00     0.103 A 
HETATM    2  C3  UNL     1      19.286   0.241  51.983  1.00  0.00     0.072 A 
HETATM    3  C4  UNL     1      20.560   0.698  52.252  1.00  0.00     0.075 A 
HETATM    4  N1  UNL     1      21.620  -0.002  52.682  1.00  0.00    -0.233 NA
HETATM    5  C5  UNL     1      22.805   0.573  52.917  1.00  0.00     0.129 A 
HETATM    6  N2  UNL     1      22.984   1.869  52.734  1.00  0.00    -0.215 NA
HETATM    7  C6  UNL     1      22.017   2.664  52.309  1.00  0.00     0.138 A 
HETATM    8  C7  UNL     1      20.781   2.050  52.069  1.00  0.00     0.041 A 
HETATM    9  C8  UNL     1      19.817   2.962  51.638  1.00  0.00     0.057 A 
HETATM   10  C9  UNL     1      18.556   2.439  51.385  1.00  0.00     0.103 A 
HETATM   11  N4  UNL     1      22.184   4.083  52.026  1.00  0.00    -0.369 N 
HETATM   12  C16 UNL     1      22.876   4.195  50.784  1.00  0.00     0.088 A 
HETATM   13  C17 UNL     1      23.757   5.283  50.363  1.00  0.00     0.032 A 
HETATM   14  C18 UNL     1      24.378   4.171  51.071  1.00  0.00     0.014 A 
HETATM   15  C19 UNL     1      24.880   2.899  50.511  1.00  0.00     0.033 C 
HETATM   16  C20 UNL     1      26.340   2.734  50.688  1.00  0.00    -0.030 C 
HETATM   17  C21 UNL     1      26.639   1.752  51.547  1.00  0.00    -0.025 C 
HETATM   18  C22 UNL     1      25.419   1.095  52.122  1.00  0.00     0.021 C 
HETATM   19  C23 UNL     1      25.229   0.073  53.004  1.00  0.00     0.006 C 
HETATM   20  C24 UNL     1      23.871  -0.349  53.395  1.00  0.00     0.086 C 
HETATM   21  H18 UNL     1      21.700   4.328  52.890  1.00  0.00     0.161 HD
ENDROOT
BRANCH  10  22
HETATM   22  O2  UNL     1      17.489   3.196  50.955  1.00  0.00    -0.347 OA
BRANCH  22  23
HETATM   23  C10 UNL     1      16.799   4.133  51.783  1.00  0.00     0.195 C 
BRANCH  23  24
HETATM   24  C11 UNL     1      15.323   3.905  51.696  1.00  0.00     0.143 C 
BRANCH  24  25
HETATM   25  N3  UNL     1      14.697   3.430  52.883  1.00  0.00    -0.406 N 
HETATM   26  C12 UNL     1      13.948   2.224  52.723  1.00  0.00     0.143 C 
HETATM   27  C13 UNL     1      12.785   2.092  53.673  1.00  0.00     0.187 C 
HETATM   28  O3  UNL     1      11.959   3.198  53.625  1.00  0.00    -0.388 OA
HETATM   29  C14 UNL     1      12.581   4.410  53.728  1.00  0.00     0.187 C 
HETATM   30  C15 UNL     1      14.063   4.420  53.696  1.00  0.00     0.143 C 
ENDBRANCH  24  25
ENDBRANCH  23  24
ENDBRANCH  22  23
ENDBRANCH  10  22
BRANCH   1  31
HETATM   31  O1  UNL     1      17.028   0.553  51.304  1.00  0.00    -0.353 OA
HETATM   32  C1  UNL     1      16.863  -0.209  50.123  1.00  0.00     0.210 C 
ENDBRANCH   1  31
TORSDOF 5
ENDMDL
