MODEL 1
REMARK VINA RESULT:      -7.8      0.000      0.000
REMARK  4 active torsions:
REMARK  status: ('A' for Active; 'I' for Inactive)
REMARK    1  A    between atoms: C2_2  and  C3_3 
REMARK       I    between atoms: C3_3  and  N1_5 
REMARK    2  A    between atoms: N1_5  and  N2_6 
REMARK    3  A    between atoms: C6_9  and  O2_10 
REMARK    4  A    between atoms: N3_13  and  C9_14 
ROOT
HETATM    1  N2  UNL     1      24.684   0.235  53.311  1.00  0.00    -0.199 N 
HETATM    2  C4  UNL     1      23.843  -0.667  54.059  1.00  0.00     0.140 A 
HETATM    3  C5  UNL     1      22.546  -0.809  53.803  1.00  0.00     0.059 A 
HETATM    4  C6  UNL     1      21.977  -0.013  52.726  1.00  0.00     0.087 A 
HETATM    5  C8  UNL     1      22.748   0.810  52.047  1.00  0.00     0.155 A 
HETATM    6  N3  UNL     1      24.137   0.993  52.284  1.00  0.00    -0.244 N 
ENDROOT
BRANCH   6   7
HETATM    7  C9  UNL     1      24.901   1.905  51.553  1.00  0.00     0.058 A 
HETATM    8  C10 UNL     1      26.237   2.181  51.452  1.00  0.00     0.034 A 
HETATM    9  C11 UNL     1      26.793   3.167  50.673  1.00  0.00     0.032 A 
HETATM   10  C12 UNL     1      25.993   3.976  49.909  1.00  0.00     0.036 A 
HETATM   11  C13 UNL     1      24.640   3.760  49.956  1.00  0.00    -0.028 A 
HETATM   12  N4  UNL     1      26.347   5.028  49.053  1.00  0.00    -0.384 N 
HETATM   13  C14 UNL     1      24.126   2.756  50.755  1.00  0.00     0.041 A 
HETATM   14  C15 UNL     1      24.057   4.774  49.038  1.00  0.00     0.060 C 
HETATM   15  C16 UNL     1      25.124   5.816  48.868  1.00  0.00     0.127 C 
HETATM   16  C17 UNL     1      27.631   5.325  48.448  1.00  0.00     0.149 C 
ENDBRANCH   6   7
BRANCH   1  17
HETATM   17  N1  UNL     1      25.977   0.195  53.803  1.00  0.00    -0.249 N 
HETATM   18  C3  UNL     1      27.108  -0.627  53.757  1.00  0.00     0.237 C 
HETATM   19  O1  UNL     1      27.066  -1.705  53.087  1.00  0.00    -0.272 OA
HETATM   20  H6  UNL     1      25.941   1.112  54.343  1.00  0.00     0.192 HD
BRANCH  18  21
HETATM   21  C2  UNL     1      28.276  -0.107  54.540  1.00  0.00     0.100 C 
HETATM   22  C1  UNL     1      29.551  -0.533  53.860  1.00  0.00     0.014 C 
ENDBRANCH  18  21
ENDBRANCH   1  17
BRANCH   4  23
HETATM   23  O2  UNL     1      20.623  -0.152  52.449  1.00  0.00    -0.354 OA
HETATM   24  C7  UNL     1      19.655  -0.523  53.414  1.00  0.00     0.210 C 
ENDBRANCH   4  23
TORSDOF 4
ENDMDL
MODEL 2
REMARK VINA RESULT:      -7.8      2.163      6.509
REMARK  4 active torsions:
REMARK  status: ('A' for Active; 'I' for Inactive)
REMARK    1  A    between atoms: C2_2  and  C3_3 
REMARK       I    between atoms: C3_3  and  N1_5 
REMARK    2  A    between atoms: N1_5  and  N2_6 
REMARK    3  A    between atoms: C6_9  and  O2_10 
REMARK    4  A    between atoms: N3_13  and  C9_14 
ROOT
HETATM    1  N2  UNL     1      26.119   2.105  52.169  1.00  0.00    -0.199 N 
HETATM    2  C4  UNL     1      27.529   2.190  52.462  1.00  0.00     0.140 A 
HETATM    3  C5  UNL     1      28.195   1.199  53.048  1.00  0.00     0.059 A 
HETATM    4  C6  UNL     1      27.453  -0.002  53.399  1.00  0.00     0.087 A 
HETATM    5  C8  UNL     1      26.166  -0.074  53.131  1.00  0.00     0.155 A 
HETATM    6  N3  UNL     1      25.414   0.958  52.506  1.00  0.00    -0.244 N 
ENDROOT
BRANCH   6   7
HETATM    7  C9  UNL     1      24.042   0.840  52.275  1.00  0.00     0.058 A 
HETATM    8  C10 UNL     1      23.163   1.397  51.387  1.00  0.00     0.034 A 
HETATM    9  C11 UNL     1      21.810   1.161  51.348  1.00  0.00     0.032 A 
HETATM   10  C12 UNL     1      21.232   0.304  52.247  1.00  0.00     0.036 A 
HETATM   11  C13 UNL     1      22.050  -0.296  53.169  1.00  0.00    -0.028 A 
HETATM   12  N4  UNL     1      19.889  -0.075  52.382  1.00  0.00    -0.384 N 
HETATM   13  C14 UNL     1      23.406  -0.027  53.171  1.00  0.00     0.041 A 
HETATM   14  C15 UNL     1      21.147  -1.151  53.985  1.00  0.00     0.060 C 
HETATM   15  C16 UNL     1      19.766  -0.618  53.738  1.00  0.00     0.127 C 
HETATM   16  C17 UNL     1      18.808   0.023  51.420  1.00  0.00     0.149 C 
ENDBRANCH   6   7
BRANCH   1  17
HETATM   17  N1  UNL     1      25.687   3.281  51.580  1.00  0.00    -0.249 N 
HETATM   18  C3  UNL     1      25.703   3.915  50.334  1.00  0.00     0.237 C 
HETATM   19  O1  UNL     1      26.258   3.335  49.349  1.00  0.00    -0.272 OA
HETATM   20  H6  UNL     1      25.239   3.706  52.448  1.00  0.00     0.192 HD
BRANCH  18  21
HETATM   21  C2  UNL     1      25.034   5.257  50.319  1.00  0.00     0.100 C 
HETATM   22  C1  UNL     1      23.804   5.201  51.189  1.00  0.00     0.014 C 
ENDBRANCH  18  21
ENDBRANCH   1  17
BRANCH   4  23
HETATM   23  O2  UNL     1      28.137  -1.044  54.013  1.00  0.00    -0.354 OA
HETATM   24  C7  UNL     1      29.389  -1.533  53.569  1.00  0.00     0.210 C 
ENDBRANCH   4  23
TORSDOF 4
ENDMDL
MODEL 3
REMARK VINA RESULT:      -7.8      1.534      1.849
REMARK  4 active torsions:
REMARK  status: ('A' for Active; 'I' for Inactive)
REMARK    1  A    between atoms: C2_2  and  C3_3 
REMARK       I    between atoms: C3_3  and  N1_5 
REMARK    2  A    between atoms: N1_5  and  N2_6 
REMARK    3  A    between atoms: C6_9  and  O2_10 
REMARK    4  A    between atoms: N3_13  and  C9_14 
ROOT
HETATM    1  N2  UNL     1      25.270   0.096  54.263  1.00  0.00    -0.199 N 
HETATM    2  C4  UNL     1      24.944  -0.937  55.215  1.00  0.00     0.140 A 
HETATM    3  C5  UNL     1      23.717  -1.439  55.327  1.00  0.00     0.059 A 
HETATM    4  C6  UNL     1      22.684  -0.910  54.449  1.00  0.00     0.087 A 
HETATM    5  C8  UNL     1      22.987   0.034  53.584  1.00  0.00     0.155 A 
HETATM    6  N3  UNL     1      24.282   0.599  53.427  1.00  0.00    -0.244 N 
ENDROOT
BRANCH   6   7
HETATM    7  C9  UNL     1      24.540   1.623  52.513  1.00  0.00     0.058 A 
HETATM    8  C10 UNL     1      25.415   1.791  51.475  1.00  0.00     0.034 A 
HETATM    9  C11 UNL     1      25.527   2.919  50.699  1.00  0.00     0.032 A 
HETATM   10  C12 UNL     1      24.722   4.002  50.935  1.00  0.00     0.036 A 
HETATM   11  C13 UNL     1      23.817   3.910  51.961  1.00  0.00    -0.028 A 
HETATM   12  N4  UNL     1      24.671   5.237  50.273  1.00  0.00    -0.384 N 
HETATM   13  C14 UNL     1      23.740   2.755  52.715  1.00  0.00     0.041 A 
HETATM   14  C15 UNL     1      23.106   5.217  51.964  1.00  0.00     0.060 C 
HETATM   15  C16 UNL     1      23.992   6.153  51.195  1.00  0.00     0.127 C 
HETATM   16  C17 UNL     1      25.165   5.592  48.957  1.00  0.00     0.149 C 
ENDBRANCH   6   7
BRANCH   1  17
HETATM   17  N1  UNL     1      26.606   0.440  54.378  1.00  0.00    -0.249 N 
HETATM   18  C3  UNL     1      27.870  -0.101  54.124  1.00  0.00     0.237 C 
HETATM   19  O1  UNL     1      27.958  -1.269  53.631  1.00  0.00    -0.272 OA
HETATM   20  H6  UNL     1      26.457   1.412  54.787  1.00  0.00     0.192 HD
BRANCH  18  21
HETATM   21  C2  UNL     1      29.009   0.806  54.480  1.00  0.00     0.100 C 
HETATM   22  C1  UNL     1      28.786   2.150  53.836  1.00  0.00     0.014 C 
ENDBRANCH  18  21
ENDBRANCH   1  17
BRANCH   4  23
HETATM   23  O2  UNL     1      21.399  -1.425  54.558  1.00  0.00    -0.354 OA
HETATM   24  C7  UNL     1      20.297  -0.961  53.800  1.00  0.00     0.210 C 
ENDBRANCH   4  23
TORSDOF 4
ENDMDL
MODEL 4
REMARK VINA RESULT:      -7.8      2.554      5.642
REMARK  4 active torsions:
REMARK  status: ('A' for Active; 'I' for Inactive)
REMARK    1  A    between atoms: C2_2  and  C3_3 
REMARK       I    between atoms: C3_3  and  N1_5 
REMARK    2  A    between atoms: N1_5  and  N2_6 
REMARK    3  A    between atoms: C6_9  and  O2_10 
REMARK    4  A    between atoms: N3_13  and  C9_14 
ROOT
HETATM    1  N2  UNL     1      22.626   2.139  52.616  1.00  0.00    -0.199 N 
HETATM    2  C4  UNL     1      21.535   3.040  52.335  1.00  0.00     0.140 A 
HETATM    3  C5  UNL     1      21.714   4.202  51.714  1.00  0.00     0.059 A 
HETATM    4  C6  UNL     1      23.068   4.557  51.316  1.00  0.00     0.087 A 
HETATM    5  C8  UNL     1      24.060   3.732  51.576  1.00  0.00     0.155 A 
HETATM    6  N3  UNL     1      23.916   2.481  52.235  1.00  0.00    -0.244 N 
ENDROOT
BRANCH   6   7
HETATM    7  C9  UNL     1      25.010   1.659  52.515  1.00  0.00     0.058 A 
HETATM    8  C10 UNL     1      25.222   0.308  52.528  1.00  0.00     0.034 A 
HETATM    9  C11 UNL     1      26.399  -0.313  52.870  1.00  0.00     0.032 A 
HETATM   10  C12 UNL     1      27.491   0.430  53.237  1.00  0.00     0.036 A 
HETATM   11  C13 UNL     1      27.356   1.795  53.248  1.00  0.00    -0.028 A 
HETATM   12  N4  UNL     1      28.771   0.006  53.618  1.00  0.00    -0.384 N 
HETATM   13  C14 UNL     1      26.152   2.375  52.897  1.00  0.00     0.041 A 
HETATM   14  C15 UNL     1      28.684   2.307  53.679  1.00  0.00     0.060 C 
HETATM   15  C16 UNL     1      29.369   1.141  54.329  1.00  0.00     0.127 C 
HETATM   16  C17 UNL     1      29.421  -1.270  53.387  1.00  0.00     0.149 C 
ENDBRANCH   6   7
BRANCH   1  17
HETATM   17  N1  UNL     1      22.156   1.022  53.285  1.00  0.00    -0.249 N 
HETATM   18  C3  UNL     1      21.464  -0.165  53.020  1.00  0.00     0.237 C 
HETATM   19  O1  UNL     1      21.094  -0.415  51.830  1.00  0.00    -0.272 OA
HETATM   20  H6  UNL     1      22.498   1.296  54.255  1.00  0.00     0.192 HD
BRANCH  18  21
HETATM   21  C2  UNL     1      21.238  -1.025  54.226  1.00  0.00     0.100 C 
HETATM   22  C1  UNL     1      22.539  -1.178  54.970  1.00  0.00     0.014 C 
ENDBRANCH  18  21
ENDBRANCH   1  17
BRANCH   4  23
HETATM   23  O2  UNL     1      23.268   5.769  50.667  1.00  0.00    -0.354 OA
HETATM   24  C7  UNL     1      24.164   6.767  51.120  1.00  0.00     0.210 C 
ENDBRANCH   4  23
TORSDOF 4
ENDMDL
MODEL 5
REMARK VINA RESULT:      -7.7      2.174      4.930
REMARK  4 active torsions:
REMARK  status: ('A' for Active; 'I' for Inactive)
REMARK    1  A    between atoms: C2_2  and  C3_3 
REMARK       I    between atoms: C3_3  and  N1_5 
REMARK    2  A    between atoms: N1_5  and  N2_6 
REMARK    3  A    between atoms: C6_9  and  O2_10 
REMARK    4  A    between atoms: N3_13  and  C9_14 
ROOT
HETATM    1  N2  UNL     1      23.167   1.433  51.641  1.00  0.00    -0.199 N 
HETATM    2  C4  UNL     1      21.760   1.665  51.418  1.00  0.00     0.140 A 
HETATM    3  C5  UNL     1      20.816   1.020  52.096  1.00  0.00     0.059 A 
HETATM    4  C6  UNL     1      21.240   0.048  53.093  1.00  0.00     0.087 A 
HETATM    5  C8  UNL     1      22.524  -0.161  53.292  1.00  0.00     0.155 A 
HETATM    6  N3  UNL     1      23.568   0.505  52.593  1.00  0.00    -0.244 N 
ENDROOT
BRANCH   6   7
HETATM    7  C9  UNL     1      24.915   0.220  52.823  1.00  0.00     0.058 A 
HETATM    8  C10 UNL     1      25.660  -0.925  52.892  1.00  0.00     0.034 A 
HETATM    9  C11 UNL     1      27.005  -0.989  53.165  1.00  0.00     0.032 A 
HETATM   10  C12 UNL     1      27.717   0.159  53.398  1.00  0.00     0.036 A 
HETATM   11  C13 UNL     1      27.039   1.349  53.345  1.00  0.00    -0.028 A 
HETATM   12  N4  UNL     1      29.078   0.320  53.691  1.00  0.00    -0.384 N 
HETATM   13  C14 UNL     1      25.686   1.364  53.067  1.00  0.00     0.041 A 
HETATM   14  C15 UNL     1      28.064   2.387  53.633  1.00  0.00     0.060 C 
HETATM   15  C16 UNL     1      29.200   1.654  54.286  1.00  0.00     0.127 C 
HETATM   16  C17 UNL     1      30.177  -0.601  53.475  1.00  0.00     0.149 C 
ENDBRANCH   6   7
BRANCH   1  17
HETATM   17  N1  UNL     1      23.918   2.221  50.787  1.00  0.00    -0.249 N 
HETATM   18  C3  UNL     1      24.351   3.546  50.666  1.00  0.00     0.237 C 
HETATM   19  O1  UNL     1      24.018   4.391  51.554  1.00  0.00    -0.272 OA
HETATM   20  H6  UNL     1      24.159   1.460  50.083  1.00  0.00     0.192 HD
BRANCH  18  21
HETATM   21  C2  UNL     1      25.188   3.809  49.451  1.00  0.00     0.100 C 
HETATM   22  C1  UNL     1      26.623   3.469  49.761  1.00  0.00     0.014 C 
ENDBRANCH  18  21
ENDBRANCH   1  17
BRANCH   4  23
HETATM   23  O2  UNL     1      20.263  -0.632  53.808  1.00  0.00    -0.354 OA
HETATM   24  C7  UNL     1      18.960  -0.886  53.315  1.00  0.00     0.210 C 
ENDBRANCH   4  23
TORSDOF 4
ENDMDL
MODEL 6
REMARK VINA RESULT:      -7.7      1.862      4.717
REMARK  4 active torsions:
REMARK  status: ('A' for Active; 'I' for Inactive)
REMARK    1  A    between atoms: C2_2  and  C3_3 
REMARK       I    between atoms: C3_3  and  N1_5 
REMARK    2  A    between atoms: N1_5  and  N2_6 
REMARK    3  A    between atoms: C6_9  and  O2_10 
REMARK    4  A    between atoms: N3_13  and  C9_14 
ROOT
HETATM    1  N2  UNL     1      24.009   0.808  52.962  1.00  0.00    -0.199 N 
HETATM    2  C4  UNL     1      24.429  -0.425  53.582  1.00  0.00     0.140 A 
HETATM    3  C5  UNL     1      25.560  -0.526  54.273  1.00  0.00     0.059 A 
HETATM    4  C6  UNL     1      26.389   0.664  54.394  1.00  0.00     0.087 A 
HETATM    5  C8  UNL     1      26.003   1.787  53.826  1.00  0.00     0.155 A 
HETATM    6  N3  UNL     1      24.803   1.941  53.079  1.00  0.00    -0.244 N 
ENDROOT
BRANCH   6   7
HETATM    7  C9  UNL     1      24.458   3.149  52.470  1.00  0.00     0.058 A 
HETATM    8  C10 UNL     1      23.599   4.170  52.771  1.00  0.00     0.034 A 
HETATM    9  C11 UNL     1      23.383   5.286  52.000  1.00  0.00     0.032 A 
HETATM   10  C12 UNL     1      24.056   5.450  50.818  1.00  0.00     0.036 A 
HETATM   11  C13 UNL     1      24.938   4.468  50.447  1.00  0.00    -0.028 A 
HETATM   12  N4  UNL     1      23.988   6.499  49.891  1.00  0.00    -0.384 N 
HETATM   13  C14 UNL     1      25.122   3.362  51.255  1.00  0.00     0.041 A 
HETATM   14  C15 UNL     1      25.499   4.926  49.148  1.00  0.00     0.060 C 
HETATM   15  C16 UNL     1      24.535   5.960  48.642  1.00  0.00     0.127 C 
HETATM   16  C17 UNL     1      23.493   7.850  50.070  1.00  0.00     0.149 C 
ENDBRANCH   6   7
BRANCH   1  17
HETATM   17  N1  UNL     1      22.811   0.619  52.295  1.00  0.00    -0.249 N 
HETATM   18  C3  UNL     1      21.443   0.528  52.570  1.00  0.00     0.237 C 
HETATM   19  O1  UNL     1      21.042   0.637  53.771  1.00  0.00    -0.272 OA
HETATM   20  H6  UNL     1      23.218   0.539  51.315  1.00  0.00     0.192 HD
BRANCH  18  21
HETATM   21  C2  UNL     1      20.588   0.304  51.360  1.00  0.00     0.100 C 
HETATM   22  C1  UNL     1      21.350   0.736  50.134  1.00  0.00     0.014 C 
ENDBRANCH  18  21
ENDBRANCH   1  17
BRANCH   4  23
HETATM   23  O2  UNL     1      27.574   0.572  55.113  1.00  0.00    -0.354 OA
HETATM   24  C7  UNL     1      28.753  -0.032  54.615  1.00  0.00     0.210 C 
ENDBRANCH   4  23
TORSDOF 4
ENDMDL
MODEL 7
REMARK VINA RESULT:      -7.4      2.445      5.324
REMARK  4 active torsions:
REMARK  status: ('A' for Active; 'I' for Inactive)
REMARK    1  A    between atoms: C2_2  and  C3_3 
REMARK       I    between atoms: C3_3  and  N1_5 
REMARK    2  A    between atoms: N1_5  and  N2_6 
REMARK    3  A    between atoms: C6_9  and  O2_10 
REMARK    4  A    between atoms: N3_13  and  C9_14 
ROOT
HETATM    1  N2  UNL     1      22.154   1.554  51.367  1.00  0.00    -0.199 N 
HETATM    2  C4  UNL     1      20.777   1.371  50.978  1.00  0.00     0.140 A 
HETATM    3  C5  UNL     1      19.938   0.603  51.668  1.00  0.00     0.059 A 
HETATM    4  C6  UNL     1      20.452  -0.069  52.853  1.00  0.00     0.087 A 
HETATM    5  C8  UNL     1      21.710   0.100  53.202  1.00  0.00     0.155 A 
HETATM    6  N3  UNL     1      22.641   0.911  52.497  1.00  0.00    -0.244 N 
ENDROOT
BRANCH   6   7
HETATM    7  C9  UNL     1      23.974   1.028  52.896  1.00  0.00     0.058 A 
HETATM    8  C10 UNL     1      24.759   2.054  53.345  1.00  0.00     0.034 A 
HETATM    9  C11 UNL     1      26.092   1.960  53.664  1.00  0.00     0.032 A 
HETATM   10  C12 UNL     1      26.747   0.763  53.544  1.00  0.00     0.036 A 
HETATM   11  C13 UNL     1      26.026  -0.315  53.100  1.00  0.00    -0.028 A 
HETATM   12  N4  UNL     1      28.087   0.449  53.812  1.00  0.00    -0.384 N 
HETATM   13  C14 UNL     1      24.687  -0.172  52.790  1.00  0.00     0.041 A 
HETATM   14  C15 UNL     1      26.996  -1.443  53.078  1.00  0.00     0.060 C 
HETATM   15  C16 UNL     1      28.353  -0.800  53.092  1.00  0.00     0.127 C 
HETATM   16  C17 UNL     1      29.053   1.167  54.621  1.00  0.00     0.149 C 
ENDBRANCH   6   7
BRANCH   1  17
HETATM   17  N1  UNL     1      22.795   2.382  50.463  1.00  0.00    -0.249 N 
HETATM   18  C3  UNL     1      22.977   3.746  50.212  1.00  0.00     0.237 C 
HETATM   19  O1  UNL     1      22.435   4.597  50.986  1.00  0.00    -0.272 OA
HETATM   20  H6  UNL     1      23.219   1.615  49.859  1.00  0.00     0.192 HD
BRANCH  18  21
HETATM   21  C2  UNL     1      23.824   4.042  49.012  1.00  0.00     0.100 C 
HETATM   22  C1  UNL     1      25.272   3.825  49.368  1.00  0.00     0.014 C 
ENDBRANCH  18  21
ENDBRANCH   1  17
BRANCH   4  23
HETATM   23  O2  UNL     1      19.586  -0.874  53.581  1.00  0.00    -0.354 OA
HETATM   24  C7  UNL     1      18.255  -1.156  53.190  1.00  0.00     0.210 C 
ENDBRANCH   4  23
TORSDOF 4
ENDMDL
MODEL 8
REMARK VINA RESULT:      -7.2      1.579      1.998
REMARK  4 active torsions:
REMARK  status: ('A' for Active; 'I' for Inactive)
REMARK    1  A    between atoms: C2_2  and  C3_3 
REMARK       I    between atoms: C3_3  and  N1_5 
REMARK    2  A    between atoms: N1_5  and  N2_6 
REMARK    3  A    between atoms: C6_9  and  O2_10 
REMARK    4  A    between atoms: N3_13  and  C9_14 
ROOT
HETATM    1  N2  UNL     1      24.003   0.528  52.973  1.00  0.00    -0.199 N 
HETATM    2  C4  UNL     1      23.487  -0.714  53.496  1.00  0.00     0.140 A 
HETATM    3  C5  UNL     1      22.184  -0.942  53.634  1.00  0.00     0.059 A 
HETATM    4  C6  UNL     1      21.265   0.115  53.237  1.00  0.00     0.087 A 
HETATM    5  C8  UNL     1      21.741   1.246  52.761  1.00  0.00     0.155 A 
HETATM    6  N3  UNL     1      23.123   1.533  52.596  1.00  0.00    -0.244 N 
ENDROOT
BRANCH   6   7
HETATM    7  C9  UNL     1      23.573   2.765  52.116  1.00  0.00     0.058 A 
HETATM    8  C10 UNL     1      23.233   4.071  52.344  1.00  0.00     0.034 A 
HETATM    9  C11 UNL     1      23.797   5.162  51.729  1.00  0.00     0.032 A 
HETATM   10  C12 UNL     1      24.790   4.994  50.799  1.00  0.00     0.036 A 
HETATM   11  C13 UNL     1      25.187   3.712  50.517  1.00  0.00    -0.028 A 
HETATM   12  N4  UNL     1      25.494   5.956  50.061  1.00  0.00    -0.384 N 
HETATM   13  C14 UNL     1      24.590   2.645  51.161  1.00  0.00     0.041 A 
HETATM   14  C15 UNL     1      26.256   3.858  49.494  1.00  0.00     0.060 C 
HETATM   15  C16 UNL     1      26.078   5.236  48.926  1.00  0.00     0.127 C 
HETATM   16  C17 UNL     1      25.647   7.376  50.318  1.00  0.00     0.149 C 
ENDBRANCH   6   7
BRANCH   1  17
HETATM   17  N1  UNL     1      25.387   0.497  52.961  1.00  0.00    -0.249 N 
HETATM   18  C3  UNL     1      26.470   1.097  53.611  1.00  0.00     0.237 C 
HETATM   19  O1  UNL     1      26.250   1.958  54.519  1.00  0.00    -0.272 OA
HETATM   20  H6  UNL     1      25.495  -0.233  52.194  1.00  0.00     0.192 HD
BRANCH  18  21
HETATM   21  C2  UNL     1      27.810   0.626  53.132  1.00  0.00     0.100 C 
HETATM   22  C1  UNL     1      27.786  -0.876  53.008  1.00  0.00     0.014 C 
ENDBRANCH  18  21
ENDBRANCH   1  17
BRANCH   4  23
HETATM   23  O2  UNL     1      19.902  -0.111  53.376  1.00  0.00    -0.354 OA
HETATM   24  C7  UNL     1      18.986  -0.097  52.296  1.00  0.00     0.210 C 
ENDBRANCH   4  23
TORSDOF 4
ENDMDL
MODEL 9
REMARK VINA RESULT:      -7.1      2.335      4.944
REMARK  4 active torsions:
REMARK  status: ('A' for Active; 'I' for Inactive)
REMARK    1  A    between atoms: C2_2  and  C3_3 
REMARK       I    between atoms: C3_3  and  N1_5 
REMARK    2  A    between atoms: N1_5  and  N2_6 
REMARK    3  A    between atoms: C6_9  and  O2_10 
REMARK    4  A    between atoms: N3_13  and  C9_14 
ROOT
HETATM    1  N2  UNL     1      24.280   0.110  53.602  1.00  0.00    -0.199 N 
HETATM    2  C4  UNL     1      25.290  -0.686  54.254  1.00  0.00     0.140 A 
HETATM    3  C5  UNL     1      26.579  -0.361  54.228  1.00  0.00     0.059 A 
HETATM    4  C6  UNL     1      26.960   0.846  53.508  1.00  0.00     0.087 A 
HETATM    5  C8  UNL     1      26.034   1.568  52.913  1.00  0.00     0.155 A 
HETATM    6  N3  UNL     1      24.646   1.259  52.915  1.00  0.00    -0.244 N 
ENDROOT
BRANCH   6   7
HETATM    7  C9  UNL     1      23.710   2.045  52.239  1.00  0.00     0.058 A 
HETATM    8  C10 UNL     1      22.453   2.504  52.522  1.00  0.00     0.034 A 
HETATM    9  C11 UNL     1      21.672   3.260  51.683  1.00  0.00     0.032 A 
HETATM   10  C12 UNL     1      22.135   3.619  50.444  1.00  0.00     0.036 A 
HETATM   11  C13 UNL     1      23.390   3.196  50.088  1.00  0.00    -0.028 A 
HETATM   12  N4  UNL     1      21.511   4.377  49.443  1.00  0.00    -0.384 N 
HETATM   13  C14 UNL     1      24.139   2.437  50.965  1.00  0.00     0.041 A 
HETATM   14  C15 UNL     1      23.601   3.736  48.718  1.00  0.00     0.060 C 
HETATM   15  C16 UNL     1      22.230   4.065  48.204  1.00  0.00     0.127 C 
HETATM   16  C17 UNL     1      20.391   5.291  49.551  1.00  0.00     0.149 C 
ENDBRANCH   6   7
BRANCH   1  17
HETATM   17  N1  UNL     1      23.036  -0.473  53.774  1.00  0.00    -0.249 N 
HETATM   18  C3  UNL     1      22.341  -1.242  54.713  1.00  0.00     0.237 C 
HETATM   19  O1  UNL     1      22.923  -1.581  55.790  1.00  0.00    -0.272 OA
HETATM   20  H6  UNL     1      22.612  -0.151  52.851  1.00  0.00     0.192 HD
BRANCH  18  21
HETATM   21  C2  UNL     1      20.939  -1.584  54.309  1.00  0.00     0.100 C 
HETATM   22  C1  UNL     1      20.445  -0.551  53.328  1.00  0.00     0.014 C 
ENDBRANCH  18  21
ENDBRANCH   1  17
BRANCH   4  23
HETATM   23  O2  UNL     1      28.303   1.196  53.473  1.00  0.00    -0.354 OA
HETATM   24  C7  UNL     1      28.775   2.524  53.611  1.00  0.00     0.210 C 
ENDBRANCH   4  23
TORSDOF 4
ENDMDL
