MODEL 1
REMARK VINA RESULT:      -8.8      0.000      0.000
REMARK  3 active torsions:
REMARK  status: ('A' for Active; 'I' for Inactive)
REMARK    1  A    between atoms: C4_4  and  C5_5 
REMARK    2  A    between atoms: C5_5  and  C6_6 
REMARK    3  A    between atoms: C18_19  and  O1_20 
ROOT
HETATM    1  C5  UNL     1      24.283   1.721  51.315  1.00  0.00     0.021 C 
ENDROOT
BRANCH   1   2
HETATM    2  C4  UNL     1      24.542   0.793  52.351  1.00  0.00    -0.035 C 
HETATM    3  C3  UNL     1      25.960   0.365  52.390  1.00  0.00     0.014 C 
HETATM    4  C2  UNL     1      26.742  -0.045  53.404  1.00  0.00    -0.077 C 
HETATM    5  C1  UNL     1      28.173  -0.426  53.158  1.00  0.00     0.044 C 
HETATM    6  C19 UNL     1      26.332  -0.174  54.830  1.00  0.00     0.098 C 
HETATM    7  C18 UNL     1      24.962  -0.720  54.958  1.00  0.00     0.053 C 
HETATM    8  C16 UNL     1      23.795  -0.586  54.364  1.00  0.00    -0.032 C 
HETATM    9  C15 UNL     1      23.686   0.325  53.246  1.00  0.00     0.020 C 
HETATM   10  C17 UNL     1      22.560  -1.306  54.759  1.00  0.00     0.050 C 
BRANCH   7  11
HETATM   11  O1  UNL     1      24.784  -1.642  55.981  1.00  0.00    -0.364 OA
HETATM   12  H19 UNL     1      24.852  -2.623  55.711  1.00  0.00     0.217 HD
ENDBRANCH   7  11
ENDBRANCH   1   2
BRANCH   1  13
HETATM   13  C6  UNL     1      24.019   2.717  50.534  1.00  0.00    -0.023 C 
HETATM   14  C7  UNL     1      25.088   3.554  49.938  1.00  0.00    -0.001 A 
HETATM   15  C8  UNL     1      26.397   3.375  49.492  1.00  0.00     0.014 A 
HETATM   16  C12 UNL     1      24.603   4.864  49.822  1.00  0.00     0.039 A 
HETATM   17  C9  UNL     1      27.224   4.326  48.972  1.00  0.00     0.001 A 
HETATM   18  C10 UNL     1      26.707   5.611  48.876  1.00  0.00     0.002 A 
HETATM   19  C11 UNL     1      25.418   5.874  49.294  1.00  0.00     0.030 A 
HETATM   20  N1  UNL     1      23.246   4.820  50.318  1.00  0.00    -0.381 N 
HETATM   21  C13 UNL     1      22.827   3.455  49.945  1.00  0.00     0.112 C 
HETATM   22  H10 UNL     1      22.822   5.664  50.806  1.00  0.00     0.160 HD
HETATM   23  C14 UNL     1      22.851   3.391  48.450  1.00  0.00     0.037 C 
ENDBRANCH   1  13
TORSDOF 3
ENDMDL
MODEL 2
REMARK VINA RESULT:      -8.7      3.041      7.188
REMARK  3 active torsions:
REMARK  status: ('A' for Active; 'I' for Inactive)
REMARK    1  A    between atoms: C4_4  and  C5_5 
REMARK    2  A    between atoms: C5_5  and  C6_6 
REMARK    3  A    between atoms: C18_19  and  O1_20 
ROOT
HETATM    1  C5  UNL     1      26.075   1.431  51.773  1.00  0.00     0.021 C 
ENDROOT
BRANCH   1   2
HETATM    2  C4  UNL     1      25.768   2.498  50.897  1.00  0.00    -0.035 C 
HETATM    3  C3  UNL     1      24.313   2.626  50.643  1.00  0.00     0.014 C 
HETATM    4  C2  UNL     1      23.549   3.691  50.344  1.00  0.00    -0.077 C 
HETATM    5  C1  UNL     1      22.071   3.533  50.135  1.00  0.00     0.044 C 
HETATM    6  C19 UNL     1      24.023   5.094  50.187  1.00  0.00     0.098 C 
HETATM    7  C18 UNL     1      25.324   5.156  49.482  1.00  0.00     0.053 C 
HETATM    8  C16 UNL     1      26.461   4.494  49.466  1.00  0.00    -0.032 C 
HETATM    9  C15 UNL     1      26.613   3.354  50.342  1.00  0.00     0.020 C 
HETATM   10  C17 UNL     1      27.623   4.834  48.609  1.00  0.00     0.050 C 
BRANCH   7  11
HETATM   11  O1  UNL     1      25.450   6.186  48.559  1.00  0.00    -0.364 OA
HETATM   12  H19 UNL     1      26.354   6.254  48.091  1.00  0.00     0.217 HD
ENDBRANCH   7  11
ENDBRANCH   1   2
BRANCH   1  13
HETATM   13  C6  UNL     1      26.142   0.395  52.545  1.00  0.00    -0.023 C 
HETATM   14  C7  UNL     1      24.963  -0.109  53.289  1.00  0.00    -0.001 A 
HETATM   15  C8  UNL     1      23.584  -0.173  53.097  1.00  0.00     0.014 A 
HETATM   16  C12 UNL     1      25.411  -0.647  54.503  1.00  0.00     0.039 A 
HETATM   17  C9  UNL     1      22.658  -0.690  53.954  1.00  0.00     0.001 A 
HETATM   18  C10 UNL     1      23.142  -1.211  55.147  1.00  0.00     0.002 A 
HETATM   19  C11 UNL     1      24.496  -1.189  55.416  1.00  0.00     0.030 A 
HETATM   20  N1  UNL     1      26.849  -0.495  54.488  1.00  0.00    -0.381 N 
HETATM   21  C13 UNL     1      27.154  -0.621  53.049  1.00  0.00     0.112 C 
HETATM   22  H10 UNL     1      27.385  -0.339  55.392  1.00  0.00     0.160 HD
HETATM   23  C14 UNL     1      26.760  -2.007  52.645  1.00  0.00     0.037 C 
ENDBRANCH   1  13
TORSDOF 3
ENDMDL
MODEL 3
REMARK VINA RESULT:      -8.6      1.519      2.900
REMARK  3 active torsions:
REMARK  status: ('A' for Active; 'I' for Inactive)
REMARK    1  A    between atoms: C4_4  and  C5_5 
REMARK    2  A    between atoms: C5_5  and  C6_6 
REMARK    3  A    between atoms: C18_19  and  O1_20 
ROOT
HETATM    1  C5  UNL     1      25.467   3.043  51.064  1.00  0.00     0.021 C 
ENDROOT
BRANCH   1   2
HETATM    2  C4  UNL     1      25.931   2.061  51.970  1.00  0.00    -0.035 C 
HETATM    3  C3  UNL     1      24.829   1.264  52.560  1.00  0.00     0.014 C 
HETATM    4  C2  UNL     1      24.785  -0.001  53.014  1.00  0.00    -0.077 C 
HETATM    5  C1  UNL     1      23.511  -0.566  53.571  1.00  0.00     0.044 C 
HETATM    6  C19 UNL     1      25.919  -0.966  53.032  1.00  0.00     0.098 C 
HETATM    7  C18 UNL     1      27.192  -0.308  53.407  1.00  0.00     0.053 C 
HETATM    8  C16 UNL     1      27.817   0.824  53.163  1.00  0.00    -0.032 C 
HETATM    9  C15 UNL     1      27.186   1.793  52.295  1.00  0.00     0.020 C 
HETATM   10  C17 UNL     1      29.144   1.189  53.715  1.00  0.00     0.050 C 
BRANCH   7  11
HETATM   11  O1  UNL     1      28.010  -1.040  54.256  1.00  0.00    -0.364 OA
HETATM   12  H19 UNL     1      28.450  -1.864  53.848  1.00  0.00     0.217 HD
ENDBRANCH   7  11
ENDBRANCH   1   2
BRANCH   1  13
HETATM   13  C6  UNL     1      25.150   4.086  50.368  1.00  0.00    -0.023 C 
HETATM   14  C7  UNL     1      26.157   4.852  49.596  1.00  0.00    -0.001 A 
HETATM   15  C8  UNL     1      27.337   4.582  48.905  1.00  0.00     0.014 A 
HETATM   16  C12 UNL     1      25.777   6.201  49.601  1.00  0.00     0.039 A 
HETATM   17  C9  UNL     1      28.133   5.479  48.256  1.00  0.00     0.001 A 
HETATM   18  C10 UNL     1      27.723   6.806  48.286  1.00  0.00     0.002 A 
HETATM   19  C11 UNL     1      26.564   7.159  48.948  1.00  0.00     0.030 A 
HETATM   20  N1  UNL     1      24.539   6.253  50.346  1.00  0.00    -0.381 N 
HETATM   21  C13 UNL     1      23.938   4.941  50.033  1.00  0.00     0.112 C 
HETATM   22  H10 UNL     1      24.291   7.110  50.923  1.00  0.00     0.160 HD
HETATM   23  C14 UNL     1      23.674   4.930  48.559  1.00  0.00     0.037 C 
ENDBRANCH   1  13
TORSDOF 3
ENDMDL
MODEL 4
REMARK VINA RESULT:      -8.6      0.838      2.465
REMARK  3 active torsions:
REMARK  status: ('A' for Active; 'I' for Inactive)
REMARK    1  A    between atoms: C4_4  and  C5_5 
REMARK    2  A    between atoms: C5_5  and  C6_6 
REMARK    3  A    between atoms: C18_19  and  O1_20 
ROOT
HETATM    1  C5  UNL     1      24.003   2.078  51.341  1.00  0.00     0.021 C 
ENDROOT
BRANCH   1   2
HETATM    2  C4  UNL     1      24.051   1.298  52.520  1.00  0.00    -0.035 C 
HETATM    3  C3  UNL     1      22.714   1.106  53.130  1.00  0.00     0.014 C 
HETATM    4  C2  UNL     1      22.208   0.108  53.876  1.00  0.00    -0.077 C 
HETATM    5  C1  UNL     1      20.792   0.171  54.373  1.00  0.00     0.044 C 
HETATM    6  C19 UNL     1      22.928  -1.126  54.294  1.00  0.00     0.098 C 
HETATM    7  C18 UNL     1      24.332  -0.841  54.666  1.00  0.00     0.053 C 
HETATM    8  C16 UNL     1      25.326  -0.094  54.237  1.00  0.00    -0.032 C 
HETATM    9  C15 UNL     1      25.116   0.740  53.074  1.00  0.00     0.020 C 
HETATM   10  C17 UNL     1      26.671  -0.040  54.859  1.00  0.00     0.050 C 
BRANCH   7  11
HETATM   11  O1  UNL     1      24.802  -1.527  55.778  1.00  0.00    -0.364 OA
HETATM   12  H19 UNL     1      25.805  -1.713  55.794  1.00  0.00     0.217 HD
ENDBRANCH   7  11
ENDBRANCH   1   2
BRANCH   1  13
HETATM   13  C6  UNL     1      23.826   2.927  50.381  1.00  0.00    -0.023 C 
HETATM   14  C7  UNL     1      24.948   3.701  49.798  1.00  0.00    -0.001 A 
HETATM   15  C8  UNL     1      26.307   3.507  49.558  1.00  0.00     0.014 A 
HETATM   16  C12 UNL     1      24.457   4.955  49.410  1.00  0.00     0.039 A 
HETATM   17  C9  UNL     1      27.178   4.396  49.001  1.00  0.00     0.001 A 
HETATM   18  C10 UNL     1      26.654   5.628  48.632  1.00  0.00     0.002 A 
HETATM   19  C11 UNL     1      25.316   5.901  48.833  1.00  0.00     0.030 A 
HETATM   20  N1  UNL     1      23.048   4.937  49.730  1.00  0.00    -0.381 N 
HETATM   21  C13 UNL     1      22.708   3.513  49.533  1.00  0.00     0.112 C 
HETATM   22  H10 UNL     1      22.547   5.829  50.016  1.00  0.00     0.160 HD
HETATM   23  C14 UNL     1      22.931   3.214  48.083  1.00  0.00     0.037 C 
ENDBRANCH   1  13
TORSDOF 3
ENDMDL
MODEL 5
REMARK VINA RESULT:      -8.6      2.961      5.699
REMARK  3 active torsions:
REMARK  status: ('A' for Active; 'I' for Inactive)
REMARK    1  A    between atoms: C4_4  and  C5_5 
REMARK    2  A    between atoms: C5_5  and  C6_6 
REMARK    3  A    between atoms: C18_19  and  O1_20 
ROOT
HETATM    1  C5  UNL     1      24.063  -0.052  53.698  1.00  0.00     0.021 C 
ENDROOT
BRANCH   1   2
HETATM    2  C4  UNL     1      25.386   0.314  53.355  1.00  0.00    -0.035 C 
HETATM    3  C3  UNL     1      25.451   1.106  52.104  1.00  0.00     0.014 C 
HETATM    4  C2  UNL     1      26.319   2.045  51.687  1.00  0.00    -0.077 C 
HETATM    5  C1  UNL     1      26.145   2.700  50.347  1.00  0.00     0.044 C 
HETATM    6  C19 UNL     1      27.503   2.543  52.440  1.00  0.00     0.098 C 
HETATM    7  C18 UNL     1      28.203   1.445  53.145  1.00  0.00     0.053 C 
HETATM    8  C16 UNL     1      27.892   0.368  53.833  1.00  0.00    -0.032 C 
HETATM    9  C15 UNL     1      26.495   0.048  54.027  1.00  0.00     0.020 C 
HETATM   10  C17 UNL     1      28.877  -0.560  54.439  1.00  0.00     0.050 C 
BRANCH   7  11
HETATM   11  O1  UNL     1      29.590   1.510  53.113  1.00  0.00    -0.364 OA
HETATM   12  H19 UNL     1      30.006   2.334  53.546  1.00  0.00     0.217 HD
ENDBRANCH   7  11
ENDBRANCH   1   2
BRANCH   1  13
HETATM   13  C6  UNL     1      22.796  -0.282  53.821  1.00  0.00    -0.023 C 
HETATM   14  C7  UNL     1      21.824   0.079  52.762  1.00  0.00    -0.001 A 
HETATM   15  C8  UNL     1      21.812   0.160  51.370  1.00  0.00     0.014 A 
HETATM   16  C12 UNL     1      20.617   0.432  53.381  1.00  0.00     0.039 A 
HETATM   17  C9  UNL     1      20.769   0.542  50.579  1.00  0.00     0.001 A 
HETATM   18  C10 UNL     1      19.591   0.886  51.230  1.00  0.00     0.002 A 
HETATM   19  C11 UNL     1      19.518   0.831  52.608  1.00  0.00     0.030 A 
HETATM   20  N1  UNL     1      20.843   0.263  54.798  1.00  0.00    -0.381 N 
HETATM   21  C13 UNL     1      21.807  -0.855  54.823  1.00  0.00     0.112 C 
HETATM   22  H10 UNL     1      20.347   0.886  55.503  1.00  0.00     0.160 HD
HETATM   23  C14 UNL     1      21.101  -2.044  54.250  1.00  0.00     0.037 C 
ENDBRANCH   1  13
TORSDOF 3
ENDMDL
MODEL 6
REMARK VINA RESULT:      -8.4      3.367      7.238
REMARK  3 active torsions:
REMARK  status: ('A' for Active; 'I' for Inactive)
REMARK    1  A    between atoms: C4_4  and  C5_5 
REMARK    2  A    between atoms: C5_5  and  C6_6 
REMARK    3  A    between atoms: C18_19  and  O1_20 
ROOT
HETATM    1  C5  UNL     1      26.180   2.340  50.705  1.00  0.00     0.021 C 
ENDROOT
BRANCH   1   2
HETATM    2  C4  UNL     1      26.119   3.463  49.847  1.00  0.00    -0.035 C 
HETATM    3  C3  UNL     1      24.758   3.694  49.307  1.00  0.00     0.014 C 
HETATM    4  C2  UNL     1      24.131   4.818  48.919  1.00  0.00    -0.077 C 
HETATM    5  C1  UNL     1      22.723   4.763  48.401  1.00  0.00     0.044 C 
HETATM    6  C19 UNL     1      24.700   6.194  48.943  1.00  0.00     0.098 C 
HETATM    7  C18 UNL     1      26.121   6.204  48.526  1.00  0.00     0.053 C 
HETATM    8  C16 UNL     1      27.200   5.473  48.707  1.00  0.00    -0.032 C 
HETATM    9  C15 UNL     1      27.105   4.287  49.528  1.00  0.00     0.020 C 
HETATM   10  C17 UNL     1      28.531   5.777  48.128  1.00  0.00     0.050 C 
BRANCH   7  11
HETATM   11  O1  UNL     1      26.491   7.265  47.709  1.00  0.00    -0.364 OA
HETATM   12  H19 UNL     1      26.352   7.124  46.708  1.00  0.00     0.217 HD
ENDBRANCH   7  11
ENDBRANCH   1   2
BRANCH   1  13
HETATM   13  C6  UNL     1      26.240   1.464  51.655  1.00  0.00    -0.023 C 
HETATM   14  C7  UNL     1      27.353   1.440  52.634  1.00  0.00    -0.001 A 
HETATM   15  C8  UNL     1      28.191   2.367  53.252  1.00  0.00     0.014 A 
HETATM   16  C12 UNL     1      27.589   0.106  52.993  1.00  0.00     0.039 A 
HETATM   17  C9  UNL     1      29.189   2.105  54.143  1.00  0.00     0.001 A 
HETATM   18  C10 UNL     1      29.392   0.771  54.471  1.00  0.00     0.002 A 
HETATM   19  C11 UNL     1      28.604  -0.211  53.906  1.00  0.00     0.030 A 
HETATM   20  N1  UNL     1      26.614  -0.671  52.261  1.00  0.00    -0.381 N 
HETATM   21  C13 UNL     1      25.473   0.262  52.184  1.00  0.00     0.112 C 
HETATM   22  H10 UNL     1      26.842  -1.658  51.938  1.00  0.00     0.160 HD
HETATM   23  C14 UNL     1      25.018   0.502  53.590  1.00  0.00     0.037 C 
ENDBRANCH   1  13
TORSDOF 3
ENDMDL
MODEL 7
REMARK VINA RESULT:      -8.3      3.201      6.118
REMARK  3 active torsions:
REMARK  status: ('A' for Active; 'I' for Inactive)
REMARK    1  A    between atoms: C4_4  and  C5_5 
REMARK    2  A    between atoms: C5_5  and  C6_6 
REMARK    3  A    between atoms: C18_19  and  O1_20 
ROOT
HETATM    1  C5  UNL     1      24.343   0.943  52.401  1.00  0.00     0.021 C 
ENDROOT
BRANCH   1   2
HETATM    2  C4  UNL     1      23.347   1.350  51.482  1.00  0.00    -0.035 C 
HETATM    3  C3  UNL     1      23.743   2.550  50.708  1.00  0.00     0.014 C 
HETATM    4  C2  UNL     1      23.411   2.965  49.472  1.00  0.00    -0.077 C 
HETATM    5  C1  UNL     1      23.970   4.247  48.925  1.00  0.00     0.044 C 
HETATM    6  C19 UNL     1      22.502   2.262  48.526  1.00  0.00     0.098 C 
HETATM    7  C18 UNL     1      21.335   1.676  49.222  1.00  0.00     0.053 C 
HETATM    8  C16 UNL     1      21.084   1.037  50.345  1.00  0.00    -0.032 C 
HETATM    9  C15 UNL     1      22.179   0.771  51.251  1.00  0.00     0.020 C 
HETATM   10  C17 UNL     1      19.744   0.557  50.761  1.00  0.00     0.050 C 
BRANCH   7  11
HETATM   11  O1  UNL     1      20.123   1.796  48.554  1.00  0.00    -0.364 OA
HETATM   12  H19 UNL     1      19.561   2.611  48.797  1.00  0.00     0.217 HD
ENDBRANCH   7  11
ENDBRANCH   1   2
BRANCH   1  13
HETATM   13  C6  UNL     1      25.199   0.364  53.177  1.00  0.00    -0.023 C 
HETATM   14  C7  UNL     1      26.577   0.883  53.355  1.00  0.00    -0.001 A 
HETATM   15  C8  UNL     1      27.208   2.125  53.362  1.00  0.00     0.014 A 
HETATM   16  C12 UNL     1      27.431  -0.210  53.560  1.00  0.00     0.039 A 
HETATM   17  C9  UNL     1      28.537   2.370  53.540  1.00  0.00     0.001 A 
HETATM   18  C10 UNL     1      29.350   1.262  53.738  1.00  0.00     0.002 A 
HETATM   19  C11 UNL     1      28.805  -0.006  53.748  1.00  0.00     0.030 A 
HETATM   20  N1  UNL     1      26.580  -1.378  53.533  1.00  0.00    -0.381 N 
HETATM   21  C13 UNL     1      25.317  -0.850  54.085  1.00  0.00     0.112 C 
HETATM   22  H10 UNL     1      26.949  -2.307  53.169  1.00  0.00     0.160 HD
HETATM   23  C14 UNL     1      25.605  -0.432  55.493  1.00  0.00     0.037 C 
ENDBRANCH   1  13
TORSDOF 3
ENDMDL
MODEL 8
REMARK VINA RESULT:      -7.9      3.166      5.642
REMARK  3 active torsions:
REMARK  status: ('A' for Active; 'I' for Inactive)
REMARK    1  A    between atoms: C4_4  and  C5_5 
REMARK    2  A    between atoms: C5_5  and  C6_6 
REMARK    3  A    between atoms: C18_19  and  O1_20 
ROOT
HETATM    1  C5  UNL     1      23.896   1.226  53.042  1.00  0.00     0.021 C 
ENDROOT
BRANCH   1   2
HETATM    2  C4  UNL     1      22.505   0.969  53.023  1.00  0.00    -0.035 C 
HETATM    3  C3  UNL     1      21.712   2.156  52.623  1.00  0.00     0.014 C 
HETATM    4  C2  UNL     1      20.525   2.269  52.002  1.00  0.00    -0.077 C 
HETATM    5  C1  UNL     1      19.943   3.622  51.713  1.00  0.00     0.044 C 
HETATM    6  C19 UNL     1      19.668   1.144  51.537  1.00  0.00     0.098 C 
HETATM    7  C18 UNL     1      19.657   0.027  52.509  1.00  0.00     0.053 C 
HETATM    8  C16 UNL     1      20.512  -0.602  53.287  1.00  0.00    -0.032 C 
HETATM    9  C15 UNL     1      21.893  -0.174  53.289  1.00  0.00     0.020 C 
HETATM   10  C17 UNL     1      20.165  -1.738  54.175  1.00  0.00     0.050 C 
BRANCH   7  11
HETATM   11  O1  UNL     1      18.423  -0.579  52.702  1.00  0.00    -0.364 OA
HETATM   12  H19 UNL     1      18.226  -0.892  53.653  1.00  0.00     0.217 HD
ENDBRANCH   7  11
ENDBRANCH   1   2
BRANCH   1  13
HETATM   13  C6  UNL     1      25.145   1.492  52.838  1.00  0.00    -0.023 C 
HETATM   14  C7  UNL     1      26.194   0.447  52.909  1.00  0.00    -0.001 A 
HETATM   15  C8  UNL     1      26.300  -0.915  52.632  1.00  0.00     0.014 A 
HETATM   16  C12 UNL     1      27.367   1.039  53.396  1.00  0.00     0.039 A 
HETATM   17  C9  UNL     1      27.402  -1.702  52.790  1.00  0.00     0.001 A 
HETATM   18  C10 UNL     1      28.543  -1.079  53.277  1.00  0.00     0.002 A 
HETATM   19  C11 UNL     1      28.525   0.269  53.575  1.00  0.00     0.030 A 
HETATM   20  N1  UNL     1      27.044   2.433  53.597  1.00  0.00    -0.381 N 
HETATM   21  C13 UNL     1      26.051   2.674  52.531  1.00  0.00     0.112 C 
HETATM   22  H10 UNL     1      27.510   2.990  54.374  1.00  0.00     0.160 HD
HETATM   23  C14 UNL     1      26.761   2.472  51.228  1.00  0.00     0.037 C 
ENDBRANCH   1  13
TORSDOF 3
ENDMDL
MODEL 9
REMARK VINA RESULT:      -7.9      1.327      1.711
REMARK  3 active torsions:
REMARK  status: ('A' for Active; 'I' for Inactive)
REMARK    1  A    between atoms: C4_4  and  C5_5 
REMARK    2  A    between atoms: C5_5  and  C6_6 
REMARK    3  A    between atoms: C18_19  and  O1_20 
ROOT
HETATM    1  C5  UNL     1      22.879   2.463  51.817  1.00  0.00     0.021 C 
ENDROOT
BRANCH   1   2
HETATM    2  C4  UNL     1      22.864   1.246  52.538  1.00  0.00    -0.035 C 
HETATM    3  C3  UNL     1      24.169   0.544  52.498  1.00  0.00     0.014 C 
HETATM    4  C2  UNL     1      24.763  -0.287  53.372  1.00  0.00    -0.077 C 
HETATM    5  C1  UNL     1      26.116  -0.866  53.074  1.00  0.00     0.044 C 
HETATM    6  C19 UNL     1      24.205  -0.730  54.680  1.00  0.00     0.098 C 
HETATM    7  C18 UNL     1      22.751  -0.998  54.591  1.00  0.00     0.053 C 
HETATM    8  C16 UNL     1      21.691  -0.466  54.023  1.00  0.00    -0.032 C 
HETATM    9  C15 UNL     1      21.857   0.727  53.223  1.00  0.00     0.020 C 
HETATM   10  C17 UNL     1      20.313  -1.000  54.142  1.00  0.00     0.050 C 
BRANCH   7  11
HETATM   11  O1  UNL     1      22.311  -2.116  55.287  1.00  0.00    -0.364 OA
HETATM   12  H19 UNL     1      21.421  -2.014  55.775  1.00  0.00     0.217 HD
ENDBRANCH   7  11
ENDBRANCH   1   2
BRANCH   1  13
HETATM   13  C6  UNL     1      23.102   3.517  51.102  1.00  0.00    -0.023 C 
HETATM   14  C7  UNL     1      24.410   3.763  50.449  1.00  0.00    -0.001 A 
HETATM   15  C8  UNL     1      25.430   2.999  49.883  1.00  0.00     0.014 A 
HETATM   16  C12 UNL     1      24.634   5.147  50.429  1.00  0.00     0.039 A 
HETATM   17  C9  UNL     1      26.590   3.457  49.332  1.00  0.00     0.001 A 
HETATM   18  C10 UNL     1      26.775   4.833  49.333  1.00  0.00     0.002 A 
HETATM   19  C11 UNL     1      25.812   5.663  49.872  1.00  0.00     0.030 A 
HETATM   20  N1  UNL     1      23.465   5.738  51.039  1.00  0.00    -0.381 N 
HETATM   21  C13 UNL     1      22.403   4.789  50.650  1.00  0.00     0.112 C 
HETATM   22  H10 UNL     1      23.544   6.640  51.596  1.00  0.00     0.160 HD
HETATM   23  C14 UNL     1      22.308   4.839  49.157  1.00  0.00     0.037 C 
ENDBRANCH   1  13
TORSDOF 3
ENDMDL
