MODEL 1
REMARK VINA RESULT:      -8.9      0.000      0.000
REMARK  3 active torsions:
REMARK  status: ('A' for Active; 'I' for Inactive)
REMARK    1  A    between atoms: C2_2  and  C3_3 
REMARK    2  A    between atoms: C13_16  and  N3_17 
REMARK    3  A    between atoms: C18_23  and  N4_24 
ROOT
HETATM    1  C3  UNL     1      23.626   3.428  50.526  1.00  0.00    -0.036 C 
HETATM    2  C4  UNL     1      24.564   2.487  50.533  1.00  0.00     0.114 A 
HETATM    3  C5  UNL     1      24.904   2.235  51.801  1.00  0.00     0.015 A 
HETATM    4 CL1  UNL     1      26.426   2.562  50.989  1.00  0.00    -0.166 Cl
HETATM    5  C6  UNL     1      23.827   1.921  52.745  1.00  0.00     0.091 C 
HETATM    6  C7  UNL     1      22.711   1.307  51.928  1.00  0.00     0.017 C 
HETATM    7  C8  UNL     1      21.740   1.042  52.784  1.00  0.00     0.054 C 
HETATM    8  C9  UNL     1      20.626   1.933  52.672  1.00  0.00     0.048 C 
HETATM    9  C10 UNL     1      20.762   3.204  52.359  1.00  0.00     0.085 C 
HETATM   10  N1  UNL     1      21.792   4.082  52.060  1.00  0.00    -0.395 N 
HETATM   11  C11 UNL     1      23.176   4.069  51.778  1.00  0.00     0.155 C 
HETATM   12  N2  UNL     1      22.217  -0.070  53.522  1.00  0.00    -0.263 NA
HETATM   13  C12 UNL     1      23.416  -0.504  53.181  1.00  0.00     0.127 C 
HETATM   14  C13 UNL     1      24.275   0.661  53.520  1.00  0.00     0.279 C 
HETATM   15  H8  UNL     1      21.240   5.003  52.091  1.00  0.00     0.159 HD
ENDROOT
BRANCH  14  16
HETATM   16  N3  UNL     1      25.693   0.420  53.384  1.00  0.00     0.136 N 
HETATM   17  C14 UNL     1      25.868  -0.959  52.952  1.00  0.00     0.304 C 
HETATM   18  C15 UNL     1      27.348  -1.253  52.822  1.00  0.00     0.018 C 
HETATM   19  C16 UNL     1      28.205  -0.672  53.639  1.00  0.00    -0.010 C 
HETATM   20 BR1  UNL     1      30.096  -0.941  53.598  1.00  0.00    -0.056 Br
HETATM   21  C17 UNL     1      27.779   0.277  54.710  1.00  0.00     0.114 C 
HETATM   22  C18 UNL     1      26.304   0.483  54.734  1.00  0.00     0.457 C 
BRANCH  22  23
HETATM   23  N4  UNL     1      25.708  -0.636  55.487  1.00  0.00     0.112 N 
HETATM   24  H19 UNL     1      25.449  -0.344  56.455  1.00  0.00     0.315 HD
HETATM   25  H20 UNL     1      26.398  -1.389  55.567  1.00  0.00     0.315 HD
ENDBRANCH  22  23
ENDBRANCH  14  16
BRANCH   1  26
HETATM   26  C2  UNL     1      23.140   3.732  49.191  1.00  0.00    -0.020 C 
HETATM   27  C1  UNL     1      22.766   2.667  48.494  1.00  0.00     0.031 C 
ENDBRANCH   1  26
TORSDOF 3
ENDMDL
MODEL 2
REMARK VINA RESULT:      -7.6      2.209      3.920
REMARK  3 active torsions:
REMARK  status: ('A' for Active; 'I' for Inactive)
REMARK    1  A    between atoms: C2_2  and  C3_3 
REMARK    2  A    between atoms: C13_16  and  N3_17 
REMARK    3  A    between atoms: C18_23  and  N4_24 
ROOT
HETATM    1  C3  UNL     1      20.542   0.292  52.242  1.00  0.00    -0.036 C 
HETATM    2  C4  UNL     1      21.602   0.276  53.043  1.00  0.00     0.114 A 
HETATM    3  C5  UNL     1      22.678   0.631  52.332  1.00  0.00     0.015 A 
HETATM    4 CL1  UNL     1      23.130  -0.884  53.096  1.00  0.00    -0.166 Cl
HETATM    5  C6  UNL     1      22.606   1.880  51.566  1.00  0.00     0.091 C 
HETATM    6  C7  UNL     1      21.621   2.769  52.294  1.00  0.00     0.017 C 
HETATM    7  C8  UNL     1      21.551   3.884  51.589  1.00  0.00     0.054 C 
HETATM    8  C9  UNL     1      20.330   4.017  50.856  1.00  0.00     0.048 C 
HETATM    9  C10 UNL     1      19.700   2.986  50.334  1.00  0.00     0.085 C 
HETATM   10  N1  UNL     1      19.868   1.613  50.257  1.00  0.00    -0.395 N 
HETATM   11  C11 UNL     1      20.675   0.590  50.802  1.00  0.00     0.155 C 
HETATM   12  N2  UNL     1      22.785   4.535  51.841  1.00  0.00    -0.263 NA
HETATM   13  C12 UNL     1      23.609   3.894  52.649  1.00  0.00     0.127 C 
HETATM   14  C13 UNL     1      23.904   2.660  51.875  1.00  0.00     0.279 C 
HETATM   15  H8  UNL     1      19.107   1.393  49.531  1.00  0.00     0.159 HD
ENDROOT
BRANCH  14  16
HETATM   16  N3  UNL     1      24.915   1.812  52.461  1.00  0.00     0.136 N 
HETATM   17  C14 UNL     1      25.458   2.507  53.621  1.00  0.00     0.304 C 
HETATM   18  C15 UNL     1      26.541   1.654  54.248  1.00  0.00     0.018 C 
HETATM   19  C16 UNL     1      27.300   0.893  53.482  1.00  0.00    -0.010 C 
HETATM   20 BR1  UNL     1      28.701  -0.234  54.125  1.00  0.00    -0.056 Br
HETATM   21  C17 UNL     1      27.142   0.834  51.999  1.00  0.00     0.114 C 
HETATM   22  C18 UNL     1      26.046   1.715  51.507  1.00  0.00     0.457 C 
BRANCH  22  23
HETATM   23  N4  UNL     1      26.586   3.082  51.397  1.00  0.00     0.112 N 
HETATM   24  H19 UNL     1      27.603   3.068  51.159  1.00  0.00     0.315 HD
HETATM   25  H20 UNL     1      26.488   3.554  52.301  1.00  0.00     0.315 HD
ENDBRANCH  22  23
ENDBRANCH  14  16
BRANCH   1  26
HETATM   26  C2  UNL     1      19.305  -0.020  52.936  1.00  0.00    -0.020 C 
HETATM   27  C1  UNL     1      19.272  -1.235  53.470  1.00  0.00     0.031 C 
ENDBRANCH   1  26
TORSDOF 3
ENDMDL
MODEL 3
REMARK VINA RESULT:      -7.5      4.109      6.709
REMARK  3 active torsions:
REMARK  status: ('A' for Active; 'I' for Inactive)
REMARK    1  A    between atoms: C2_2  and  C3_3 
REMARK    2  A    between atoms: C13_16  and  N3_17 
REMARK    3  A    between atoms: C18_23  and  N4_24 
ROOT
HETATM    1  C3  UNL     1      22.449   1.936  51.356  1.00  0.00    -0.036 C 
HETATM    2  C4  UNL     1      22.400   2.841  50.385  1.00  0.00     0.114 A 
HETATM    3  C5  UNL     1      23.087   3.920  50.773  1.00  0.00     0.015 A 
HETATM    4 CL1  UNL     1      21.519   4.543  50.285  1.00  0.00    -0.166 Cl
HETATM    5  C6  UNL     1      24.461   3.720  51.246  1.00  0.00     0.091 C 
HETATM    6  C7  UNL     1      24.972   2.476  50.551  1.00  0.00     0.017 C 
HETATM    7  C8  UNL     1      26.203   2.295  50.995  1.00  0.00     0.054 C 
HETATM    8  C9  UNL     1      26.323   1.200  51.908  1.00  0.00     0.048 C 
HETATM    9  C10 UNL     1      25.370   0.878  52.757  1.00  0.00     0.085 C 
HETATM   10  N1  UNL     1      24.104   1.328  53.098  1.00  0.00    -0.395 N 
HETATM   11  C11 UNL     1      23.118   2.228  52.641  1.00  0.00     0.155 C 
HETATM   12  N2  UNL     1      26.956   3.319  50.368  1.00  0.00    -0.263 NA
HETATM   13  C12 UNL     1      26.270   4.120  49.572  1.00  0.00     0.127 C 
HETATM   14  C13 UNL     1      25.332   4.772  50.523  1.00  0.00     0.279 C 
HETATM   15  H8  UNL     1      23.957   0.748  53.990  1.00  0.00     0.159 HD
ENDROOT
BRANCH  14  16
HETATM   16  N3  UNL     1      24.535   5.829  49.948  1.00  0.00     0.136 N 
HETATM   17  C14 UNL     1      25.141   6.199  48.676  1.00  0.00     0.304 C 
HETATM   18  C15 UNL     1      24.340   7.326  48.055  1.00  0.00     0.018 C 
HETATM   19  C16 UNL     1      23.762   8.222  48.831  1.00  0.00    -0.010 C 
HETATM   20 BR1  UNL     1      22.723   9.694  48.197  1.00  0.00    -0.056 Br
HETATM   21  C17 UNL     1      23.863   8.183  50.319  1.00  0.00     0.114 C 
HETATM   22  C18 UNL     1      24.673   7.031  50.805  1.00  0.00     0.457 C 
BRANCH  22  23
HETATM   23  N4  UNL     1      26.093   7.415  50.718  1.00  0.00     0.112 N 
HETATM   24  H19 UNL     1      26.262   8.345  51.161  1.00  0.00     0.315 HD
HETATM   25  H20 UNL     1      26.358   7.492  49.731  1.00  0.00     0.315 HD
ENDBRANCH  22  23
ENDBRANCH  14  16
BRANCH   1  26
HETATM   26  C2  UNL     1      21.783   0.694  51.006  1.00  0.00    -0.020 C 
HETATM   27  C1  UNL     1      21.285   0.673  49.777  1.00  0.00     0.031 C 
ENDBRANCH   1  26
TORSDOF 3
ENDMDL
MODEL 4
REMARK VINA RESULT:      -7.3      3.721      6.201
REMARK  3 active torsions:
REMARK  status: ('A' for Active; 'I' for Inactive)
REMARK    1  A    between atoms: C2_2  and  C3_3 
REMARK    2  A    between atoms: C13_16  and  N3_17 
REMARK    3  A    between atoms: C18_23  and  N4_24 
ROOT
HETATM    1  C3  UNL     1      19.697   0.164  52.847  1.00  0.00    -0.036 C 
HETATM    2  C4  UNL     1      19.916   0.907  51.767  1.00  0.00     0.114 A 
HETATM    3  C5  UNL     1      20.672   1.952  52.116  1.00  0.00     0.015 A 
HETATM    4 CL1  UNL     1      19.292   2.657  51.290  1.00  0.00    -0.166 Cl
HETATM    5  C6  UNL     1      21.920   1.680  52.836  1.00  0.00     0.091 C 
HETATM    6  C7  UNL     1      22.362   0.296  52.414  1.00  0.00     0.017 C 
HETATM    7  C8  UNL     1      23.477   0.053  53.080  1.00  0.00     0.054 C 
HETATM    8  C9  UNL     1      23.311  -0.893  54.140  1.00  0.00     0.048 C 
HETATM    9  C10 UNL     1      22.207  -0.974  54.852  1.00  0.00     0.085 C 
HETATM   10  N1  UNL     1      20.975  -0.342  54.910  1.00  0.00    -0.395 N 
HETATM   11  C11 UNL     1      20.196   0.578  54.174  1.00  0.00     0.155 C 
HETATM   12  N2  UNL     1      24.444   0.879  52.455  1.00  0.00    -0.263 NA
HETATM   13  C12 UNL     1      23.999   1.616  51.454  1.00  0.00     0.127 C 
HETATM   14  C13 UNL     1      23.022   2.506  52.135  1.00  0.00     0.279 C 
HETATM   15  H8  UNL     1      20.618  -0.756  55.835  1.00  0.00     0.159 HD
ENDROOT
BRANCH  14  16
HETATM   16  N3  UNL     1      22.467   3.541  51.295  1.00  0.00     0.136 N 
HETATM   17  C14 UNL     1      23.347   3.697  50.144  1.00  0.00     0.304 C 
HETATM   18  C15 UNL     1      22.806   4.794  49.252  1.00  0.00     0.018 C 
HETATM   19  C16 UNL     1      22.182   5.826  49.788  1.00  0.00    -0.010 C 
HETATM   20 BR1  UNL     1      21.447   7.283  48.795  1.00  0.00    -0.056 Br
HETATM   21  C17 UNL     1      21.983   5.969  51.260  1.00  0.00     0.114 C 
HETATM   22  C18 UNL     1      22.558   4.828  52.026  1.00  0.00     0.457 C 
BRANCH  22  23
HETATM   23  N4  UNL     1      24.000   5.083  52.195  1.00  0.00     0.112 N 
HETATM   24  H19 UNL     1      24.495   5.076  51.276  1.00  0.00     0.315 HD
HETATM   25  H20 UNL     1      24.406   4.339  52.769  1.00  0.00     0.315 HD
ENDBRANCH  22  23
ENDBRANCH  14  16
BRANCH   1  26
HETATM   26  C2  UNL     1      18.933  -1.037  52.562  1.00  0.00    -0.020 C 
HETATM   27  C1  UNL     1      17.823  -1.159  53.278  1.00  0.00     0.031 C 
ENDBRANCH   1  26
TORSDOF 3
ENDMDL
MODEL 5
REMARK VINA RESULT:      -7.0      9.083     11.433
REMARK  3 active torsions:
REMARK  status: ('A' for Active; 'I' for Inactive)
REMARK    1  A    between atoms: C2_2  and  C3_3 
REMARK    2  A    between atoms: C13_16  and  N3_17 
REMARK    3  A    between atoms: C18_23  and  N4_24 
ROOT
HETATM    1  C3  UNL     1      31.620   4.911  47.968  1.00  0.00    -0.036 C 
HETATM    2  C4  UNL     1      30.455   5.399  47.554  1.00  0.00     0.114 A 
HETATM    3  C5  UNL     1      30.100   6.400  48.367  1.00  0.00     0.015 A 
HETATM    4 CL1  UNL     1      28.706   5.333  48.340  1.00  0.00    -0.166 Cl
HETATM    5  C6  UNL     1      31.076   7.471  48.595  1.00  0.00     0.091 C 
HETATM    6  C7  UNL     1      31.946   7.524  47.358  1.00  0.00     0.017 C 
HETATM    7  C8  UNL     1      32.831   8.480  47.580  1.00  0.00     0.054 C 
HETATM    8  C9  UNL     1      34.146   7.985  47.846  1.00  0.00     0.048 C 
HETATM    9  C10 UNL     1      34.363   6.862  48.497  1.00  0.00     0.085 C 
HETATM   10  N1  UNL     1      33.614   5.861  49.093  1.00  0.00    -0.395 N 
HETATM   11  C11 UNL     1      32.274   5.425  49.189  1.00  0.00     0.155 C 
HETATM   12  N2  UNL     1      32.084   9.680  47.473  1.00  0.00    -0.263 NA
HETATM   13  C12 UNL     1      30.800   9.526  47.205  1.00  0.00     0.127 C 
HETATM   14  C13 UNL     1      30.317   8.804  48.410  1.00  0.00     0.279 C 
HETATM   15  H8  UNL     1      34.404   5.344  49.606  1.00  0.00     0.159 HD
ENDROOT
BRANCH  14  16
HETATM   16  N3  UNL     1      28.885   8.621  48.466  1.00  0.00     0.136 N 
HETATM   17  C14 UNL     1      28.298   9.389  47.376  1.00  0.00     0.304 C 
HETATM   18  C15 UNL     1      26.792   9.238  47.420  1.00  0.00     0.018 C 
HETATM   19  C16 UNL     1      26.180   9.110  48.581  1.00  0.00    -0.010 C 
HETATM   20 BR1  UNL     1      24.292   8.911  48.795  1.00  0.00    -0.056 Br
HETATM   21  C17 UNL     1      26.913   9.110  49.881  1.00  0.00     0.114 C 
HETATM   22  C18 UNL     1      28.384   9.264  49.704  1.00  0.00     0.457 C 
BRANCH  22  23
HETATM   23  N4  UNL     1      28.668  10.702  49.543  1.00  0.00     0.112 N 
HETATM   24  H19 UNL     1      28.380  11.040  48.598  1.00  0.00     0.315 HD
HETATM   25  H20 UNL     1      29.677  10.855  49.630  1.00  0.00     0.315 HD
ENDBRANCH  22  23
ENDBRANCH  14  16
BRANCH   1  26
HETATM   26  C2  UNL     1      32.127   3.855  47.109  1.00  0.00    -0.020 C 
HETATM   27  C1  UNL     1      32.649   4.286  45.969  1.00  0.00     0.031 C 
ENDBRANCH   1  26
TORSDOF 3
ENDMDL
MODEL 6
REMARK VINA RESULT:      -6.8      4.466      6.786
REMARK  3 active torsions:
REMARK  status: ('A' for Active; 'I' for Inactive)
REMARK    1  A    between atoms: C2_2  and  C3_3 
REMARK    2  A    between atoms: C13_16  and  N3_17 
REMARK    3  A    between atoms: C18_23  and  N4_24 
ROOT
HETATM    1  C3  UNL     1      21.987   3.366  49.400  1.00  0.00    -0.036 C 
HETATM    2  C4  UNL     1      22.655   4.057  48.482  1.00  0.00     0.114 A 
HETATM    3  C5  UNL     1      23.417   4.963  49.103  1.00  0.00     0.015 A 
HETATM    4 CL1  UNL     1      22.504   5.884  47.918  1.00  0.00    -0.166 Cl
HETATM    5  C6  UNL     1      24.308   4.491  50.167  1.00  0.00     0.091 C 
HETATM    6  C7  UNL     1      24.635   3.050  49.839  1.00  0.00     0.017 C 
HETATM    7  C8  UNL     1      25.424   2.628  50.811  1.00  0.00     0.054 C 
HETATM    8  C9  UNL     1      24.779   1.728  51.717  1.00  0.00     0.048 C 
HETATM    9  C10 UNL     1      23.507   1.836  52.038  1.00  0.00     0.085 C 
HETATM   10  N1  UNL     1      22.439   2.665  51.734  1.00  0.00    -0.395 N 
HETATM   11  C11 UNL     1      22.094   3.698  50.835  1.00  0.00     0.155 C 
HETATM   12  N2  UNL     1      26.659   3.279  50.566  1.00  0.00    -0.263 NA
HETATM   13  C12 UNL     1      26.681   4.074  49.512  1.00  0.00     0.127 C 
HETATM   14  C13 UNL     1      25.693   5.118  49.891  1.00  0.00     0.279 C 
HETATM   15  H8  UNL     1      21.744   2.320  52.477  1.00  0.00     0.159 HD
ENDROOT
BRANCH  14  16
HETATM   16  N3  UNL     1      25.609   6.227  48.970  1.00  0.00     0.136 N 
HETATM   17  C14 UNL     1      26.946   6.469  48.445  1.00  0.00     0.304 C 
HETATM   18  C15 UNL     1      26.898   7.645  47.492  1.00  0.00     0.018 C 
HETATM   19  C16 UNL     1      26.054   8.634  47.714  1.00  0.00    -0.010 C 
HETATM   20 BR1  UNL     1      25.878  10.178  46.603  1.00  0.00    -0.056 Br
HETATM   21  C17 UNL     1      25.129   8.654  48.885  1.00  0.00     0.114 C 
HETATM   22  C18 UNL     1      25.272   7.446  49.744  1.00  0.00     0.457 C 
BRANCH  22  23
HETATM   23  N4  UNL     1      26.418   7.670  50.644  1.00  0.00     0.112 N 
HETATM   24  H19 UNL     1      27.206   8.135  50.143  1.00  0.00     0.315 HD
HETATM   25  H20 UNL     1      26.759   6.765  50.981  1.00  0.00     0.315 HD
ENDBRANCH  22  23
ENDBRANCH  14  16
BRANCH   1  26
HETATM   26  C2  UNL     1      21.173   2.308  48.829  1.00  0.00    -0.020 C 
HETATM   27  C1  UNL     1      21.865   1.377  48.186  1.00  0.00     0.031 C 
ENDBRANCH   1  26
TORSDOF 3
ENDMDL
MODEL 7
REMARK VINA RESULT:      -6.8      4.023      5.592
REMARK  3 active torsions:
REMARK  status: ('A' for Active; 'I' for Inactive)
REMARK    1  A    between atoms: C2_2  and  C3_3 
REMARK    2  A    between atoms: C13_16  and  N3_17 
REMARK    3  A    between atoms: C18_23  and  N4_24 
ROOT
HETATM    1  C3  UNL     1      24.861   5.153  49.552  1.00  0.00    -0.036 C 
HETATM    2  C4  UNL     1      24.724   3.950  50.098  1.00  0.00     0.114 A 
HETATM    3  C5  UNL     1      23.463   3.817  50.523  1.00  0.00     0.015 A 
HETATM    4 CL1  UNL     1      24.448   3.412  51.920  1.00  0.00    -0.166 Cl
HETATM    5  C6  UNL     1      22.388   4.093  49.564  1.00  0.00     0.091 C 
HETATM    6  C7  UNL     1      22.957   3.800  48.193  1.00  0.00     0.017 C 
HETATM    7  C8  UNL     1      21.988   4.067  47.335  1.00  0.00     0.054 C 
HETATM    8  C9  UNL     1      22.202   5.270  46.592  1.00  0.00     0.048 C 
HETATM    9  C10 UNL     1      22.797   6.325  47.107  1.00  0.00     0.085 C 
HETATM   10  N1  UNL     1      23.365   6.695  48.316  1.00  0.00    -0.395 N 
HETATM   11  C11 UNL     1      23.748   6.124  49.550  1.00  0.00     0.155 C 
HETATM   12  N2  UNL     1      21.065   3.005  47.509  1.00  0.00    -0.263 NA
HETATM   13  C12 UNL     1      21.399   2.107  48.418  1.00  0.00     0.127 C 
HETATM   14  C13 UNL     1      21.395   2.914  49.666  1.00  0.00     0.279 C 
HETATM   15  H8  UNL     1      23.493   7.744  48.126  1.00  0.00     0.159 HD
ENDROOT
BRANCH  14  16
HETATM   16  N3  UNL     1      21.589   2.148  50.875  1.00  0.00     0.136 N 
HETATM   17  C14 UNL     1      21.441   0.740  50.536  1.00  0.00     0.304 C 
HETATM   18  C15 UNL     1      21.615  -0.092  51.790  1.00  0.00     0.018 C 
HETATM   19  C16 UNL     1      21.213   0.383  52.952  1.00  0.00    -0.010 C 
HETATM   20 BR1  UNL     1      21.367  -0.546  54.614  1.00  0.00    -0.056 Br
HETATM   21  C17 UNL     1      20.579   1.726  53.096  1.00  0.00     0.114 C 
HETATM   22  C18 UNL     1      20.464   2.444  51.795  1.00  0.00     0.457 C 
BRANCH  22  23
HETATM   23  N4  UNL     1      19.257   1.945  51.113  1.00  0.00     0.112 N 
HETATM   24  H19 UNL     1      19.140   0.917  51.256  1.00  0.00     0.315 HD
HETATM   25  H20 UNL     1      19.351   2.107  50.106  1.00  0.00     0.315 HD
ENDBRANCH  22  23
ENDBRANCH  14  16
BRANCH   1  26
HETATM   26  C2  UNL     1      26.186   5.374  48.999  1.00  0.00    -0.020 C 
HETATM   27  C1  UNL     1      26.998   4.330  49.099  1.00  0.00     0.031 C 
ENDBRANCH   1  26
TORSDOF 3
ENDMDL
MODEL 8
REMARK VINA RESULT:      -6.7      4.084      7.130
REMARK  3 active torsions:
REMARK  status: ('A' for Active; 'I' for Inactive)
REMARK    1  A    between atoms: C2_2  and  C3_3 
REMARK    2  A    between atoms: C13_16  and  N3_17 
REMARK    3  A    between atoms: C18_23  and  N4_24 
ROOT
HETATM    1  C3  UNL     1      23.670   1.638  52.822  1.00  0.00    -0.036 C 
HETATM    2  C4  UNL     1      22.519   1.029  52.559  1.00  0.00     0.114 A 
HETATM    3  C5  UNL     1      21.626   1.951  52.183  1.00  0.00     0.015 A 
HETATM    4 CL1  UNL     1      20.833   1.065  53.475  1.00  0.00    -0.166 Cl
HETATM    5  C6  UNL     1      22.005   2.863  51.100  1.00  0.00     0.091 C 
HETATM    6  C7  UNL     1      23.007   2.117  50.246  1.00  0.00     0.017 C 
HETATM    7  C8  UNL     1      23.355   2.952  49.283  1.00  0.00     0.054 C 
HETATM    8  C9  UNL     1      24.673   3.484  49.441  1.00  0.00     0.048 C 
HETATM    9  C10 UNL     1      25.196   3.744  50.620  1.00  0.00     0.085 C 
HETATM   10  N1  UNL     1      24.822   3.653  51.952  1.00  0.00    -0.395 N 
HETATM   11  C11 UNL     1      23.792   3.108  52.750  1.00  0.00     0.155 C 
HETATM   12  N2  UNL     1      22.219   3.002  48.436  1.00  0.00    -0.263 NA
HETATM   13  C12 UNL     1      21.196   2.258  48.816  1.00  0.00     0.127 C 
HETATM   14  C13 UNL     1      20.820   2.887  50.109  1.00  0.00     0.279 C 
HETATM   15  H8  UNL     1      25.633   4.204  52.391  1.00  0.00     0.159 HD
ENDROOT
BRANCH  14  16
HETATM   16  N3  UNL     1      19.612   2.361  50.702  1.00  0.00     0.136 N 
HETATM   17  C14 UNL     1      18.933   1.564  49.689  1.00  0.00     0.304 C 
HETATM   18  C15 UNL     1      17.647   1.015  50.272  1.00  0.00     0.018 C 
HETATM   19  C16 UNL     1      16.974   1.725  51.157  1.00  0.00    -0.010 C 
HETATM   20 BR1  UNL     1      15.342   1.168  51.978  1.00  0.00    -0.056 Br
HETATM   21  C17 UNL     1      17.424   3.071  51.618  1.00  0.00     0.114 C 
HETATM   22  C18 UNL     1      18.698   3.497  50.974  1.00  0.00     0.457 C 
BRANCH  22  23
HETATM   23  N4  UNL     1      18.366   4.060  49.653  1.00  0.00     0.112 N 
HETATM   24  H19 UNL     1      19.229   4.276  49.106  1.00  0.00     0.315 HD
HETATM   25  H20 UNL     1      17.856   4.939  49.783  1.00  0.00     0.315 HD
ENDBRANCH  22  23
ENDBRANCH  14  16
BRANCH   1  26
HETATM   26  C2  UNL     1      24.730   0.712  53.181  1.00  0.00    -0.020 C 
HETATM   27  C1  UNL     1      24.306  -0.510  53.478  1.00  0.00     0.031 C 
ENDBRANCH   1  26
TORSDOF 3
ENDMDL
MODEL 9
REMARK VINA RESULT:      -6.7      7.018      9.021
REMARK  3 active torsions:
REMARK  status: ('A' for Active; 'I' for Inactive)
REMARK    1  A    between atoms: C2_2  and  C3_3 
REMARK    2  A    between atoms: C13_16  and  N3_17 
REMARK    3  A    between atoms: C18_23  and  N4_24 
ROOT
HETATM    1  C3  UNL     1      24.180   6.810  48.976  1.00  0.00    -0.036 C 
HETATM    2  C4  UNL     1      24.815   7.640  48.156  1.00  0.00     0.114 A 
HETATM    3  C5  UNL     1      25.954   8.027  48.741  1.00  0.00     0.015 A 
HETATM    4 CL1  UNL     1      25.159   9.523  48.280  1.00  0.00    -0.166 Cl
HETATM    5  C6  UNL     1      26.852   6.981  49.242  1.00  0.00     0.091 C 
HETATM    6  C7  UNL     1      26.599   5.758  48.388  1.00  0.00     0.017 C 
HETATM    7  C8  UNL     1      27.399   4.818  48.858  1.00  0.00     0.054 C 
HETATM    8  C9  UNL     1      26.712   3.801  49.594  1.00  0.00     0.048 C 
HETATM    9  C10 UNL     1      25.655   4.056  50.336  1.00  0.00     0.085 C 
HETATM   10  N1  UNL     1      24.883   5.154  50.680  1.00  0.00    -0.395 N 
HETATM   11  C11 UNL     1      24.710   6.509  50.321  1.00  0.00     0.155 C 
HETATM   12  N2  UNL     1      28.692   5.216  48.435  1.00  0.00    -0.263 NA
HETATM   13  C12 UNL     1      28.741   6.338  47.741  1.00  0.00     0.127 C 
HETATM   14  C13 UNL     1      28.267   7.337  48.735  1.00  0.00     0.279 C 
HETATM   15  H8  UNL     1      24.299   4.707  51.463  1.00  0.00     0.159 HD
ENDROOT
BRANCH  14  16
HETATM   16  N3  UNL     1      28.353   8.709  48.293  1.00  0.00     0.136 N 
HETATM   17  C14 UNL     1      29.389   8.782  47.272  1.00  0.00     0.304 C 
HETATM   18  C15 UNL     1      29.521  10.216  46.803  1.00  0.00     0.018 C 
HETATM   19  C16 UNL     1      29.320  11.204  47.652  1.00  0.00    -0.010 C 
HETATM   20 BR1  UNL     1      29.449  13.058  47.209  1.00  0.00    -0.056 Br
HETATM   21  C17 UNL     1      28.965  10.974  49.084  1.00  0.00     0.114 C 
HETATM   22  C18 UNL     1      28.864   9.527  49.420  1.00  0.00     0.457 C 
BRANCH  22  23
HETATM   23  N4  UNL     1      30.228   9.031  49.678  1.00  0.00     0.112 N 
HETATM   24  H19 UNL     1      30.304   8.010  49.473  1.00  0.00     0.315 HD
HETATM   25  H20 UNL     1      30.450   9.164  50.669  1.00  0.00     0.315 HD
ENDBRANCH  22  23
ENDBRANCH  14  16
BRANCH   1  26
HETATM   26  C2  UNL     1      22.954   6.280  48.405  1.00  0.00    -0.020 C 
HETATM   27  C1  UNL     1      22.912   6.316  47.080  1.00  0.00     0.031 C 
ENDBRANCH   1  26
TORSDOF 3
ENDMDL
