MODEL 1
REMARK VINA RESULT:      -9.8      0.000      0.000
REMARK  1 active torsions:
REMARK  status: ('A' for Active; 'I' for Inactive)
REMARK    1  A    between atoms: C3_3  and  O1_4 
ROOT
HETATM    1  C1  UNL     1      21.572  -1.638  53.849  1.00  0.00     0.094 C 
HETATM    2  C2  UNL     1      21.804  -0.629  53.024  1.00  0.00    -0.138 C 
HETATM    3  C3  UNL     1      22.188   0.389  52.307  1.00  0.00     0.182 C 
HETATM    4  C5  UNL     1      23.462   0.977  52.504  1.00  0.00     0.181 C 
HETATM    5  C6  UNL     1      24.404   0.487  53.503  1.00  0.00     0.056 C 
HETATM    6  C7  UNL     1      25.098  -0.772  53.439  1.00  0.00     0.122 C 
HETATM    7  N1  UNL     1      26.107  -0.696  54.482  1.00  0.00    -0.386 N 
HETATM    8  C8  UNL     1      27.071   0.292  54.068  1.00  0.00     0.092 A 
HETATM    9  C9  UNL     1      28.092   0.493  54.980  1.00  0.00     0.151 A 
HETATM   10  N2  UNL     1      29.175   1.310  54.961  1.00  0.00    -0.252 NA
HETATM   11  C10 UNL     1      29.235   2.057  53.812  1.00  0.00     0.235 A 
HETATM   12  N3  UNL     1      28.261   1.919  52.854  1.00  0.00    -0.222 NA
HETATM   13  C11 UNL     1      27.217   1.084  52.951  1.00  0.00     0.157 A 
HETATM   14  N4  UNL     1      26.559   1.385  51.686  1.00  0.00    -0.337 N 
HETATM   15  C12 UNL     1      25.701   2.484  51.345  1.00  0.00     0.069 A 
HETATM   16  C13 UNL     1      26.453   3.204  50.400  1.00  0.00     0.059 A 
HETATM   17  C14 UNL     1      26.031   4.383  49.766  1.00  0.00     0.074 A 
HETATM   18 CL1  UNL     1      26.918   5.314  48.591  1.00  0.00    -0.081 Cl
HETATM   19  C15 UNL     1      24.784   4.877  50.091  1.00  0.00     0.140 A 
HETATM   20  F1  UNL     1      24.227   5.996  49.576  1.00  0.00    -0.204 F 
HETATM   21  C16 UNL     1      24.060   4.158  51.020  1.00  0.00     0.083 A 
HETATM   22  C17 UNL     1      24.474   3.006  51.638  1.00  0.00     0.099 A 
HETATM   23  O2  UNL     1      23.592   2.390  52.577  1.00  0.00    -0.339 OA
HETATM   24  H11 UNL     1      26.189  -1.215  55.374  1.00  0.00     0.159 HD
HETATM   25  H14 UNL     1      26.764   0.696  50.935  1.00  0.00     0.167 HD
ENDROOT
BRANCH   3  26
HETATM   26  O1  UNL     1      21.201   0.736  51.415  1.00  0.00    -0.366 OA
HETATM   27  C4  UNL     1      21.463   0.990  50.047  1.00  0.00     0.204 C 
ENDBRANCH   3  26
TORSDOF 1
ENDMDL
MODEL 2
REMARK VINA RESULT:      -8.7      3.269      5.260
REMARK  1 active torsions:
REMARK  status: ('A' for Active; 'I' for Inactive)
REMARK    1  A    between atoms: C3_3  and  O1_4 
ROOT
HETATM    1  C1  UNL     1      19.295  -0.855  53.498  1.00  0.00     0.094 C 
HETATM    2  C2  UNL     1      20.573  -0.893  53.845  1.00  0.00    -0.138 C 
HETATM    3  C3  UNL     1      21.860  -0.823  54.039  1.00  0.00     0.182 C 
HETATM    4  C5  UNL     1      22.671   0.016  53.236  1.00  0.00     0.181 C 
HETATM    5  C6  UNL     1      22.125   0.837  52.162  1.00  0.00     0.056 C 
HETATM    6  C7  UNL     1      21.281   1.988  52.347  1.00  0.00     0.122 C 
HETATM    7  N1  UNL     1      21.223   2.623  51.042  1.00  0.00    -0.386 N 
HETATM    8  C8  UNL     1      22.535   3.153  50.770  1.00  0.00     0.092 A 
HETATM    9  C9  UNL     1      22.643   3.775  49.538  1.00  0.00     0.151 A 
HETATM   10  N2  UNL     1      23.682   4.396  48.926  1.00  0.00    -0.252 NA
HETATM   11  C10 UNL     1      24.816   4.386  49.699  1.00  0.00     0.235 A 
HETATM   12  N3  UNL     1      24.796   3.788  50.936  1.00  0.00    -0.222 NA
HETATM   13  C11 UNL     1      23.721   3.192  51.470  1.00  0.00     0.157 A 
HETATM   14  N4  UNL     1      24.300   2.758  52.735  1.00  0.00    -0.337 N 
HETATM   15  C12 UNL     1      25.124   1.617  53.015  1.00  0.00     0.069 A 
HETATM   16  C13 UNL     1      26.361   2.185  53.369  1.00  0.00     0.059 A 
HETATM   17  C14 UNL     1      27.506   1.458  53.729  1.00  0.00     0.074 A 
HETATM   18 CL1  UNL     1      29.059   2.107  54.175  1.00  0.00    -0.081 Cl
HETATM   19  C15 UNL     1      27.417   0.081  53.737  1.00  0.00     0.140 A 
HETATM   20  F1  UNL     1      28.421  -0.766  54.058  1.00  0.00    -0.204 F 
HETATM   21  C16 UNL     1      26.197  -0.460  53.387  1.00  0.00     0.083 A 
HETATM   22  C17 UNL     1      25.078   0.253  53.036  1.00  0.00     0.099 A 
HETATM   23  O2  UNL     1      23.894  -0.473  52.703  1.00  0.00    -0.339 OA
HETATM   24  H11 UNL     1      20.436   2.720  50.377  1.00  0.00     0.159 HD
HETATM   25  H14 UNL     1      24.080   3.388  53.533  1.00  0.00     0.167 HD
ENDROOT
BRANCH   3  26
HETATM   26  O1  UNL     1      22.225  -1.647  55.077  1.00  0.00    -0.366 OA
HETATM   27  C4  UNL     1      23.439  -1.490  55.787  1.00  0.00     0.204 C 
ENDBRANCH   3  26
TORSDOF 1
ENDMDL
MODEL 3
REMARK VINA RESULT:      -8.6      2.976      5.336
REMARK  1 active torsions:
REMARK  status: ('A' for Active; 'I' for Inactive)
REMARK    1  A    between atoms: C3_3  and  O1_4 
ROOT
HETATM    1  C1  UNL     1      26.105  -0.006  55.110  1.00  0.00     0.094 C 
HETATM    2  C2  UNL     1      26.501   0.963  54.298  1.00  0.00    -0.138 C 
HETATM    3  C3  UNL     1      26.748   1.865  53.391  1.00  0.00     0.182 C 
HETATM    4  C5  UNL     1      25.867   2.059  52.300  1.00  0.00     0.181 C 
HETATM    5  C6  UNL     1      24.650   1.274  52.127  1.00  0.00     0.056 C 
HETATM    6  C7  UNL     1      23.483   1.361  52.964  1.00  0.00     0.122 C 
HETATM    7  N1  UNL     1      22.457   0.617  52.255  1.00  0.00    -0.386 N 
HETATM    8  C8  UNL     1      22.132   1.368  51.069  1.00  0.00     0.092 A 
HETATM    9  C9  UNL     1      21.174   0.767  50.271  1.00  0.00     0.151 A 
HETATM   10  N2  UNL     1      20.601   1.148  49.103  1.00  0.00    -0.252 NA
HETATM   11  C10 UNL     1      21.083   2.355  48.663  1.00  0.00     0.235 A 
HETATM   12  N3  UNL     1      22.036   3.020  49.395  1.00  0.00    -0.222 NA
HETATM   13  C11 UNL     1      22.554   2.570  50.546  1.00  0.00     0.157 A 
HETATM   14  N4  UNL     1      23.482   3.660  50.825  1.00  0.00    -0.337 N 
HETATM   15  C12 UNL     1      24.789   3.903  50.284  1.00  0.00     0.069 A 
HETATM   16  C13 UNL     1      24.618   5.082  49.536  1.00  0.00     0.059 A 
HETATM   17  C14 UNL     1      25.630   5.724  48.805  1.00  0.00     0.074 A 
HETATM   18 CL1  UNL     1      25.476   7.181  47.864  1.00  0.00    -0.081 Cl
HETATM   19  C15 UNL     1      26.889   5.159  48.818  1.00  0.00     0.140 A 
HETATM   20  F1  UNL     1      27.972   5.647  48.171  1.00  0.00    -0.204 F 
HETATM   21  C16 UNL     1      27.039   4.004  49.556  1.00  0.00     0.083 A 
HETATM   22  C17 UNL     1      26.048   3.378  50.270  1.00  0.00     0.099 A 
HETATM   23  O2  UNL     1      26.381   2.185  50.981  1.00  0.00    -0.339 OA
HETATM   24  H11 UNL     1      21.998  -0.281  52.488  1.00  0.00     0.159 HD
HETATM   25  H14 UNL     1      23.118   4.353  51.509  1.00  0.00     0.167 HD
ENDROOT
BRANCH   3  26
HETATM   26  O1  UNL     1      27.921   2.519  53.687  1.00  0.00    -0.366 OA
HETATM   27  C4  UNL     1      29.121   1.835  53.994  1.00  0.00     0.204 C 
ENDBRANCH   3  26
TORSDOF 1
ENDMDL
MODEL 4
REMARK VINA RESULT:      -8.6      3.160      5.516
REMARK  1 active torsions:
REMARK  status: ('A' for Active; 'I' for Inactive)
REMARK    1  A    between atoms: C3_3  and  O1_4 
ROOT
HETATM    1  C1  UNL     1      22.251   4.658  49.517  1.00  0.00     0.094 C 
HETATM    2  C2  UNL     1      23.456   4.319  49.950  1.00  0.00    -0.138 C 
HETATM    3  C3  UNL     1      24.553   3.888  50.505  1.00  0.00     0.182 C 
HETATM    4  C5  UNL     1      24.512   2.936  51.553  1.00  0.00     0.181 C 
HETATM    5  C6  UNL     1      23.261   2.390  52.065  1.00  0.00     0.056 C 
HETATM    6  C7  UNL     1      22.391   1.498  51.346  1.00  0.00     0.122 C 
HETATM    7  N1  UNL     1      21.443   1.019  52.337  1.00  0.00    -0.386 N 
HETATM    8  C8  UNL     1      22.176   0.181  53.253  1.00  0.00     0.092 A 
HETATM    9  C9  UNL     1      21.402  -0.337  54.277  1.00  0.00     0.151 A 
HETATM   10  N2  UNL     1      21.706  -1.159  55.313  1.00  0.00    -0.252 NA
HETATM   11  C10 UNL     1      23.028  -1.522  55.312  1.00  0.00     0.235 A 
HETATM   12  N3  UNL     1      23.867  -1.052  54.330  1.00  0.00    -0.222 NA
HETATM   13  C11 UNL     1      23.485  -0.238  53.336  1.00  0.00     0.157 A 
HETATM   14  N4  UNL     1      24.764  -0.089  52.653  1.00  0.00    -0.337 N 
HETATM   15  C12 UNL     1      25.875   0.759  52.977  1.00  0.00     0.069 A 
HETATM   16  C13 UNL     1      26.888  -0.150  53.332  1.00  0.00     0.059 A 
HETATM   17  C14 UNL     1      28.184   0.207  53.736  1.00  0.00     0.074 A 
HETATM   18 CL1  UNL     1      29.474  -0.874  54.185  1.00  0.00    -0.081 Cl
HETATM   19  C15 UNL     1      28.492   1.551  53.793  1.00  0.00     0.140 A 
HETATM   20  F1  UNL     1      29.689   2.064  54.160  1.00  0.00    -0.204 F 
HETATM   21  C16 UNL     1      27.488   2.429  53.442  1.00  0.00     0.083 A 
HETATM   22  C17 UNL     1      26.222   2.078  53.047  1.00  0.00     0.099 A 
HETATM   23  O2  UNL     1      25.305   3.122  52.717  1.00  0.00    -0.339 OA
HETATM   24  H11 UNL     1      20.429   1.197  52.436  1.00  0.00     0.159 HD
HETATM   25  H14 UNL     1      24.867  -0.703  51.820  1.00  0.00     0.167 HD
ENDROOT
BRANCH   3  26
HETATM   26  O1  UNL     1      25.644   4.489  49.921  1.00  0.00    -0.366 OA
HETATM   27  C4  UNL     1      26.734   3.752  49.400  1.00  0.00     0.204 C 
ENDBRANCH   3  26
TORSDOF 1
ENDMDL
MODEL 5
REMARK VINA RESULT:      -8.4      3.434      5.972
REMARK  1 active torsions:
REMARK  status: ('A' for Active; 'I' for Inactive)
REMARK    1  A    between atoms: C3_3  and  O1_4 
ROOT
HETATM    1  C1  UNL     1      28.700   0.618  53.732  1.00  0.00     0.094 C 
HETATM    2  C2  UNL     1      27.430   0.239  53.744  1.00  0.00    -0.138 C 
HETATM    3  C3  UNL     1      26.146   0.029  53.677  1.00  0.00     0.182 C 
HETATM    4  C5  UNL     1      25.295   0.941  53.006  1.00  0.00     0.181 C 
HETATM    5  C6  UNL     1      25.795   2.149  52.362  1.00  0.00     0.056 C 
HETATM    6  C7  UNL     1      26.607   2.179  51.175  1.00  0.00     0.122 C 
HETATM    7  N1  UNL     1      26.621   3.573  50.765  1.00  0.00    -0.386 N 
HETATM    8  C8  UNL     1      25.288   3.898  50.324  1.00  0.00     0.092 A 
HETATM    9  C9  UNL     1      25.138   5.212  49.919  1.00  0.00     0.151 A 
HETATM   10  N2  UNL     1      24.069   5.894  49.437  1.00  0.00    -0.252 NA
HETATM   11  C10 UNL     1      22.951   5.103  49.348  1.00  0.00     0.235 A 
HETATM   12  N3  UNL     1      23.013   3.785  49.729  1.00  0.00    -0.222 NA
HETATM   13  C11 UNL     1      24.116   3.185  50.199  1.00  0.00     0.157 A 
HETATM   14  N4  UNL     1      23.574   1.852  50.431  1.00  0.00    -0.337 N 
HETATM   15  C12 UNL     1      22.791   1.366  51.531  1.00  0.00     0.069 A 
HETATM   16  C13 UNL     1      21.545   1.082  50.945  1.00  0.00     0.059 A 
HETATM   17  C14 UNL     1      20.429   0.579  51.631  1.00  0.00     0.074 A 
HETATM   18 CL1  UNL     1      18.866   0.210  50.958  1.00  0.00    -0.081 Cl
HETATM   19  C15 UNL     1      20.560   0.344  52.985  1.00  0.00     0.140 A 
HETATM   20  F1  UNL     1      19.588  -0.138  53.793  1.00  0.00    -0.204 F 
HETATM   21  C16 UNL     1      21.789   0.627  53.544  1.00  0.00     0.083 A 
HETATM   22  C17 UNL     1      22.878   1.119  52.871  1.00  0.00     0.099 A 
HETATM   23  O2  UNL     1      24.077   1.355  53.610  1.00  0.00    -0.339 OA
HETATM   24  H11 UNL     1      27.392   4.263  50.760  1.00  0.00     0.159 HD
HETATM   25  H14 UNL     1      23.791   1.175  49.671  1.00  0.00     0.167 HD
ENDROOT
BRANCH   3  26
HETATM   26  O1  UNL     1      25.827  -1.141  54.325  1.00  0.00    -0.366 OA
HETATM   27  C4  UNL     1      24.912  -1.191  55.405  1.00  0.00     0.204 C 
ENDBRANCH   3  26
TORSDOF 1
ENDMDL
MODEL 6
REMARK VINA RESULT:      -8.1      2.219      3.026
REMARK  1 active torsions:
REMARK  status: ('A' for Active; 'I' for Inactive)
REMARK    1  A    between atoms: C3_3  and  O1_4 
ROOT
HETATM    1  C1  UNL     1      19.977   2.082  50.824  1.00  0.00     0.094 C 
HETATM    2  C2  UNL     1      20.839   2.841  50.165  1.00  0.00    -0.138 C 
HETATM    3  C3  UNL     1      21.804   3.553  49.655  1.00  0.00     0.182 C 
HETATM    4  C5  UNL     1      23.087   3.574  50.254  1.00  0.00     0.181 C 
HETATM    5  C6  UNL     1      23.400   2.814  51.458  1.00  0.00     0.056 C 
HETATM    6  C7  UNL     1      23.492   1.380  51.531  1.00  0.00     0.122 C 
HETATM    7  N1  UNL     1      24.086   1.108  52.829  1.00  0.00    -0.386 N 
HETATM    8  C8  UNL     1      25.448   1.575  52.778  1.00  0.00     0.092 A 
HETATM    9  C9  UNL     1      26.143   1.402  53.962  1.00  0.00     0.151 A 
HETATM   10  N2  UNL     1      27.420   1.695  54.312  1.00  0.00    -0.252 NA
HETATM   11  C10 UNL     1      28.120   2.263  53.279  1.00  0.00     0.235 A 
HETATM   12  N3  UNL     1      27.506   2.470  52.068  1.00  0.00    -0.222 NA
HETATM   13  C11 UNL     1      26.231   2.152  51.803  1.00  0.00     0.157 A 
HETATM   14  N4  UNL     1      26.162   2.603  50.419  1.00  0.00    -0.337 N 
HETATM   15  C12 UNL     1      25.981   3.930  49.902  1.00  0.00     0.069 A 
HETATM   16  C13 UNL     1      27.206   4.202  49.266  1.00  0.00     0.059 A 
HETATM   17  C14 UNL     1      27.519   5.400  48.605  1.00  0.00     0.074 A 
HETATM   18 CL1  UNL     1      29.014   5.791  47.802  1.00  0.00    -0.081 Cl
HETATM   19  C15 UNL     1      26.556   6.388  48.574  1.00  0.00     0.140 A 
HETATM   20  F1  UNL     1      26.693   7.596  47.981  1.00  0.00    -0.204 F 
HETATM   21  C16 UNL     1      25.361   6.104  49.201  1.00  0.00     0.083 A 
HETATM   22  C17 UNL     1      25.057   4.933  49.848  1.00  0.00     0.099 A 
HETATM   23  O2  UNL     1      23.765   4.808  50.445  1.00  0.00    -0.339 OA
HETATM   24  H11 UNL     1      23.679   0.669  53.674  1.00  0.00     0.159 HD
HETATM   25  H14 UNL     1      26.271   1.837  49.724  1.00  0.00     0.167 HD
ENDROOT
BRANCH   3  26
HETATM   26  O1  UNL     1      21.360   4.210  48.531  1.00  0.00    -0.366 OA
HETATM   27  C4  UNL     1      20.931   3.528  47.367  1.00  0.00     0.204 C 
ENDBRANCH   3  26
TORSDOF 1
ENDMDL
MODEL 7
REMARK VINA RESULT:      -8.1      6.718      9.222
REMARK  1 active torsions:
REMARK  status: ('A' for Active; 'I' for Inactive)
REMARK    1  A    between atoms: C3_3  and  O1_4 
ROOT
HETATM    1  C1  UNL     1      24.480   6.171  49.138  1.00  0.00     0.094 C 
HETATM    2  C2  UNL     1      25.714   5.708  49.000  1.00  0.00    -0.138 C 
HETATM    3  C3  UNL     1      26.973   5.426  48.825  1.00  0.00     0.182 C 
HETATM    4  C5  UNL     1      27.922   6.452  48.594  1.00  0.00     0.181 C 
HETATM    5  C6  UNL     1      27.553   7.861  48.540  1.00  0.00     0.056 C 
HETATM    6  C7  UNL     1      27.116   8.646  49.664  1.00  0.00     0.122 C 
HETATM    7  N1  UNL     1      27.133  10.019  49.191  1.00  0.00    -0.386 N 
HETATM    8  C8  UNL     1      28.513  10.381  48.987  1.00  0.00     0.092 A 
HETATM    9  C9  UNL     1      28.690  11.668  48.511  1.00  0.00     0.151 A 
HETATM   10  N2  UNL     1      29.807  12.374  48.206  1.00  0.00    -0.252 NA
HETATM   11  C10 UNL     1      30.950  11.648  48.423  1.00  0.00     0.235 A 
HETATM   12  N3  UNL     1      30.865  10.362  48.896  1.00  0.00    -0.222 NA
HETATM   13  C11 UNL     1      29.714   9.732  49.173  1.00  0.00     0.157 A 
HETATM   14  N4  UNL     1      30.249   8.448  49.607  1.00  0.00    -0.337 N 
HETATM   15  C12 UNL     1      30.712   7.342  48.818  1.00  0.00     0.069 A 
HETATM   16  C13 UNL     1      32.090   7.296  49.098  1.00  0.00     0.059 A 
HETATM   17  C14 UNL     1      32.991   6.369  48.550  1.00  0.00     0.074 A 
HETATM   18 CL1  UNL     1      34.701   6.266  48.860  1.00  0.00    -0.081 Cl
HETATM   19  C15 UNL     1      32.492   5.431  47.670  1.00  0.00     0.140 A 
HETATM   20  F1  UNL     1      33.219   4.470  47.055  1.00  0.00    -0.204 F 
HETATM   21  C16 UNL     1      31.139   5.490  47.407  1.00  0.00     0.083 A 
HETATM   22  C17 UNL     1      30.260   6.397  47.944  1.00  0.00     0.099 A 
HETATM   23  O2  UNL     1      28.887   6.312  47.560  1.00  0.00    -0.339 OA
HETATM   24  H11 UNL     1      26.354  10.676  49.010  1.00  0.00     0.159 HD
HETATM   25  H14 UNL     1      30.303   8.346  50.640  1.00  0.00     0.167 HD
ENDROOT
BRANCH   3  26
HETATM   26  O1  UNL     1      27.166   4.066  48.902  1.00  0.00    -0.366 OA
HETATM   27  C4  UNL     1      26.471   3.248  49.824  1.00  0.00     0.204 C 
ENDBRANCH   3  26
TORSDOF 1
ENDMDL
MODEL 8
REMARK VINA RESULT:      -7.9      6.922     10.147
REMARK  1 active torsions:
REMARK  status: ('A' for Active; 'I' for Inactive)
REMARK    1  A    between atoms: C3_3  and  O1_4 
ROOT
HETATM    1  C1  UNL     1      28.653  12.635  48.931  1.00  0.00     0.094 C 
HETATM    2  C2  UNL     1      29.609  11.740  48.732  1.00  0.00    -0.138 C 
HETATM    3  C3  UNL     1      30.427  10.735  48.595  1.00  0.00     0.182 C 
HETATM    4  C5  UNL     1      29.986   9.405  48.804  1.00  0.00     0.181 C 
HETATM    5  C6  UNL     1      28.613   9.086  49.179  1.00  0.00     0.056 C 
HETATM    6  C7  UNL     1      27.466   9.233  48.322  1.00  0.00     0.122 C 
HETATM    7  N1  UNL     1      26.391   8.545  49.016  1.00  0.00    -0.386 N 
HETATM    8  C8  UNL     1      26.705   7.138  48.994  1.00  0.00     0.092 A 
HETATM    9  C9  UNL     1      25.772   6.348  49.643  1.00  0.00     0.151 A 
HETATM   10  N2  UNL     1      25.699   5.007  49.833  1.00  0.00    -0.252 NA
HETATM   11  C10 UNL     1      26.759   4.348  49.264  1.00  0.00     0.235 A 
HETATM   12  N3  UNL     1      27.730   5.057  48.601  1.00  0.00    -0.222 NA
HETATM   13  C11 UNL     1      27.729   6.390  48.458  1.00  0.00     0.157 A 
HETATM   14  N4  UNL     1      28.967   6.545  47.706  1.00  0.00    -0.337 N 
HETATM   15  C12 UNL     1      30.323   6.556  48.177  1.00  0.00     0.069 A 
HETATM   16  C13 UNL     1      30.872   5.387  47.620  1.00  0.00     0.059 A 
HETATM   17  C14 UNL     1      32.194   4.954  47.802  1.00  0.00     0.074 A 
HETATM   18 CL1  UNL     1      32.926   3.519  47.138  1.00  0.00    -0.081 Cl
HETATM   19  C15 UNL     1      33.023   5.730  48.587  1.00  0.00     0.140 A 
HETATM   20  F1  UNL     1      34.319   5.459  48.863  1.00  0.00    -0.204 F 
HETATM   21  C16 UNL     1      32.469   6.873  49.125  1.00  0.00     0.083 A 
HETATM   22  C17 UNL     1      31.175   7.294  48.946  1.00  0.00     0.099 A 
HETATM   23  O2  UNL     1      30.768   8.507  49.580  1.00  0.00    -0.339 OA
HETATM   24  H11 UNL     1      25.535   8.917  49.463  1.00  0.00     0.159 HD
HETATM   25  H14 UNL     1      28.823   6.651  46.682  1.00  0.00     0.167 HD
ENDROOT
BRANCH   3  26
HETATM   26  O1  UNL     1      31.676  11.190  48.243  1.00  0.00    -0.366 OA
HETATM   27  C4  UNL     1      32.291  10.858  47.012  1.00  0.00     0.204 C 
ENDBRANCH   3  26
TORSDOF 1
ENDMDL
MODEL 9
REMARK VINA RESULT:      -7.9      3.354      5.510
REMARK  1 active torsions:
REMARK  status: ('A' for Active; 'I' for Inactive)
REMARK    1  A    between atoms: C3_3  and  O1_4 
ROOT
HETATM    1  C1  UNL     1      25.116   6.036  48.583  1.00  0.00     0.094 C 
HETATM    2  C2  UNL     1      24.028   5.360  48.921  1.00  0.00    -0.138 C 
HETATM    3  C3  UNL     1      23.074   4.564  49.313  1.00  0.00     0.182 C 
HETATM    4  C5  UNL     1      23.367   3.365  50.008  1.00  0.00     0.181 C 
HETATM    5  C6  UNL     1      24.731   2.956  50.321  1.00  0.00     0.056 C 
HETATM    6  C7  UNL     1      25.593   3.607  51.271  1.00  0.00     0.122 C 
HETATM    7  N1  UNL     1      26.715   2.700  51.440  1.00  0.00    -0.386 N 
HETATM    8  C8  UNL     1      26.216   1.530  52.118  1.00  0.00     0.092 A 
HETATM    9  C9  UNL     1      27.176   0.557  52.334  1.00  0.00     0.151 A 
HETATM   10  N2  UNL     1      27.113  -0.658  52.933  1.00  0.00    -0.252 NA
HETATM   11  C10 UNL     1      25.853  -0.938  53.400  1.00  0.00     0.235 A 
HETATM   12  N3  UNL     1      24.841  -0.025  53.228  1.00  0.00    -0.222 NA
HETATM   13  C11 UNL     1      24.988   1.160  52.619  1.00  0.00     0.157 A 
HETATM   14  N4  UNL     1      23.620   1.650  52.732  1.00  0.00    -0.337 N 
HETATM   15  C12 UNL     1      22.471   1.334  51.931  1.00  0.00     0.069 A 
HETATM   16  C13 UNL     1      21.628   0.649  52.825  1.00  0.00     0.059 A 
HETATM   17  C14 UNL     1      20.367   0.127  52.501  1.00  0.00     0.074 A 
HETATM   18 CL1  UNL     1      19.284  -0.727  53.563  1.00  0.00    -0.081 Cl
HETATM   19  C15 UNL     1      19.914   0.296  51.208  1.00  0.00     0.140 A 
HETATM   20  F1  UNL     1      18.727  -0.143  50.730  1.00  0.00    -0.204 F 
HETATM   21  C16 UNL     1      20.753   0.970  50.344  1.00  0.00     0.083 A 
HETATM   22  C17 UNL     1      21.986   1.480  50.664  1.00  0.00     0.099 A 
HETATM   23  O2  UNL     1      22.722   2.153  49.642  1.00  0.00    -0.339 OA
HETATM   24  H11 UNL     1      27.706   2.799  51.159  1.00  0.00     0.159 HD
HETATM   25  H14 UNL     1      23.478   2.315  53.519  1.00  0.00     0.167 HD
ENDROOT
BRANCH   3  26
HETATM   26  O1  UNL     1      21.852   5.080  48.949  1.00  0.00    -0.366 OA
HETATM   27  C4  UNL     1      20.769   5.190  49.853  1.00  0.00     0.204 C 
ENDBRANCH   3  26
TORSDOF 1
ENDMDL
