MODEL 1
REMARK VINA RESULT:      -8.6      0.000      0.000
REMARK  7 active torsions:
REMARK  status: ('A' for Active; 'I' for Inactive)
REMARK    1  A    between atoms: N1_1  and  C1_2 
REMARK    2  A    between atoms: C4_5  and  O1_6 
REMARK    3  A    between atoms: O1_6  and  C5_7 
REMARK    4  A    between atoms: N2_11  and  C9_12 
REMARK    5  A    between atoms: C9_12  and  N3_13 
REMARK    6  A    between atoms: N3_13  and  C10_14 
REMARK    7  A    between atoms: C14_19  and  C15_20 
ROOT
HETATM    1  C5  UNL     1      25.356   5.598  49.201  1.00  0.00     0.057 C 
HETATM    2  C6  UNL     1      24.246   5.943  49.824  1.00  0.00     0.034 C 
HETATM    3  C7  UNL     1      23.669   5.209  50.941  1.00  0.00     0.020 C 
HETATM    4  C8  UNL     1      23.825   4.044  51.592  1.00  0.00     0.092 C 
HETATM    5  N2  UNL     1      24.729   2.926  51.425  1.00  0.00    -0.350 N 
HETATM    6  C17 UNL     1      26.047   2.888  50.898  1.00  0.00     0.088 C 
HETATM    7  C18 UNL     1      26.641   3.615  49.971  1.00  0.00    -0.003 C 
HETATM    8  C19 UNL     1      26.520   4.721  48.996  1.00  0.00     0.093 C 
ENDROOT
BRANCH   5   9
HETATM    9  C9  UNL     1      24.114   1.737  51.886  1.00  0.00     0.250 C 
BRANCH   9  10
HETATM   10  N3  UNL     1      24.420   1.293  53.202  1.00  0.00    -0.373 N 
HETATM   11  H10 UNL     1      23.929   1.352  54.123  1.00  0.00     0.161 HD
BRANCH  10  12
HETATM   12  C10 UNL     1      25.675   0.616  53.277  1.00  0.00     0.030 A 
HETATM   13  C11 UNL     1      25.872  -0.672  52.768  1.00  0.00     0.031 A 
HETATM   14  C12 UNL     1      27.027  -1.403  52.793  1.00  0.00     0.027 A 
HETATM   15  C13 UNL     1      28.112  -0.797  53.385  1.00  0.00     0.047 A 
HETATM   16 CL1  UNL     1      29.633  -1.677  53.454  1.00  0.00    -0.083 Cl
HETATM   17  C14 UNL     1      28.032   0.463  53.917  1.00  0.00     0.025 A 
HETATM   18  C16 UNL     1      26.839   1.128  53.852  1.00  0.00     0.045 A 
BRANCH  17  19
HETATM   19  C15 UNL     1      29.167   1.100  54.540  1.00  0.00     0.271 C 
HETATM   20  O2  UNL     1      29.370   2.329  54.714  1.00  0.00    -0.301 OA
ENDBRANCH  17  19
ENDBRANCH  10  12
ENDBRANCH   9  10
ENDBRANCH   5   9
BRANCH   1  21
HETATM   21  O1  UNL     1      25.591   6.526  48.198  1.00  0.00    -0.314 OA
BRANCH  21  22
HETATM   22  C4  UNL     1      25.591   7.907  48.499  1.00  0.00     0.084 C 
HETATM   23  C3  UNL     1      25.045   9.382  48.774  1.00  0.00     0.043 C 
HETATM   24  C2  UNL     1      26.272  10.092  49.005  1.00  0.00     0.102 A 
HETATM   25  C1  UNL     1      26.656   9.019  50.060  1.00  0.00     0.185 A 
HETATM   26  N4  UNL     1      27.613  10.076  49.525  1.00  0.00    -0.249 N 
HETATM   27  C20 UNL     1      26.872   8.415  48.699  1.00  0.00     0.022 C 
HETATM   28  C21 UNL     1      28.241   8.930  48.851  1.00  0.00     0.076 C 
BRANCH  25  29
HETATM   29  N1  UNL     1      27.676   9.272  50.955  1.00  0.00    -0.411 N 
HETATM   30  H1  UNL     1      27.796   8.743  51.808  1.00  0.00     0.151 HD
HETATM   31  H2  UNL     1      28.570   9.525  50.510  1.00  0.00     0.151 HD
ENDBRANCH  25  29
ENDBRANCH  21  22
ENDBRANCH   1  21
TORSDOF 7
ENDMDL
MODEL 2
REMARK VINA RESULT:      -8.3      6.797     10.109
REMARK  7 active torsions:
REMARK  status: ('A' for Active; 'I' for Inactive)
REMARK    1  A    between atoms: N1_1  and  C1_2 
REMARK    2  A    between atoms: C4_5  and  O1_6 
REMARK    3  A    between atoms: O1_6  and  C5_7 
REMARK    4  A    between atoms: N2_11  and  C9_12 
REMARK    5  A    between atoms: C9_12  and  N3_13 
REMARK    6  A    between atoms: N3_13  and  C10_14 
REMARK    7  A    between atoms: C14_19  and  C15_20 
ROOT
HETATM    1  C5  UNL     1      23.861   0.002  53.781  1.00  0.00     0.057 C 
HETATM    2  C6  UNL     1      23.473  -0.912  54.650  1.00  0.00     0.034 C 
HETATM    3  C7  UNL     1      22.181  -1.582  54.616  1.00  0.00     0.020 C 
HETATM    4  C8  UNL     1      20.999  -1.499  53.980  1.00  0.00     0.092 C 
HETATM    5  N2  UNL     1      20.479  -0.610  52.963  1.00  0.00    -0.350 N 
HETATM    6  C17 UNL     1      21.157   0.106  51.942  1.00  0.00     0.088 C 
HETATM    7  C18 UNL     1      22.370   0.624  51.892  1.00  0.00    -0.003 C 
HETATM    8  C19 UNL     1      23.652   0.849  52.597  1.00  0.00     0.093 C 
ENDROOT
BRANCH   5   9
HETATM    9  C9  UNL     1      19.073  -0.507  53.089  1.00  0.00     0.250 C 
BRANCH   9  10
HETATM   10  N3  UNL     1      18.421  -1.350  54.031  1.00  0.00    -0.373 N 
HETATM   11  H10 UNL     1      18.520  -1.506  55.059  1.00  0.00     0.161 HD
BRANCH  10  12
HETATM   12  C10 UNL     1      17.409  -2.162  53.434  1.00  0.00     0.030 A 
HETATM   13  C11 UNL     1      17.304  -3.536  53.672  1.00  0.00     0.031 A 
HETATM   14  C12 UNL     1      16.379  -4.397  53.149  1.00  0.00     0.027 A 
HETATM   15  C13 UNL     1      15.451  -3.842  52.297  1.00  0.00     0.047 A 
HETATM   16 CL1  UNL     1      14.229  -4.889  51.587  1.00  0.00    -0.083 Cl
HETATM   17  C14 UNL     1      15.461  -2.506  51.994  1.00  0.00     0.025 A 
HETATM   18  C16 UNL     1      16.420  -1.712  52.558  1.00  0.00     0.045 A 
BRANCH  17  19
HETATM   19  C15 UNL     1      14.490  -1.922  51.100  1.00  0.00     0.271 C 
HETATM   20  O2  UNL     1      14.638  -0.940  50.327  1.00  0.00    -0.301 OA
ENDBRANCH  17  19
ENDBRANCH  10  12
ENDBRANCH   9  10
ENDBRANCH   5   9
BRANCH   1  21
HETATM   21  O1  UNL     1      25.139   0.411  54.131  1.00  0.00    -0.314 OA
BRANCH  21  22
HETATM   22  C4  UNL     1      26.265  -0.240  53.577  1.00  0.00     0.084 C 
HETATM   23  C3  UNL     1      27.145  -1.135  52.590  1.00  0.00     0.043 C 
HETATM   24  C2  UNL     1      28.438  -1.037  53.208  1.00  0.00     0.102 A 
HETATM   25  C1  UNL     1      28.291   0.509  53.196  1.00  0.00     0.185 A 
HETATM   26  N4  UNL     1      29.381  -0.241  53.950  1.00  0.00    -0.249 N 
HETATM   27  C20 UNL     1      27.429  -0.020  54.310  1.00  0.00     0.022 C 
HETATM   28  C21 UNL     1      28.627   0.187  55.136  1.00  0.00     0.076 C 
BRANCH  25  29
HETATM   29  N1  UNL     1      29.399   1.305  53.400  1.00  0.00    -0.411 N 
HETATM   30  H1  UNL     1      29.641   2.070  52.786  1.00  0.00     0.151 HD
HETATM   31  H2  UNL     1      29.591   1.511  54.392  1.00  0.00     0.151 HD
ENDBRANCH  25  29
ENDBRANCH  21  22
ENDBRANCH   1  21
TORSDOF 7
ENDMDL
MODEL 3
REMARK VINA RESULT:      -8.2      2.967      7.673
REMARK  7 active torsions:
REMARK  status: ('A' for Active; 'I' for Inactive)
REMARK    1  A    between atoms: N1_1  and  C1_2 
REMARK    2  A    between atoms: C4_5  and  O1_6 
REMARK    3  A    between atoms: O1_6  and  C5_7 
REMARK    4  A    between atoms: N2_11  and  C9_12 
REMARK    5  A    between atoms: C9_12  and  N3_13 
REMARK    6  A    between atoms: N3_13  and  C10_14 
REMARK    7  A    between atoms: C14_19  and  C15_20 
ROOT
HETATM    1  C5  UNL     1      23.701   2.325  52.074  1.00  0.00     0.057 C 
HETATM    2  C6  UNL     1      23.848   3.388  52.841  1.00  0.00     0.034 C 
HETATM    3  C7  UNL     1      23.648   4.758  52.393  1.00  0.00     0.020 C 
HETATM    4  C8  UNL     1      23.454   5.447  51.255  1.00  0.00     0.092 C 
HETATM    5  N2  UNL     1      23.356   5.059  49.865  1.00  0.00    -0.350 N 
HETATM    6  C17 UNL     1      22.913   3.841  49.285  1.00  0.00     0.088 C 
HETATM    7  C18 UNL     1      22.969   2.594  49.714  1.00  0.00    -0.003 C 
HETATM    8  C19 UNL     1      23.391   1.673  50.793  1.00  0.00     0.093 C 
ENDROOT
BRANCH   5   9
HETATM    9  C9  UNL     1      23.788   6.123  49.037  1.00  0.00     0.250 C 
BRANCH   9  10
HETATM   10  N3  UNL     1      24.798   6.991  49.536  1.00  0.00    -0.373 N 
HETATM   11  H10 UNL     1      24.792   7.840  50.146  1.00  0.00     0.161 HD
BRANCH  10  12
HETATM   12  C10 UNL     1      26.108   6.618  49.106  1.00  0.00     0.030 A 
HETATM   13  C11 UNL     1      26.525   5.285  49.021  1.00  0.00     0.031 A 
HETATM   14  C12 UNL     1      27.751   4.827  48.626  1.00  0.00     0.027 A 
HETATM   15  C13 UNL     1      28.671   5.788  48.274  1.00  0.00     0.047 A 
HETATM   16 CL1  UNL     1      30.270   5.273  47.755  1.00  0.00    -0.083 Cl
HETATM   17  C14 UNL     1      28.368   7.124  48.319  1.00  0.00     0.025 A 
HETATM   18  C16 UNL     1      27.119   7.501  48.726  1.00  0.00     0.045 A 
BRANCH  17  19
HETATM   19  C15 UNL     1      29.331   8.135  47.951  1.00  0.00     0.271 C 
HETATM   20  O2  UNL     1      29.769   9.082  48.653  1.00  0.00    -0.301 OA
ENDBRANCH  17  19
ENDBRANCH  10  12
ENDBRANCH   9  10
ENDBRANCH   5   9
BRANCH   1  21
HETATM   21  O1  UNL     1      23.974   1.202  52.840  1.00  0.00    -0.314 OA
BRANCH  21  22
HETATM   22  C4  UNL     1      25.217   0.541  52.707  1.00  0.00     0.084 C 
HETATM   23  C3  UNL     1      26.450  -0.213  52.028  1.00  0.00     0.043 C 
HETATM   24  C2  UNL     1      27.284  -0.463  53.171  1.00  0.00     0.102 A 
HETATM   25  C1  UNL     1      27.186   1.044  53.531  1.00  0.00     0.185 A 
HETATM   26  N4  UNL     1      27.763  -0.021  54.453  1.00  0.00    -0.249 N 
HETATM   27  C20 UNL     1      25.884   0.399  53.922  1.00  0.00     0.022 C 
HETATM   28  C21 UNL     1      26.536   0.218  55.227  1.00  0.00     0.076 C 
BRANCH  25  29
HETATM   29  N1  UNL     1      28.071   1.591  54.438  1.00  0.00    -0.411 N 
HETATM   30  H1  UNL     1      28.212   2.588  54.529  1.00  0.00     0.151 HD
HETATM   31  H2  UNL     1      28.103   1.097  55.342  1.00  0.00     0.151 HD
ENDBRANCH  25  29
ENDBRANCH  21  22
ENDBRANCH   1  21
TORSDOF 7
ENDMDL
MODEL 4
REMARK VINA RESULT:      -8.2      1.827      2.725
REMARK  7 active torsions:
REMARK  status: ('A' for Active; 'I' for Inactive)
REMARK    1  A    between atoms: N1_1  and  C1_2 
REMARK    2  A    between atoms: C4_5  and  O1_6 
REMARK    3  A    between atoms: O1_6  and  C5_7 
REMARK    4  A    between atoms: N2_11  and  C9_12 
REMARK    5  A    between atoms: C9_12  and  N3_13 
REMARK    6  A    between atoms: N3_13  and  C10_14 
REMARK    7  A    between atoms: C14_19  and  C15_20 
ROOT
HETATM    1  C5  UNL     1      25.907   6.309  48.559  1.00  0.00     0.057 C 
HETATM    2  C6  UNL     1      27.029   5.619  48.614  1.00  0.00     0.034 C 
HETATM    3  C7  UNL     1      27.128   4.247  49.093  1.00  0.00     0.020 C 
HETATM    4  C8  UNL     1      26.378   3.323  49.716  1.00  0.00     0.092 C 
HETATM    5  N2  UNL     1      25.021   3.319  50.220  1.00  0.00    -0.350 N 
HETATM    6  C17 UNL     1      23.884   4.049  49.785  1.00  0.00     0.088 C 
HETATM    7  C18 UNL     1      23.766   5.244  49.237  1.00  0.00    -0.003 C 
HETATM    8  C19 UNL     1      24.456   6.461  48.756  1.00  0.00     0.093 C 
ENDROOT
BRANCH   5   9
HETATM    9  C9  UNL     1      24.915   2.421  51.308  1.00  0.00     0.250 C 
BRANCH   9  10
HETATM   10  N3  UNL     1      25.621   2.730  52.503  1.00  0.00    -0.373 N 
HETATM   11  H10 UNL     1      25.561   3.502  53.205  1.00  0.00     0.161 HD
BRANCH  10  12
HETATM   12  C10 UNL     1      26.636   1.771  52.807  1.00  0.00     0.030 A 
HETATM   13  C11 UNL     1      27.913   2.135  53.244  1.00  0.00     0.031 A 
HETATM   14  C12 UNL     1      28.950   1.299  53.555  1.00  0.00     0.027 A 
HETATM   15  C13 UNL     1      28.700  -0.048  53.422  1.00  0.00     0.047 A 
HETATM   16 CL1  UNL     1      29.987  -1.184  53.805  1.00  0.00    -0.083 Cl
HETATM   17  C14 UNL     1      27.483  -0.516  53.001  1.00  0.00     0.025 A 
HETATM   18  C16 UNL     1      26.499   0.386  52.709  1.00  0.00     0.045 A 
BRANCH  17  19
HETATM   19  C15 UNL     1      27.219  -1.928  52.858  1.00  0.00     0.271 C 
HETATM   20  O2  UNL     1      26.832  -2.546  51.834  1.00  0.00    -0.301 OA
ENDBRANCH  17  19
ENDBRANCH  10  12
ENDBRANCH   9  10
ENDBRANCH   5   9
BRANCH   1  21
HETATM   21  O1  UNL     1      26.200   7.566  48.055  1.00  0.00    -0.314 OA
BRANCH  21  22
HETATM   22  C4  UNL     1      26.994   8.462  48.807  1.00  0.00     0.084 C 
HETATM   23  C3  UNL     1      27.540   9.300  50.052  1.00  0.00     0.043 C 
HETATM   24  C2  UNL     1      28.607  10.041  49.440  1.00  0.00     0.102 A 
HETATM   25  C1  UNL     1      29.172   8.706  48.884  1.00  0.00     0.185 A 
HETATM   26  N4  UNL     1      29.656  10.085  48.457  1.00  0.00    -0.249 N 
HETATM   27  C20 UNL     1      27.981   9.079  48.043  1.00  0.00     0.022 C 
HETATM   28  C21 UNL     1      28.977   9.753  47.197  1.00  0.00     0.076 C 
BRANCH  25  29
HETATM   29  N1  UNL     1      30.464   8.657  48.401  1.00  0.00    -0.411 N 
HETATM   30  H1  UNL     1      31.270   8.839  48.983  1.00  0.00     0.151 HD
HETATM   31  H2  UNL     1      30.626   7.907  47.714  1.00  0.00     0.151 HD
ENDBRANCH  25  29
ENDBRANCH  21  22
ENDBRANCH   1  21
TORSDOF 7
ENDMDL
MODEL 5
REMARK VINA RESULT:      -8.2      1.054      1.949
REMARK  7 active torsions:
REMARK  status: ('A' for Active; 'I' for Inactive)
REMARK    1  A    between atoms: N1_1  and  C1_2 
REMARK    2  A    between atoms: C4_5  and  O1_6 
REMARK    3  A    between atoms: O1_6  and  C5_7 
REMARK    4  A    between atoms: N2_11  and  C9_12 
REMARK    5  A    between atoms: C9_12  and  N3_13 
REMARK    6  A    between atoms: N3_13  and  C10_14 
REMARK    7  A    between atoms: C14_19  and  C15_20 
ROOT
HETATM    1  C5  UNL     1      24.974   5.811  49.579  1.00  0.00     0.057 C 
HETATM    2  C6  UNL     1      25.522   4.688  49.158  1.00  0.00     0.034 C 
HETATM    3  C7  UNL     1      25.361   3.398  49.815  1.00  0.00     0.020 C 
HETATM    4  C8  UNL     1      24.871   2.883  50.955  1.00  0.00     0.092 C 
HETATM    5  N2  UNL     1      24.237   3.468  52.118  1.00  0.00    -0.350 N 
HETATM    6  C17 UNL     1      23.461   4.650  52.237  1.00  0.00     0.088 C 
HETATM    7  C18 UNL     1      23.499   5.794  51.580  1.00  0.00    -0.003 C 
HETATM    8  C19 UNL     1      24.147   6.590  50.514  1.00  0.00     0.093 C 
ENDROOT
BRANCH   5   9
HETATM    9  C9  UNL     1      24.488   2.664  53.256  1.00  0.00     0.250 C 
BRANCH   9  10
HETATM   10  N3  UNL     1      24.390   1.253  53.115  1.00  0.00    -0.373 N 
HETATM   11  H10 UNL     1      23.598   0.591  52.952  1.00  0.00     0.161 HD
BRANCH  10  12
HETATM   12  C10 UNL     1      25.656   0.600  53.220  1.00  0.00     0.030 A 
HETATM   13  C11 UNL     1      25.889  -0.685  52.719  1.00  0.00     0.031 A 
HETATM   14  C12 UNL     1      27.057  -1.394  52.772  1.00  0.00     0.027 A 
HETATM   15  C13 UNL     1      28.116  -0.767  53.388  1.00  0.00     0.047 A 
HETATM   16 CL1  UNL     1      29.651  -1.618  53.493  1.00  0.00    -0.083 Cl
HETATM   17  C14 UNL     1      28.000   0.493  53.914  1.00  0.00     0.025 A 
HETATM   18  C16 UNL     1      26.797   1.135  53.820  1.00  0.00     0.045 A 
BRANCH  17  19
HETATM   19  C15 UNL     1      29.109   1.152  54.562  1.00  0.00     0.271 C 
HETATM   20  O2  UNL     1      29.355   2.384  54.617  1.00  0.00    -0.301 OA
ENDBRANCH  17  19
ENDBRANCH  10  12
ENDBRANCH   9  10
ENDBRANCH   5   9
BRANCH   1  21
HETATM   21  O1  UNL     1      25.348   6.823  48.709  1.00  0.00    -0.314 OA
BRANCH  21  22
HETATM   22  C4  UNL     1      26.717   7.106  48.500  1.00  0.00     0.084 C 
HETATM   23  C3  UNL     1      28.204   6.983  47.933  1.00  0.00     0.043 C 
HETATM   24  C2  UNL     1      28.853   8.065  48.621  1.00  0.00     0.102 A 
HETATM   25  C1  UNL     1      27.730   9.013  48.120  1.00  0.00     0.185 A 
HETATM   26  N4  UNL     1      28.761   9.389  49.175  1.00  0.00    -0.249 N 
HETATM   27  C20 UNL     1      27.162   8.194  49.247  1.00  0.00     0.022 C 
HETATM   28  C21 UNL     1      27.612   9.312  50.089  1.00  0.00     0.076 C 
BRANCH  25  29
HETATM   29  N1  UNL     1      27.909  10.380  48.183  1.00  0.00    -0.411 N 
HETATM   30  H1  UNL     1      27.135  11.030  48.216  1.00  0.00     0.151 HD
HETATM   31  H2  UNL     1      28.703  10.672  48.771  1.00  0.00     0.151 HD
ENDBRANCH  25  29
ENDBRANCH  21  22
ENDBRANCH   1  21
TORSDOF 7
ENDMDL
MODEL 6
REMARK VINA RESULT:      -8.2      1.496      2.329
REMARK  7 active torsions:
REMARK  status: ('A' for Active; 'I' for Inactive)
REMARK    1  A    between atoms: N1_1  and  C1_2 
REMARK    2  A    between atoms: C4_5  and  O1_6 
REMARK    3  A    between atoms: O1_6  and  C5_7 
REMARK    4  A    between atoms: N2_11  and  C9_12 
REMARK    5  A    between atoms: C9_12  and  N3_13 
REMARK    6  A    between atoms: N3_13  and  C10_14 
REMARK    7  A    between atoms: C14_19  and  C15_20 
ROOT
HETATM    1  C5  UNL     1      26.106   6.498  48.253  1.00  0.00     0.057 C 
HETATM    2  C6  UNL     1      27.188   5.784  48.500  1.00  0.00     0.034 C 
HETATM    3  C7  UNL     1      27.175   4.436  49.049  1.00  0.00     0.020 C 
HETATM    4  C8  UNL     1      26.315   3.561  49.599  1.00  0.00     0.092 C 
HETATM    5  N2  UNL     1      24.901   3.615  49.901  1.00  0.00    -0.350 N 
HETATM    6  C17 UNL     1      23.860   4.349  49.274  1.00  0.00     0.088 C 
HETATM    7  C18 UNL     1      23.859   5.519  48.662  1.00  0.00    -0.003 C 
HETATM    8  C19 UNL     1      24.648   6.694  48.232  1.00  0.00     0.093 C 
ENDROOT
BRANCH   5   9
HETATM    9  C9  UNL     1      24.613   2.773  51.002  1.00  0.00     0.250 C 
BRANCH   9  10
HETATM   10  N3  UNL     1      25.316   2.996  52.218  1.00  0.00    -0.373 N 
HETATM   11  H10 UNL     1      25.313   3.761  52.930  1.00  0.00     0.161 HD
BRANCH  10  12
HETATM   12  C10 UNL     1      26.226   1.941  52.530  1.00  0.00     0.030 A 
HETATM   13  C11 UNL     1      26.092   0.649  52.011  1.00  0.00     0.031 A 
HETATM   14  C12 UNL     1      26.904  -0.426  52.250  1.00  0.00     0.027 A 
HETATM   15  C13 UNL     1      27.967  -0.203  53.095  1.00  0.00     0.047 A 
HETATM   16 CL1  UNL     1      29.054  -1.539  53.449  1.00  0.00    -0.083 Cl
HETATM   17  C14 UNL     1      28.192   1.024  53.660  1.00  0.00     0.025 A 
HETATM   18  C16 UNL     1      27.334   2.048  53.371  1.00  0.00     0.045 A 
BRANCH  17  19
HETATM   19  C15 UNL     1      29.306   1.260  54.548  1.00  0.00     0.271 C 
HETATM   20  O2  UNL     1      29.711   2.357  55.012  1.00  0.00    -0.301 OA
ENDBRANCH  17  19
ENDBRANCH  10  12
ENDBRANCH   9  10
ENDBRANCH   5   9
BRANCH   1  21
HETATM   21  O1  UNL     1      26.507   7.722  47.741  1.00  0.00    -0.314 OA
BRANCH  21  22
HETATM   22  C4  UNL     1      27.222   8.629  48.556  1.00  0.00     0.084 C 
HETATM   23  C3  UNL     1      27.800   9.332  49.868  1.00  0.00     0.043 C 
HETATM   24  C2  UNL     1      28.561  10.407  49.294  1.00  0.00     0.102 A 
HETATM   25  C1  UNL     1      29.280   9.370  48.388  1.00  0.00     0.185 A 
HETATM   26  N4  UNL     1      29.382  10.879  48.211  1.00  0.00    -0.249 N 
HETATM   27  C20 UNL     1      27.905   9.594  47.819  1.00  0.00     0.022 C 
HETATM   28  C21 UNL     1      28.568  10.629  47.013  1.00  0.00     0.076 C 
BRANCH  25  29
HETATM   29  N1  UNL     1      30.443   9.721  47.735  1.00  0.00    -0.411 N 
HETATM   30  H1  UNL     1      31.044   9.041  47.288  1.00  0.00     0.151 HD
HETATM   31  H2  UNL     1      30.379  10.605  47.210  1.00  0.00     0.151 HD
ENDBRANCH  25  29
ENDBRANCH  21  22
ENDBRANCH   1  21
TORSDOF 7
ENDMDL
MODEL 7
REMARK VINA RESULT:      -8.1      2.498      3.873
REMARK  7 active torsions:
REMARK  status: ('A' for Active; 'I' for Inactive)
REMARK    1  A    between atoms: N1_1  and  C1_2 
REMARK    2  A    between atoms: C4_5  and  O1_6 
REMARK    3  A    between atoms: O1_6  and  C5_7 
REMARK    4  A    between atoms: N2_11  and  C9_12 
REMARK    5  A    between atoms: C9_12  and  N3_13 
REMARK    6  A    between atoms: N3_13  and  C10_14 
REMARK    7  A    between atoms: C14_19  and  C15_20 
ROOT
HETATM    1  C5  UNL     1      27.619   7.690  47.387  1.00  0.00     0.057 C 
HETATM    2  C6  UNL     1      28.558   6.802  47.650  1.00  0.00     0.034 C 
HETATM    3  C7  UNL     1      28.314   5.505  48.265  1.00  0.00     0.020 C 
HETATM    4  C8  UNL     1      27.324   4.829  48.872  1.00  0.00     0.092 C 
HETATM    5  N2  UNL     1      25.952   5.155  49.196  1.00  0.00    -0.350 N 
HETATM    6  C17 UNL     1      25.046   6.039  48.552  1.00  0.00     0.088 C 
HETATM    7  C18 UNL     1      25.242   7.160  47.883  1.00  0.00    -0.003 C 
HETATM    8  C19 UNL     1      26.221   8.149  47.382  1.00  0.00     0.093 C 
ENDROOT
BRANCH   5   9
HETATM    9  C9  UNL     1      25.543   4.431  50.342  1.00  0.00     0.250 C 
BRANCH   9  10
HETATM   10  N3  UNL     1      26.422   3.438  50.855  1.00  0.00    -0.373 N 
HETATM   11  H10 UNL     1      27.457   3.291  50.817  1.00  0.00     0.161 HD
BRANCH  10  12
HETATM   12  C10 UNL     1      25.737   2.418  51.582  1.00  0.00     0.030 A 
HETATM   13  C11 UNL     1      24.381   2.508  51.916  1.00  0.00     0.031 A 
HETATM   14  C12 UNL     1      23.638   1.592  52.608  1.00  0.00     0.027 A 
HETATM   15  C13 UNL     1      24.304   0.459  53.018  1.00  0.00     0.047 A 
HETATM   16 CL1  UNL     1      23.412  -0.763  53.914  1.00  0.00    -0.083 Cl
HETATM   17  C14 UNL     1      25.633   0.268  52.746  1.00  0.00     0.025 A 
HETATM   18  C16 UNL     1      26.306   1.232  52.049  1.00  0.00     0.045 A 
BRANCH  17  19
HETATM   19  C15 UNL     1      26.335  -0.918  53.176  1.00  0.00     0.271 C 
HETATM   20  O2  UNL     1      27.117  -1.046  54.152  1.00  0.00    -0.301 OA
ENDBRANCH  17  19
ENDBRANCH  10  12
ENDBRANCH   9  10
ENDBRANCH   5   9
BRANCH   1  21
HETATM   21  O1  UNL     1      28.223   8.796  46.809  1.00  0.00    -0.314 OA
BRANCH  21  22
HETATM   22  C4  UNL     1      28.445   9.962  47.576  1.00  0.00     0.084 C 
HETATM   23  C3  UNL     1      28.144  11.309  48.378  1.00  0.00     0.043 C 
HETATM   24  C2  UNL     1      29.468  11.691  48.784  1.00  0.00     0.102 A 
HETATM   25  C1  UNL     1      29.661  10.267  49.375  1.00  0.00     0.185 A 
HETATM   26  N4  UNL     1      30.783  11.282  49.199  1.00  0.00    -0.249 N 
HETATM   27  C20 UNL     1      29.790  10.160  47.879  1.00  0.00     0.022 C 
HETATM   28  C21 UNL     1      31.223  10.367  48.136  1.00  0.00     0.076 C 
BRANCH  25  29
HETATM   29  N1  UNL     1      30.700  10.024  50.250  1.00  0.00    -0.411 N 
HETATM   30  H1  UNL     1      30.786   9.159  50.766  1.00  0.00     0.151 HD
HETATM   31  H2  UNL     1      31.608  10.396  49.937  1.00  0.00     0.151 HD
ENDBRANCH  25  29
ENDBRANCH  21  22
ENDBRANCH   1  21
TORSDOF 7
ENDMDL
MODEL 8
REMARK VINA RESULT:      -8.1      2.672      3.697
REMARK  7 active torsions:
REMARK  status: ('A' for Active; 'I' for Inactive)
REMARK    1  A    between atoms: N1_1  and  C1_2 
REMARK    2  A    between atoms: C4_5  and  O1_6 
REMARK    3  A    between atoms: O1_6  and  C5_7 
REMARK    4  A    between atoms: N2_11  and  C9_12 
REMARK    5  A    between atoms: C9_12  and  N3_13 
REMARK    6  A    between atoms: N3_13  and  C10_14 
REMARK    7  A    between atoms: C14_19  and  C15_20 
ROOT
HETATM    1  C5  UNL     1      26.911   6.247  48.811  1.00  0.00     0.057 C 
HETATM    2  C6  UNL     1      26.068   7.108  49.347  1.00  0.00     0.034 C 
HETATM    3  C7  UNL     1      25.018   6.752  50.289  1.00  0.00     0.020 C 
HETATM    4  C8  UNL     1      24.425   5.658  50.798  1.00  0.00     0.092 C 
HETATM    5  N2  UNL     1      24.613   4.239  50.590  1.00  0.00    -0.350 N 
HETATM    6  C17 UNL     1      25.776   3.517  50.211  1.00  0.00     0.088 C 
HETATM    7  C18 UNL     1      26.806   3.849  49.457  1.00  0.00    -0.003 C 
HETATM    8  C19 UNL     1      27.449   4.891  48.625  1.00  0.00     0.093 C 
ENDROOT
BRANCH   5   9
HETATM    9  C9  UNL     1      23.397   3.554  50.824  1.00  0.00     0.250 C 
BRANCH   9  10
HETATM   10  N3  UNL     1      23.325   2.178  50.471  1.00  0.00    -0.373 N 
HETATM   11  H10 UNL     1      23.315   1.659  49.564  1.00  0.00     0.161 HD
BRANCH  10  12
HETATM   12  C10 UNL     1      23.248   1.320  51.610  1.00  0.00     0.030 A 
HETATM   13  C11 UNL     1      22.041   0.787  52.075  1.00  0.00     0.031 A 
HETATM   14  C12 UNL     1      21.862  -0.036  53.153  1.00  0.00     0.027 A 
HETATM   15  C13 UNL     1      23.000  -0.373  53.851  1.00  0.00     0.047 A 
HETATM   16 CL1  UNL     1      22.847  -1.429  55.249  1.00  0.00    -0.083 Cl
HETATM   17  C14 UNL     1      24.234   0.093  53.483  1.00  0.00     0.025 A 
HETATM   18  C16 UNL     1      24.329   0.913  52.394  1.00  0.00     0.045 A 
BRANCH  17  19
HETATM   19  C15 UNL     1      25.429  -0.257  54.214  1.00  0.00     0.271 C 
HETATM   20  O2  UNL     1      26.175  -1.256  54.051  1.00  0.00    -0.301 OA
ENDBRANCH  17  19
ENDBRANCH  10  12
ENDBRANCH   9  10
ENDBRANCH   5   9
BRANCH   1  21
HETATM   21  O1  UNL     1      27.761   6.946  47.968  1.00  0.00    -0.314 OA
BRANCH  21  22
HETATM   22  C4  UNL     1      29.135   7.056  48.282  1.00  0.00     0.084 C 
HETATM   23  C3  UNL     1      30.670   6.654  48.458  1.00  0.00     0.043 C 
HETATM   24  C2  UNL     1      31.214   7.868  49.000  1.00  0.00     0.102 A 
HETATM   25  C1  UNL     1      30.574   8.644  47.817  1.00  0.00     0.185 A 
HETATM   26  N4  UNL     1      31.185   9.306  49.045  1.00  0.00    -0.249 N 
HETATM   27  C20 UNL     1      29.474   8.309  48.787  1.00  0.00     0.022 C 
HETATM   28  C21 UNL     1      29.787   9.624  49.366  1.00  0.00     0.076 C 
BRANCH  25  29
HETATM   29  N1  UNL     1      30.984   9.933  47.541  1.00  0.00    -0.411 N 
HETATM   30  H1  UNL     1      31.522  10.169  46.718  1.00  0.00     0.151 HD
HETATM   31  H2  UNL     1      30.292  10.654  47.789  1.00  0.00     0.151 HD
ENDBRANCH  25  29
ENDBRANCH  21  22
ENDBRANCH   1  21
TORSDOF 7
ENDMDL
MODEL 9
REMARK VINA RESULT:      -8.1      3.375      7.461
REMARK  7 active torsions:
REMARK  status: ('A' for Active; 'I' for Inactive)
REMARK    1  A    between atoms: N1_1  and  C1_2 
REMARK    2  A    between atoms: C4_5  and  O1_6 
REMARK    3  A    between atoms: O1_6  and  C5_7 
REMARK    4  A    between atoms: N2_11  and  C9_12 
REMARK    5  A    between atoms: C9_12  and  N3_13 
REMARK    6  A    between atoms: N3_13  and  C10_14 
REMARK    7  A    between atoms: C14_19  and  C15_20 
ROOT
HETATM    1  C5  UNL     1      23.353   1.960  52.716  1.00  0.00     0.057 C 
HETATM    2  C6  UNL     1      23.991   3.008  53.200  1.00  0.00     0.034 C 
HETATM    3  C7  UNL     1      23.631   4.391  52.922  1.00  0.00     0.020 C 
HETATM    4  C8  UNL     1      22.819   5.096  52.115  1.00  0.00     0.092 C 
HETATM    5  N2  UNL     1      21.874   4.723  51.085  1.00  0.00    -0.350 N 
HETATM    6  C17 UNL     1      21.108   3.537  50.934  1.00  0.00     0.088 C 
HETATM    7  C18 UNL     1      21.350   2.287  51.281  1.00  0.00    -0.003 C 
HETATM    8  C19 UNL     1      22.293   1.336  51.909  1.00  0.00     0.093 C 
ENDROOT
BRANCH   5   9
HETATM    9  C9  UNL     1      21.768   5.764  50.131  1.00  0.00     0.250 C 
BRANCH   9  10
HETATM   10  N3  UNL     1      22.267   5.525  48.821  1.00  0.00    -0.373 N 
HETATM   11  H10 UNL     1      21.822   5.302  47.902  1.00  0.00     0.161 HD
BRANCH  10  12
HETATM   12  C10 UNL     1      23.691   5.609  48.751  1.00  0.00     0.030 A 
HETATM   13  C11 UNL     1      24.359   6.738  48.264  1.00  0.00     0.031 A 
HETATM   14  C12 UNL     1      25.710   6.914  48.153  1.00  0.00     0.027 A 
HETATM   15  C13 UNL     1      26.493   5.861  48.569  1.00  0.00     0.047 A 
HETATM   16 CL1  UNL     1      28.241   6.016  48.456  1.00  0.00    -0.083 Cl
HETATM   17  C14 UNL     1      25.944   4.707  49.063  1.00  0.00     0.025 A 
HETATM   18  C16 UNL     1      24.583   4.609  49.141  1.00  0.00     0.045 A 
BRANCH  17  19
HETATM   19  C15 UNL     1      26.762   3.600  49.498  1.00  0.00     0.271 C 
HETATM   20  O2  UNL     1      27.107   3.304  50.671  1.00  0.00    -0.301 OA
ENDBRANCH  17  19
ENDBRANCH  10  12
ENDBRANCH   9  10
ENDBRANCH   5   9
BRANCH   1  21
HETATM   21  O1  UNL     1      23.978   0.819  53.194  1.00  0.00    -0.314 OA
BRANCH  21  22
HETATM   22  C4  UNL     1      25.299   0.517  52.793  1.00  0.00     0.084 C 
HETATM   23  C3  UNL     1      26.546   0.210  51.844  1.00  0.00     0.043 C 
HETATM   24  C2  UNL     1      27.585  -0.006  52.812  1.00  0.00     0.102 A 
HETATM   25  C1  UNL     1      27.212   1.352  53.467  1.00  0.00     0.185 A 
HETATM   26  N4  UNL     1      28.149   0.328  54.093  1.00  0.00    -0.249 N 
HETATM   27  C20 UNL     1      26.165   0.350  53.872  1.00  0.00     0.022 C 
HETATM   28  C21 UNL     1      27.038   0.129  55.034  1.00  0.00     0.076 C 
BRANCH  25  29
HETATM   29  N1  UNL     1      28.084   1.947  54.355  1.00  0.00    -0.411 N 
HETATM   30  H1  UNL     1      29.088   1.899  54.247  1.00  0.00     0.151 HD
HETATM   31  H2  UNL     1      27.762   2.859  54.712  1.00  0.00     0.151 HD
ENDBRANCH  25  29
ENDBRANCH  21  22
ENDBRANCH   1  21
TORSDOF 7
ENDMDL
