MODEL 1
REMARK VINA RESULT:      -7.8      0.000      0.000
REMARK  1 active torsions:
REMARK  status: ('A' for Active; 'I' for Inactive)
REMARK    1  A    between atoms: C9_12  and  N3_13 
ROOT
HETATM    1  O1  UNL     1      26.445  -1.540  53.617  1.00  0.00    -0.125 OA
HETATM    2  C1  UNL     1      27.588  -1.762  53.175  1.00  0.00     0.307 A 
HETATM    3  C2  UNL     1      28.889  -2.337  52.960  1.00  0.00     0.081 C 
HETATM    4  C3  UNL     1      29.679  -1.280  52.822  1.00  0.00    -0.021 C 
HETATM    5  C4  UNL     1      30.062  -0.718  53.961  1.00  0.00     0.014 C 
HETATM    6  C5  UNL     1      28.934  -0.397  54.827  1.00  0.00     0.020 C 
HETATM    7  C6  UNL     1      28.499   0.866  54.986  1.00  0.00     0.118 C 
HETATM    8  N1  UNL     1      29.021   2.017  54.388  1.00  0.00    -0.254 NA
HETATM    9  C7  UNL     1      28.603   2.602  53.323  1.00  0.00     0.231 C 
HETATM   10  N2  UNL     1      27.496   1.851  52.859  1.00  0.00    -0.256 NA
HETATM   11  C8  UNL     1      26.675   2.177  51.954  1.00  0.00     0.118 C 
HETATM   12  C9  UNL     1      25.601   1.200  51.665  1.00  0.00     0.154 C 
HETATM   13  C15 UNL     1      25.676   0.032  52.634  1.00  0.00     0.311 C 
HETATM   14  N4  UNL     1      26.956  -0.650  52.532  1.00  0.00     0.107 N 
HETATM   15  H15 UNL     1      27.640  -0.268  51.808  1.00  0.00     0.328 HD
ENDROOT
BRANCH  12  16
HETATM   16  N3  UNL     1      24.282   1.729  51.768  1.00  0.00    -0.374 N 
HETATM   17  C10 UNL     1      23.919   2.926  51.112  1.00  0.00     0.086 A 
HETATM   18  C11 UNL     1      22.688   3.403  51.219  1.00  0.00     0.018 A 
HETATM   19  C12 UNL     1      21.646   2.746  51.998  1.00  0.00     0.018 A 
HETATM   20  C13 UNL     1      21.997   1.620  52.610  1.00  0.00     0.006 A 
HETATM   21 BR1  UNL     1      20.778   0.600  53.684  1.00  0.00    -0.054 Br
HETATM   22  C14 UNL     1      23.330   0.991  52.567  1.00  0.00     0.169 A 
ENDBRANCH  12  16
TORSDOF 1
ENDMDL
MODEL 2
REMARK VINA RESULT:      -7.8      2.013      3.197
REMARK  1 active torsions:
REMARK  status: ('A' for Active; 'I' for Inactive)
REMARK    1  A    between atoms: C9_12  and  N3_13 
ROOT
HETATM    1  O1  UNL     1      27.811   2.513  52.079  1.00  0.00    -0.125 OA
HETATM    2  C1  UNL     1      28.305   2.249  53.192  1.00  0.00     0.307 A 
HETATM    3  C2  UNL     1      29.241   1.955  54.243  1.00  0.00     0.081 C 
HETATM    4  C3  UNL     1      28.641   0.998  54.938  1.00  0.00    -0.021 C 
HETATM    5  C4  UNL     1      28.758  -0.220  54.425  1.00  0.00     0.014 C 
HETATM    6  C5  UNL     1      28.347  -0.276  53.028  1.00  0.00     0.020 C 
HETATM    7  C6  UNL     1      27.179  -0.826  52.654  1.00  0.00     0.118 C 
HETATM    8  N1  UNL     1      26.217  -1.406  53.487  1.00  0.00    -0.254 NA
HETATM    9  C7  UNL     1      25.161  -0.851  53.965  1.00  0.00     0.231 C 
HETATM   10  N2  UNL     1      25.151   0.479  53.481  1.00  0.00    -0.256 NA
HETATM   11  C8  UNL     1      24.202   1.313  53.550  1.00  0.00     0.118 C 
HETATM   12  C9  UNL     1      24.459   2.646  52.958  1.00  0.00     0.154 C 
HETATM   13  C15 UNL     1      25.821   2.670  52.285  1.00  0.00     0.311 C 
HETATM   14  N4  UNL     1      26.880   2.378  53.238  1.00  0.00     0.107 N 
HETATM   15  H15 UNL     1      26.576   2.211  54.247  1.00  0.00     0.328 HD
ENDROOT
BRANCH  12  16
HETATM   16  N3  UNL     1      23.511   3.043  51.971  1.00  0.00    -0.374 N 
HETATM   17  C10 UNL     1      23.065   4.380  51.879  1.00  0.00     0.086 A 
HETATM   18  C11 UNL     1      22.183   4.731  50.955  1.00  0.00     0.018 A 
HETATM   19  C12 UNL     1      21.626   3.790  49.991  1.00  0.00     0.018 A 
HETATM   20  C13 UNL     1      22.052   2.535  50.086  1.00  0.00     0.006 A 
HETATM   21 BR1  UNL     1      21.444   1.142  48.916  1.00  0.00    -0.054 Br
HETATM   22  C14 UNL     1      23.026   2.024  51.067  1.00  0.00     0.169 A 
ENDBRANCH  12  16
TORSDOF 1
ENDMDL
MODEL 3
REMARK VINA RESULT:      -7.7      2.699      6.409
REMARK  1 active torsions:
REMARK  status: ('A' for Active; 'I' for Inactive)
REMARK    1  A    between atoms: C9_12  and  N3_13 
ROOT
HETATM    1  O1  UNL     1      23.036  -1.221  53.117  1.00  0.00    -0.125 OA
HETATM    2  C1  UNL     1      21.962  -0.686  53.453  1.00  0.00     0.307 A 
HETATM    3  C2  UNL     1      20.566  -0.451  53.707  1.00  0.00     0.081 C 
HETATM    4  C3  UNL     1      20.378   0.795  53.292  1.00  0.00    -0.021 C 
HETATM    5  C4  UNL     1      20.213   0.927  51.983  1.00  0.00     0.014 C 
HETATM    6  C5  UNL     1      21.285   0.298  51.222  1.00  0.00     0.020 C 
HETATM    7  C6  UNL     1      22.247   1.021  50.621  1.00  0.00     0.118 C 
HETATM    8  N1  UNL     1      22.376   2.413  50.619  1.00  0.00    -0.254 NA
HETATM    9  C7  UNL     1      23.104   3.130  51.398  1.00  0.00     0.231 C 
HETATM   10  N2  UNL     1      23.763   2.234  52.272  1.00  0.00    -0.256 NA
HETATM   11  C8  UNL     1      24.712   2.496  53.067  1.00  0.00     0.118 C 
HETATM   12  C9  UNL     1      25.221   1.364  53.873  1.00  0.00     0.154 C 
HETATM   13  C15 UNL     1      24.529   0.074  53.466  1.00  0.00     0.311 C 
HETATM   14  N4  UNL     1      23.092   0.168  53.664  1.00  0.00     0.107 N 
HETATM   15  H15 UNL     1      22.728   1.085  54.069  1.00  0.00     0.328 HD
ENDROOT
BRANCH  12  16
HETATM   16  N3  UNL     1      26.621   1.132  53.742  1.00  0.00    -0.374 N 
HETATM   17  C10 UNL     1      27.548   2.197  53.789  1.00  0.00     0.086 A 
HETATM   18  C11 UNL     1      28.846   1.963  53.665  1.00  0.00     0.018 A 
HETATM   19  C12 UNL     1      29.398   0.627  53.478  1.00  0.00     0.018 A 
HETATM   20  C13 UNL     1      28.518  -0.368  53.435  1.00  0.00     0.006 A 
HETATM   21 BR1  UNL     1      29.035  -2.199  53.196  1.00  0.00    -0.054 Br
HETATM   22  C14 UNL     1      27.055  -0.235  53.560  1.00  0.00     0.169 A 
ENDBRANCH  12  16
TORSDOF 1
ENDMDL
MODEL 4
REMARK VINA RESULT:      -7.3      4.414      6.446
REMARK  1 active torsions:
REMARK  status: ('A' for Active; 'I' for Inactive)
REMARK    1  A    between atoms: C9_12  and  N3_13 
ROOT
HETATM    1  O1  UNL     1      23.568  -0.156  52.431  1.00  0.00    -0.125 OA
HETATM    2  C1  UNL     1      22.900  -0.209  53.481  1.00  0.00     0.307 A 
HETATM    3  C2  UNL     1      22.148  -0.695  54.607  1.00  0.00     0.081 C 
HETATM    4  C3  UNL     1      21.140   0.162  54.703  1.00  0.00    -0.021 C 
HETATM    5  C4  UNL     1      20.133  -0.066  53.870  1.00  0.00     0.014 C 
HETATM    6  C5  UNL     1      20.574  -0.175  52.485  1.00  0.00     0.020 C 
HETATM    7  C6  UNL     1      20.367   0.812  51.595  1.00  0.00     0.118 C 
HETATM    8  N1  UNL     1      19.731   2.035  51.829  1.00  0.00    -0.254 NA
HETATM    9  C7  UNL     1      20.284   3.162  52.107  1.00  0.00     0.231 C 
HETATM   10  N2  UNL     1      21.680   2.930  52.131  1.00  0.00    -0.256 NA
HETATM   11  C8  UNL     1      22.600   3.797  52.177  1.00  0.00     0.118 C 
HETATM   12  C9  UNL     1      23.987   3.278  52.193  1.00  0.00     0.154 C 
HETATM   13  C15 UNL     1      23.985   1.767  52.037  1.00  0.00     0.311 C 
HETATM   14  N4  UNL     1      23.245   1.131  53.115  1.00  0.00     0.107 N 
HETATM   15  H15 UNL     1      22.834   1.781  53.854  1.00  0.00     0.328 HD
ENDROOT
BRANCH  12  16
HETATM   16  N3  UNL     1      24.817   3.793  51.155  1.00  0.00    -0.374 N 
HETATM   17  C10 UNL     1      25.947   3.078  50.698  1.00  0.00     0.086 A 
HETATM   18  C11 UNL     1      26.707   3.573  49.733  1.00  0.00     0.018 A 
HETATM   19  C12 UNL     1      26.441   4.853  49.088  1.00  0.00     0.018 A 
HETATM   20  C13 UNL     1      25.376   5.516  49.525  1.00  0.00     0.006 A 
HETATM   21 BR1  UNL     1      24.850   7.217  48.811  1.00  0.00    -0.054 Br
HETATM   22  C14 UNL     1      24.457   5.073  50.588  1.00  0.00     0.169 A 
ENDBRANCH  12  16
TORSDOF 1
ENDMDL
MODEL 5
REMARK VINA RESULT:      -7.1      4.793      6.699
REMARK  1 active torsions:
REMARK  status: ('A' for Active; 'I' for Inactive)
REMARK    1  A    between atoms: C9_12  and  N3_13 
ROOT
HETATM    1  O1  UNL     1      23.628   0.779  52.217  1.00  0.00    -0.125 OA
HETATM    2  C1  UNL     1      22.919   0.440  53.184  1.00  0.00     0.307 A 
HETATM    3  C2  UNL     1      22.241  -0.345  54.181  1.00  0.00     0.081 C 
HETATM    4  C3  UNL     1      21.033   0.201  54.241  1.00  0.00    -0.021 C 
HETATM    5  C4  UNL     1      20.196  -0.193  53.290  1.00  0.00     0.014 C 
HETATM    6  C5  UNL     1      20.758  -0.033  51.955  1.00  0.00     0.020 C 
HETATM    7  C6  UNL     1      20.361   0.955  51.133  1.00  0.00     0.118 C 
HETATM    8  N1  UNL     1      19.401   1.936  51.398  1.00  0.00    -0.254 NA
HETATM    9  C7  UNL     1      19.602   3.131  51.824  1.00  0.00     0.231 C 
HETATM   10  N2  UNL     1      21.002   3.274  51.976  1.00  0.00    -0.256 NA
HETATM   11  C8  UNL     1      21.645   4.342  52.190  1.00  0.00     0.118 C 
HETATM   12  C9  UNL     1      23.115   4.208  52.308  1.00  0.00     0.154 C 
HETATM   13  C15 UNL     1      23.537   2.775  52.029  1.00  0.00     0.311 C 
HETATM   14  N4  UNL     1      22.915   1.855  52.968  1.00  0.00     0.107 N 
HETATM   15  H15 UNL     1      22.285   2.290  53.710  1.00  0.00     0.328 HD
ENDROOT
BRANCH  12  16
HETATM   16  N3  UNL     1      23.854   5.031  51.410  1.00  0.00    -0.374 N 
HETATM   17  C10 UNL     1      23.501   6.382  51.194  1.00  0.00     0.086 A 
HETATM   18  C11 UNL     1      24.200   7.132  50.355  1.00  0.00     0.018 A 
HETATM   19  C12 UNL     1      25.353   6.634  49.615  1.00  0.00     0.018 A 
HETATM   20  C13 UNL     1      25.677   5.362  49.825  1.00  0.00     0.006 A 
HETATM   21 BR1  UNL     1      27.158   4.512  48.952  1.00  0.00    -0.054 Br
HETATM   22  C14 UNL     1      24.980   4.430  50.730  1.00  0.00     0.169 A 
ENDBRANCH  12  16
TORSDOF 1
ENDMDL
MODEL 6
REMARK VINA RESULT:      -7.0      8.270     10.806
REMARK  1 active torsions:
REMARK  status: ('A' for Active; 'I' for Inactive)
REMARK    1  A    between atoms: C9_12  and  N3_13 
ROOT
HETATM    1  O1  UNL     1      28.309   6.443  47.756  1.00  0.00    -0.125 OA
HETATM    2  C1  UNL     1      27.642   7.083  48.593  1.00  0.00     0.307 A 
HETATM    3  C2  UNL     1      26.558   7.741  49.270  1.00  0.00     0.081 C 
HETATM    4  C3  UNL     1      27.104   8.863  49.720  1.00  0.00    -0.021 C 
HETATM    5  C4  UNL     1      27.199   9.836  48.822  1.00  0.00     0.014 C 
HETATM    6  C5  UNL     1      27.868   9.401  47.603  1.00  0.00     0.020 C 
HETATM    7  C6  UNL     1      29.133   9.762  47.320  1.00  0.00     0.118 C 
HETATM    8  N1  UNL     1      29.971  10.567  48.097  1.00  0.00    -0.254 NA
HETATM    9  C7  UNL     1      30.863  10.182  48.938  1.00  0.00     0.231 C 
HETATM   10  N2  UNL     1      30.838   8.767  48.932  1.00  0.00    -0.256 NA
HETATM   11  C8  UNL     1      31.675   7.983  49.467  1.00  0.00     0.118 C 
HETATM   12  C9  UNL     1      31.409   6.536  49.308  1.00  0.00     0.154 C 
HETATM   13  C15 UNL     1      30.202   6.317  48.412  1.00  0.00     0.311 C 
HETATM   14  N4  UNL     1      29.015   6.942  48.974  1.00  0.00     0.107 N 
HETATM   15  H15 UNL     1      29.138   7.436  49.912  1.00  0.00     0.328 HD
ENDROOT
BRANCH  12  16
HETATM   16  N3  UNL     1      32.484   5.802  48.726  1.00  0.00    -0.374 N 
HETATM   17  C10 UNL     1      33.799   6.318  48.709  1.00  0.00     0.086 A 
HETATM   18  C11 UNL     1      34.785   5.621  48.164  1.00  0.00     0.018 A 
HETATM   19  C12 UNL     1      34.593   4.308  47.561  1.00  0.00     0.018 A 
HETATM   20  C13 UNL     1      33.352   3.832  47.583  1.00  0.00     0.006 A 
HETATM   21 BR1  UNL     1      32.884   2.126  46.843  1.00  0.00    -0.054 Br
HETATM   22  C14 UNL     1      32.176   4.510  48.157  1.00  0.00     0.169 A 
ENDBRANCH  12  16
TORSDOF 1
ENDMDL
MODEL 7
REMARK VINA RESULT:      -7.0     10.391     11.845
REMARK  1 active torsions:
REMARK  status: ('A' for Active; 'I' for Inactive)
REMARK    1  A    between atoms: C9_12  and  N3_13 
ROOT
HETATM    1  O1  UNL     1      33.796   5.396  44.857  1.00  0.00    -0.125 OA
HETATM    2  C1  UNL     1      34.437   4.582  45.550  1.00  0.00     0.307 A 
HETATM    3  C2  UNL     1      35.079   3.382  46.014  1.00  0.00     0.081 C 
HETATM    4  C3  UNL     1      34.773   3.343  47.304  1.00  0.00    -0.021 C 
HETATM    5  C4  UNL     1      33.568   2.862  47.577  1.00  0.00     0.014 C 
HETATM    6  C5  UNL     1      32.518   3.541  46.829  1.00  0.00     0.020 C 
HETATM    7  C6  UNL     1      31.693   4.430  47.412  1.00  0.00     0.118 C 
HETATM    8  N1  UNL     1      31.700   4.830  48.751  1.00  0.00    -0.254 NA
HETATM    9  C7  UNL     1      32.265   5.869  49.253  1.00  0.00     0.231 C 
HETATM   10  N2  UNL     1      32.890   6.546  48.179  1.00  0.00    -0.256 NA
HETATM   11  C8  UNL     1      33.395   7.706  48.194  1.00  0.00     0.118 C 
HETATM   12  C9  UNL     1      33.989   8.176  46.922  1.00  0.00     0.154 C 
HETATM   13  C15 UNL     1      33.752   7.157  45.821  1.00  0.00     0.311 C 
HETATM   14  N4  UNL     1      34.348   5.874  46.160  1.00  0.00     0.107 N 
HETATM   15  H15 UNL     1      34.868   5.824  47.090  1.00  0.00     0.328 HD
ENDROOT
BRANCH  12  16
HETATM   16  N3  UNL     1      33.463   9.413  46.450  1.00  0.00    -0.374 N 
HETATM   17  C10 UNL     1      33.977  10.034  45.289  1.00  0.00     0.086 A 
HETATM   18  C11 UNL     1      33.474  11.184  44.866  1.00  0.00     0.018 A 
HETATM   19  C12 UNL     1      32.384  11.873  45.544  1.00  0.00     0.018 A 
HETATM   20  C13 UNL     1      31.907  11.281  46.635  1.00  0.00     0.006 A 
HETATM   21 BR1  UNL     1      30.475  12.021  47.674  1.00  0.00    -0.054 Br
HETATM   22  C14 UNL     1      32.381  10.007  47.203  1.00  0.00     0.169 A 
ENDBRANCH  12  16
TORSDOF 1
ENDMDL
MODEL 8
REMARK VINA RESULT:      -6.9      4.797      6.793
REMARK  1 active torsions:
REMARK  status: ('A' for Active; 'I' for Inactive)
REMARK    1  A    between atoms: C9_12  and  N3_13 
ROOT
HETATM    1  O1  UNL     1      22.864   4.610  51.330  1.00  0.00    -0.125 OA
HETATM    2  C1  UNL     1      22.502   3.447  51.063  1.00  0.00     0.307 A 
HETATM    3  C2  UNL     1      21.770   2.210  51.036  1.00  0.00     0.081 C 
HETATM    4  C3  UNL     1      22.719   1.284  51.047  1.00  0.00    -0.021 C 
HETATM    5  C4  UNL     1      23.223   1.017  52.244  1.00  0.00     0.014 C 
HETATM    6  C5  UNL     1      23.679   2.217  52.934  1.00  0.00     0.020 C 
HETATM    7  C6  UNL     1      24.986   2.512  53.056  1.00  0.00     0.118 C 
HETATM    8  N1  UNL     1      26.065   1.766  52.574  1.00  0.00    -0.254 NA
HETATM    9  C7  UNL     1      26.703   1.938  51.471  1.00  0.00     0.231 C 
HETATM   10  N2  UNL     1      26.100   3.044  50.826  1.00  0.00    -0.256 NA
HETATM   11  C8  UNL     1      26.530   3.668  49.813  1.00  0.00     0.118 C 
HETATM   12  C9  UNL     1      25.697   4.796  49.338  1.00  0.00     0.154 C 
HETATM   13  C15 UNL     1      24.525   5.017  50.279  1.00  0.00     0.311 C 
HETATM   14  N4  UNL     1      23.688   3.830  50.358  1.00  0.00     0.107 N 
HETATM   15  H15 UNL     1      23.984   3.001  49.757  1.00  0.00     0.328 HD
ENDROOT
BRANCH  12  16
HETATM   16  N3  UNL     1      26.387   6.040  49.251  1.00  0.00    -0.374 N 
HETATM   17  C10 UNL     1      25.950   7.174  49.971  1.00  0.00     0.086 A 
HETATM   18  C11 UNL     1      26.605   8.321  49.877  1.00  0.00     0.018 A 
HETATM   19  C12 UNL     1      27.792   8.494  49.050  1.00  0.00     0.018 A 
HETATM   20  C13 UNL     1      28.196   7.421  48.377  1.00  0.00     0.006 A 
HETATM   21 BR1  UNL     1      29.734   7.434  47.232  1.00  0.00    -0.054 Br
HETATM   22  C14 UNL     1      27.554   6.095  48.399  1.00  0.00     0.169 A 
ENDBRANCH  12  16
TORSDOF 1
ENDMDL
MODEL 9
REMARK VINA RESULT:      -6.9      3.259      7.222
REMARK  1 active torsions:
REMARK  status: ('A' for Active; 'I' for Inactive)
REMARK    1  A    between atoms: C9_12  and  N3_13 
ROOT
HETATM    1  O1  UNL     1      24.106   3.834  49.880  1.00  0.00    -0.125 OA
HETATM    2  C1  UNL     1      23.148   3.633  49.109  1.00  0.00     0.307 A 
HETATM    3  C2  UNL     1      22.178   3.781  48.057  1.00  0.00     0.081 C 
HETATM    4  C3  UNL     1      21.042   3.395  48.623  1.00  0.00    -0.021 C 
HETATM    5  C4  UNL     1      20.448   4.319  49.367  1.00  0.00     0.014 C 
HETATM    6  C5  UNL     1      21.345   4.885  50.367  1.00  0.00     0.020 C 
HETATM    7  C6  UNL     1      21.250   4.560  51.669  1.00  0.00     0.118 C 
HETATM    8  N1  UNL     1      20.333   3.681  52.252  1.00  0.00    -0.254 NA
HETATM    9  C7  UNL     1      20.511   2.440  52.532  1.00  0.00     0.231 C 
HETATM   10  N2  UNL     1      21.832   2.123  52.134  1.00  0.00    -0.256 NA
HETATM   11  C8  UNL     1      22.480   1.068  52.398  1.00  0.00     0.118 C 
HETATM   12  C9  UNL     1      23.855   0.993  51.854  1.00  0.00     0.154 C 
HETATM   13  C15 UNL     1      24.221   2.298  51.167  1.00  0.00     0.311 C 
HETATM   14  N4  UNL     1      23.310   2.585  50.071  1.00  0.00     0.107 N 
HETATM   15  H15 UNL     1      22.546   1.863  49.888  1.00  0.00     0.328 HD
ENDROOT
BRANCH  12  16
HETATM   16  N3  UNL     1      24.861   0.754  52.834  1.00  0.00    -0.374 N 
HETATM   17  C10 UNL     1      24.694  -0.233  53.830  1.00  0.00     0.086 A 
HETATM   18  C11 UNL     1      25.641  -0.442  54.733  1.00  0.00     0.018 A 
HETATM   19  C12 UNL     1      26.891   0.309  54.763  1.00  0.00     0.018 A 
HETATM   20  C13 UNL     1      27.038   1.235  53.821  1.00  0.00     0.006 A 
HETATM   21 BR1  UNL     1      28.605   2.332  53.682  1.00  0.00    -0.054 Br
HETATM   22  C14 UNL     1      26.060   1.559  52.766  1.00  0.00     0.169 A 
ENDBRANCH  12  16
TORSDOF 1
ENDMDL
