MODEL 1
REMARK VINA RESULT:      -7.6      0.000      0.000
REMARK  5 active torsions:
REMARK  status: ('A' for Active; 'I' for Inactive)
REMARK    1  A    between atoms: C1_2  and  O1_3 
REMARK    2  A    between atoms: O1_3  and  C2_4 
REMARK    3  A    between atoms: C8_12  and  S2_13 
REMARK    4  A    between atoms: S2_13  and  C9_14 
REMARK    5  A    between atoms: C9_14  and  C10_15 
ROOT
HETATM    1  C2  UNL     1      26.954   1.458  53.951  1.00  0.00     0.116 C 
HETATM    2  C3  UNL     1      26.612   0.454  54.764  1.00  0.00     0.022 C 
HETATM    3  C4  UNL     1      25.692  -0.603  54.257  1.00  0.00     0.058 C 
HETATM    4  C5  UNL     1      26.222  -1.122  52.960  1.00  0.00    -0.015 C 
HETATM    5  C6  UNL     1      26.546  -0.320  51.929  1.00  0.00     0.051 C 
HETATM    6  S1  UNL     1      26.255   1.403  52.340  1.00  0.00    -0.057 SA
HETATM    7  C7  UNL     1      26.426   2.647  51.177  1.00  0.00     0.264 C 
HETATM    8  O2  UNL     1      25.165   2.631  50.532  1.00  0.00    -0.318 OA
HETATM    9  C8  UNL     1      24.165   2.309  51.438  1.00  0.00     0.211 C 
HETATM   10  N2  UNL     1      24.322   1.657  52.541  1.00  0.00    -0.194 NA
ENDROOT
BRANCH   1  11
HETATM   11  O1  UNL     1      27.792   2.532  54.226  1.00  0.00    -0.298 OA
BRANCH  11  12
HETATM   12  C1  UNL     1      29.099   2.488  53.758  1.00  0.00     0.250 C 
HETATM   13  N1  UNL     1      29.817   2.341  54.827  1.00  0.00    -0.289 NA
HETATM   14  H1  UNL     1      30.849   2.269  54.849  1.00  0.00     0.188 HD
ENDBRANCH  11  12
ENDBRANCH   1  11
BRANCH   9  15
HETATM   15  S2  UNL     1      22.440   2.773  51.194  1.00  0.00    -0.080 SA
BRANCH  15  16
HETATM   16  C9  UNL     1      21.400   1.324  51.002  1.00  0.00     0.121 C 
BRANCH  16  17
HETATM   17  C10 UNL     1      21.405   0.572  52.289  1.00  0.00    -0.049 A 
HETATM   18  C11 UNL     1      20.755   1.053  53.403  1.00  0.00     0.008 A 
HETATM   19  C12 UNL     1      20.739   0.386  54.609  1.00  0.00     0.001 A 
HETATM   20  C13 UNL     1      21.404  -0.827  54.718  1.00  0.00     0.000 A 
HETATM   21  C14 UNL     1      22.068  -1.344  53.626  1.00  0.00     0.001 A 
HETATM   22  C15 UNL     1      22.056  -0.639  52.434  1.00  0.00     0.008 A 
ENDBRANCH  16  17
ENDBRANCH  15  16
ENDBRANCH   9  15
TORSDOF 5
ENDMDL
MODEL 2
REMARK VINA RESULT:      -7.4      2.804      4.070
REMARK  5 active torsions:
REMARK  status: ('A' for Active; 'I' for Inactive)
REMARK    1  A    between atoms: C1_2  and  O1_3 
REMARK    2  A    between atoms: O1_3  and  C2_4 
REMARK    3  A    between atoms: C8_12  and  S2_13 
REMARK    4  A    between atoms: S2_13  and  C9_14 
REMARK    5  A    between atoms: C9_14  and  C10_15 
ROOT
HETATM    1  C2  UNL     1      26.545  -0.958  53.021  1.00  0.00     0.116 C 
HETATM    2  C3  UNL     1      26.731  -0.172  51.956  1.00  0.00     0.022 C 
HETATM    3  C4  UNL     1      25.912   1.065  51.821  1.00  0.00     0.058 C 
HETATM    4  C5  UNL     1      26.014   1.851  53.089  1.00  0.00    -0.015 C 
HETATM    5  C6  UNL     1      25.770   1.318  54.300  1.00  0.00     0.051 C 
HETATM    6  S1  UNL     1      25.324  -0.415  54.162  1.00  0.00    -0.057 SA
HETATM    7  C7  UNL     1      24.807  -1.322  55.517  1.00  0.00     0.264 C 
HETATM    8  O2  UNL     1      23.426  -1.015  55.576  1.00  0.00    -0.318 OA
HETATM    9  C8  UNL     1      22.916  -0.844  54.297  1.00  0.00     0.211 C 
HETATM   10  N2  UNL     1      23.593  -0.521  53.247  1.00  0.00    -0.194 NA
ENDROOT
BRANCH   1  11
HETATM   11  O1  UNL     1      27.200  -2.143  53.333  1.00  0.00    -0.298 OA
BRANCH  11  12
HETATM   12  C1  UNL     1      28.553  -2.248  53.040  1.00  0.00     0.250 C 
HETATM   13  N1  UNL     1      28.859  -3.464  53.367  1.00  0.00    -0.289 NA
HETATM   14  H1  UNL     1      29.799  -3.890  53.279  1.00  0.00     0.188 HD
ENDBRANCH  11  12
ENDBRANCH   1  11
BRANCH   9  15
HETATM   15  S2  UNL     1      21.169  -1.056  53.907  1.00  0.00    -0.080 SA
BRANCH  15  16
HETATM   16  C9  UNL     1      20.403   0.511  53.488  1.00  0.00     0.121 C 
BRANCH  16  17
HETATM   17  C10 UNL     1      21.042   1.024  52.242  1.00  0.00    -0.049 A 
HETATM   18  C11 UNL     1      21.804   2.171  52.248  1.00  0.00     0.008 A 
HETATM   19  C12 UNL     1      22.409   2.675  51.117  1.00  0.00     0.001 A 
HETATM   20  C13 UNL     1      22.250   2.005  49.912  1.00  0.00     0.000 A 
HETATM   21  C14 UNL     1      21.495   0.853  49.863  1.00  0.00     0.001 A 
HETATM   22  C15 UNL     1      20.907   0.384  51.025  1.00  0.00     0.008 A 
ENDBRANCH  16  17
ENDBRANCH  15  16
ENDBRANCH   9  15
TORSDOF 5
ENDMDL
MODEL 3
REMARK VINA RESULT:      -7.1      2.690      4.250
REMARK  5 active torsions:
REMARK  status: ('A' for Active; 'I' for Inactive)
REMARK    1  A    between atoms: C1_2  and  O1_3 
REMARK    2  A    between atoms: O1_3  and  C2_4 
REMARK    3  A    between atoms: C8_12  and  S2_13 
REMARK    4  A    between atoms: S2_13  and  C9_14 
REMARK    5  A    between atoms: C9_14  and  C10_15 
ROOT
HETATM    1  C2  UNL     1      26.928   1.388  53.920  1.00  0.00     0.116 C 
HETATM    2  C3  UNL     1      26.506   0.375  54.684  1.00  0.00     0.022 C 
HETATM    3  C4  UNL     1      25.578  -0.632  54.099  1.00  0.00     0.058 C 
HETATM    4  C5  UNL     1      26.161  -1.137  52.818  1.00  0.00    -0.015 C 
HETATM    5  C6  UNL     1      26.569  -0.319  51.829  1.00  0.00     0.051 C 
HETATM    6  S1  UNL     1      26.317   1.402  52.273  1.00  0.00    -0.057 SA
HETATM    7  C7  UNL     1      26.596   2.668  51.157  1.00  0.00     0.264 C 
HETATM    8  O2  UNL     1      25.373   2.716  50.445  1.00  0.00    -0.318 OA
HETATM    9  C8  UNL     1      24.313   2.407  51.286  1.00  0.00     0.211 C 
HETATM   10  N2  UNL     1      24.386   1.721  52.377  1.00  0.00    -0.194 NA
ENDROOT
BRANCH   1  11
HETATM   11  O1  UNL     1      27.787   2.423  54.270  1.00  0.00    -0.298 OA
BRANCH  11  12
HETATM   12  C1  UNL     1      29.078   2.412  53.758  1.00  0.00     0.250 C 
HETATM   13  N1  UNL     1      29.838   2.373  54.807  1.00  0.00    -0.289 NA
HETATM   14  H1  UNL     1      30.873   2.354  54.795  1.00  0.00     0.188 HD
ENDBRANCH  11  12
ENDBRANCH   1  11
BRANCH   9  15
HETATM   15  S2  UNL     1      22.622   2.942  50.962  1.00  0.00    -0.080 SA
BRANCH  15  16
HETATM   16  C9  UNL     1      22.135   4.260  52.077  1.00  0.00     0.121 C 
BRANCH  16  17
HETATM   17  C10 UNL     1      22.542   5.559  51.469  1.00  0.00    -0.049 A 
HETATM   18  C11 UNL     1      21.616   6.405  50.901  1.00  0.00     0.008 A 
HETATM   19  C12 UNL     1      21.956   7.613  50.329  1.00  0.00     0.001 A 
HETATM   20  C13 UNL     1      23.287   8.005  50.321  1.00  0.00     0.000 A 
HETATM   21  C14 UNL     1      24.246   7.186  50.881  1.00  0.00     0.001 A 
HETATM   22  C15 UNL     1      23.857   5.982  51.444  1.00  0.00     0.008 A 
ENDBRANCH  16  17
ENDBRANCH  15  16
ENDBRANCH   9  15
TORSDOF 5
ENDMDL
MODEL 4
REMARK VINA RESULT:      -7.0      3.268      4.129
REMARK  5 active torsions:
REMARK  status: ('A' for Active; 'I' for Inactive)
REMARK    1  A    between atoms: C1_2  and  O1_3 
REMARK    2  A    between atoms: O1_3  and  C2_4 
REMARK    3  A    between atoms: C8_12  and  S2_13 
REMARK    4  A    between atoms: S2_13  and  C9_14 
REMARK    5  A    between atoms: C9_14  and  C10_15 
ROOT
HETATM    1  C2  UNL     1      26.788  -0.652  52.827  1.00  0.00     0.116 C 
HETATM    2  C3  UNL     1      27.321   0.245  51.991  1.00  0.00     0.022 C 
HETATM    3  C4  UNL     1      26.724   1.608  51.918  1.00  0.00     0.058 C 
HETATM    4  C5  UNL     1      26.622   2.163  53.302  1.00  0.00    -0.015 C 
HETATM    5  C6  UNL     1      26.030   1.500  54.314  1.00  0.00     0.051 C 
HETATM    6  S1  UNL     1      25.411  -0.092  53.763  1.00  0.00    -0.057 SA
HETATM    7  C7  UNL     1      24.474  -1.095  54.786  1.00  0.00     0.264 C 
HETATM    8  O2  UNL     1      23.170  -0.572  54.607  1.00  0.00    -0.318 OA
HETATM    9  C8  UNL     1      23.005  -0.126  53.304  1.00  0.00     0.211 C 
HETATM   10  N2  UNL     1      23.948   0.234  52.500  1.00  0.00    -0.194 NA
ENDROOT
BRANCH   1  11
HETATM   11  O1  UNL     1      27.191  -1.964  53.044  1.00  0.00    -0.298 OA
BRANCH  11  12
HETATM   12  C1  UNL     1      28.551  -2.248  53.032  1.00  0.00     0.250 C 
HETATM   13  N1  UNL     1      28.610  -3.536  53.159  1.00  0.00    -0.289 NA
HETATM   14  H1  UNL     1      29.481  -4.096  53.188  1.00  0.00     0.188 HD
ENDBRANCH  11  12
ENDBRANCH   1  11
BRANCH   9  15
HETATM   15  S2  UNL     1      21.388   0.020  52.519  1.00  0.00    -0.080 SA
BRANCH  15  16
HETATM   16  C9  UNL     1      20.071  -0.365  53.674  1.00  0.00     0.121 C 
BRANCH  16  17
HETATM   17  C10 UNL     1      18.817  -0.581  52.897  1.00  0.00    -0.049 A 
HETATM   18  C11 UNL     1      18.598   0.058  51.698  1.00  0.00     0.008 A 
HETATM   19  C12 UNL     1      17.451  -0.116  50.953  1.00  0.00     0.001 A 
HETATM   20  C13 UNL     1      16.466  -0.973  51.423  1.00  0.00     0.000 A 
HETATM   21  C14 UNL     1      16.646  -1.633  52.620  1.00  0.00     0.001 A 
HETATM   22  C15 UNL     1      17.815  -1.427  53.334  1.00  0.00     0.008 A 
ENDBRANCH  16  17
ENDBRANCH  15  16
ENDBRANCH   9  15
TORSDOF 5
ENDMDL
MODEL 5
REMARK VINA RESULT:      -7.0      3.245      6.399
REMARK  5 active torsions:
REMARK  status: ('A' for Active; 'I' for Inactive)
REMARK    1  A    between atoms: C1_2  and  O1_3 
REMARK    2  A    between atoms: O1_3  and  C2_4 
REMARK    3  A    between atoms: C8_12  and  S2_13 
REMARK    4  A    between atoms: S2_13  and  C9_14 
REMARK    5  A    between atoms: C9_14  and  C10_15 
ROOT
HETATM    1  C2  UNL     1      24.776  -0.256  53.356  1.00  0.00     0.116 C 
HETATM    2  C3  UNL     1      25.849  -1.016  53.116  1.00  0.00     0.022 C 
HETATM    3  C4  UNL     1      27.102  -0.365  52.640  1.00  0.00     0.058 C 
HETATM    4  C5  UNL     1      27.441   0.760  53.564  1.00  0.00    -0.015 C 
HETATM    5  C6  UNL     1      26.564   1.728  53.888  1.00  0.00     0.051 C 
HETATM    6  S1  UNL     1      24.986   1.465  53.073  1.00  0.00    -0.057 SA
HETATM    7  C7  UNL     1      23.722   2.615  53.168  1.00  0.00     0.264 C 
HETATM    8  O2  UNL     1      24.059   3.519  52.132  1.00  0.00    -0.318 OA
HETATM    9  C8  UNL     1      24.650   2.842  51.075  1.00  0.00     0.211 C 
HETATM   10  N2  UNL     1      25.256   1.705  51.146  1.00  0.00    -0.194 NA
ENDROOT
BRANCH   1  11
HETATM   11  O1  UNL     1      23.524  -0.661  53.801  1.00  0.00    -0.298 OA
BRANCH  11  12
HETATM   12  C1  UNL     1      23.410  -1.156  55.094  1.00  0.00     0.250 C 
HETATM   13  N1  UNL     1      22.201  -1.620  55.154  1.00  0.00    -0.289 NA
HETATM   14  H1  UNL     1      21.773  -2.069  55.983  1.00  0.00     0.188 HD
ENDBRANCH  11  12
ENDBRANCH   1  11
BRANCH   9  15
HETATM   15  S2  UNL     1      24.653   3.479  49.388  1.00  0.00    -0.080 SA
BRANCH  15  16
HETATM   16  C9  UNL     1      24.761   5.269  49.372  1.00  0.00     0.121 C 
BRANCH  16  17
HETATM   17  C10 UNL     1      26.112   5.651  48.869  1.00  0.00    -0.049 A 
HETATM   18  C11 UNL     1      26.363   6.911  48.376  1.00  0.00     0.008 A 
HETATM   19  C12 UNL     1      27.598   7.299  47.902  1.00  0.00     0.001 A 
HETATM   20  C13 UNL     1      28.643   6.387  47.920  1.00  0.00     0.000 A 
HETATM   21  C14 UNL     1      28.434   5.114  48.406  1.00  0.00     0.001 A 
HETATM   22  C15 UNL     1      27.176   4.770  48.872  1.00  0.00     0.008 A 
ENDBRANCH  16  17
ENDBRANCH  15  16
ENDBRANCH   9  15
TORSDOF 5
ENDMDL
MODEL 6
REMARK VINA RESULT:      -6.7      3.568      6.885
REMARK  5 active torsions:
REMARK  status: ('A' for Active; 'I' for Inactive)
REMARK    1  A    between atoms: C1_2  and  O1_3 
REMARK    2  A    between atoms: O1_3  and  C2_4 
REMARK    3  A    between atoms: C8_12  and  S2_13 
REMARK    4  A    between atoms: S2_13  and  C9_14 
REMARK    5  A    between atoms: C9_14  and  C10_15 
ROOT
HETATM    1  C2  UNL     1      22.668   1.296  52.690  1.00  0.00     0.116 C 
HETATM    2  C3  UNL     1      23.674   0.419  52.615  1.00  0.00     0.022 C 
HETATM    3  C4  UNL     1      25.046   0.918  52.319  1.00  0.00     0.058 C 
HETATM    4  C5  UNL     1      25.372   2.024  53.270  1.00  0.00    -0.015 C 
HETATM    5  C6  UNL     1      24.570   3.090  53.454  1.00  0.00     0.051 C 
HETATM    6  S1  UNL     1      23.105   2.977  52.422  1.00  0.00    -0.057 SA
HETATM    7  C7  UNL     1      21.975   4.257  52.322  1.00  0.00     0.264 C 
HETATM    8  O2  UNL     1      22.554   5.093  51.336  1.00  0.00    -0.318 OA
HETATM    9  C8  UNL     1      23.211   4.329  50.382  1.00  0.00     0.211 C 
HETATM   10  N2  UNL     1      23.671   3.135  50.552  1.00  0.00    -0.194 NA
ENDROOT
BRANCH   1  11
HETATM   11  O1  UNL     1      21.328   1.040  52.953  1.00  0.00    -0.298 OA
BRANCH  11  12
HETATM   12  C1  UNL     1      20.997  -0.139  53.609  1.00  0.00     0.250 C 
HETATM   13  N1  UNL     1      20.686   0.239  54.809  1.00  0.00    -0.289 NA
HETATM   14  H1  UNL     1      20.386  -0.389  55.576  1.00  0.00     0.188 HD
ENDBRANCH  11  12
ENDBRANCH   1  11
BRANCH   9  15
HETATM   15  S2  UNL     1      23.525   4.917  48.707  1.00  0.00    -0.080 SA
BRANCH  15  16
HETATM   16  C9  UNL     1      24.374   6.497  48.724  1.00  0.00     0.121 C 
BRANCH  16  17
HETATM   17  C10 UNL     1      25.832   6.245  48.547  1.00  0.00    -0.049 A 
HETATM   18  C11 UNL     1      26.666   7.204  48.016  1.00  0.00     0.008 A 
HETATM   19  C12 UNL     1      28.018   7.006  47.838  1.00  0.00     0.001 A 
HETATM   20  C13 UNL     1      28.577   5.791  48.206  1.00  0.00     0.000 A 
HETATM   21  C14 UNL     1      27.777   4.803  48.742  1.00  0.00     0.001 A 
HETATM   22  C15 UNL     1      26.423   5.048  48.904  1.00  0.00     0.008 A 
ENDBRANCH  16  17
ENDBRANCH  15  16
ENDBRANCH   9  15
TORSDOF 5
ENDMDL
MODEL 7
REMARK VINA RESULT:      -6.6      3.233      6.493
REMARK  5 active torsions:
REMARK  status: ('A' for Active; 'I' for Inactive)
REMARK    1  A    between atoms: C1_2  and  O1_3 
REMARK    2  A    between atoms: O1_3  and  C2_4 
REMARK    3  A    between atoms: C8_12  and  S2_13 
REMARK    4  A    between atoms: S2_13  and  C9_14 
REMARK    5  A    between atoms: C9_14  and  C10_15 
ROOT
HETATM    1  C2  UNL     1      23.540   5.185  49.633  1.00  0.00     0.116 C 
HETATM    2  C3  UNL     1      23.210   4.785  48.401  1.00  0.00     0.022 C 
HETATM    3  C4  UNL     1      22.515   3.478  48.229  1.00  0.00     0.058 C 
HETATM    4  C5  UNL     1      21.329   3.440  49.139  1.00  0.00    -0.015 C 
HETATM    5  C6  UNL     1      21.411   3.700  50.457  1.00  0.00     0.051 C 
HETATM    6  S1  UNL     1      23.098   4.088  50.932  1.00  0.00    -0.057 SA
HETATM    7  C7  UNL     1      23.542   4.312  52.569  1.00  0.00     0.264 C 
HETATM    8  O2  UNL     1      23.769   2.983  53.003  1.00  0.00    -0.318 OA
HETATM    9  C8  UNL     1      24.299   2.223  51.970  1.00  0.00     0.211 C 
HETATM   10  N2  UNL     1      24.175   2.466  50.709  1.00  0.00    -0.194 NA
ENDROOT
BRANCH   1  11
HETATM   11  O1  UNL     1      24.184   6.359  50.007  1.00  0.00    -0.298 OA
BRANCH  11  12
HETATM   12  C1  UNL     1      23.424   7.386  50.551  1.00  0.00     0.250 C 
HETATM   13  N1  UNL     1      24.157   7.852  51.512  1.00  0.00    -0.289 NA
HETATM   14  H1  UNL     1      23.897   8.635  52.137  1.00  0.00     0.188 HD
ENDBRANCH  11  12
ENDBRANCH   1  11
BRANCH   9  15
HETATM   15  S2  UNL     1      25.274   0.733  52.255  1.00  0.00    -0.080 SA
BRANCH  15  16
HETATM   16  C9  UNL     1      26.574   1.029  53.455  1.00  0.00     0.121 C 
BRANCH  16  17
HETATM   17  C10 UNL     1      27.550  -0.095  53.373  1.00  0.00    -0.049 A 
HETATM   18  C11 UNL     1      27.167  -1.346  52.945  1.00  0.00     0.008 A 
HETATM   19  C12 UNL     1      28.042  -2.408  52.857  1.00  0.00     0.001 A 
HETATM   20  C13 UNL     1      29.369  -2.220  53.213  1.00  0.00     0.000 A 
HETATM   21  C14 UNL     1      29.794  -0.982  53.646  1.00  0.00     0.001 A 
HETATM   22  C15 UNL     1      28.880   0.056  53.718  1.00  0.00     0.008 A 
ENDBRANCH  16  17
ENDBRANCH  15  16
ENDBRANCH   9  15
TORSDOF 5
ENDMDL
MODEL 8
REMARK VINA RESULT:      -6.5      2.865      6.534
REMARK  5 active torsions:
REMARK  status: ('A' for Active; 'I' for Inactive)
REMARK    1  A    between atoms: C1_2  and  O1_3 
REMARK    2  A    between atoms: O1_3  and  C2_4 
REMARK    3  A    between atoms: C8_12  and  S2_13 
REMARK    4  A    between atoms: S2_13  and  C9_14 
REMARK    5  A    between atoms: C9_14  and  C10_15 
ROOT
HETATM    1  C2  UNL     1      22.279   4.008  50.346  1.00  0.00     0.116 C 
HETATM    2  C3  UNL     1      22.859   4.017  49.142  1.00  0.00     0.022 C 
HETATM    3  C4  UNL     1      23.175   2.718  48.484  1.00  0.00     0.058 C 
HETATM    4  C5  UNL     1      21.944   1.869  48.478  1.00  0.00    -0.015 C 
HETATM    5  C6  UNL     1      21.227   1.613  49.588  1.00  0.00     0.051 C 
HETATM    6  S1  UNL     1      21.951   2.419  51.020  1.00  0.00    -0.057 SA
HETATM    7  C7  UNL     1      21.352   2.151  52.600  1.00  0.00     0.264 C 
HETATM    8  O2  UNL     1      22.025   0.965  52.980  1.00  0.00    -0.318 OA
HETATM    9  C8  UNL     1      23.299   0.936  52.429  1.00  0.00     0.211 C 
HETATM   10  N2  UNL     1      23.684   1.574  51.375  1.00  0.00    -0.194 NA
ENDROOT
BRANCH   1  11
HETATM   11  O1  UNL     1      21.904   5.098  51.123  1.00  0.00    -0.298 OA
BRANCH  11  12
HETATM   12  C1  UNL     1      21.301   6.180  50.495  1.00  0.00     0.250 C 
HETATM   13  N1  UNL     1      21.690   7.207  51.184  1.00  0.00    -0.289 NA
HETATM   14  H1  UNL     1      21.427   8.190  50.993  1.00  0.00     0.188 HD
ENDBRANCH  11  12
ENDBRANCH   1  11
BRANCH   9  15
HETATM   15  S2  UNL     1      24.646  -0.033  53.134  1.00  0.00    -0.080 SA
BRANCH  15  16
HETATM   16  C9  UNL     1      26.088  -0.009  52.067  1.00  0.00     0.121 C 
BRANCH  16  17
HETATM   17  C10 UNL     1      27.232   0.550  52.842  1.00  0.00    -0.049 A 
HETATM   18  C11 UNL     1      27.482   1.903  52.876  1.00  0.00     0.008 A 
HETATM   19  C12 UNL     1      28.530   2.455  53.581  1.00  0.00     0.001 A 
HETATM   20  C13 UNL     1      29.379   1.619  54.292  1.00  0.00     0.000 A 
HETATM   21  C14 UNL     1      29.164   0.256  54.285  1.00  0.00     0.001 A 
HETATM   22  C15 UNL     1      28.097  -0.252  53.563  1.00  0.00     0.008 A 
ENDBRANCH  16  17
ENDBRANCH  15  16
ENDBRANCH   9  15
TORSDOF 5
ENDMDL
MODEL 9
REMARK VINA RESULT:      -6.5      4.976      7.035
REMARK  5 active torsions:
REMARK  status: ('A' for Active; 'I' for Inactive)
REMARK    1  A    between atoms: C1_2  and  O1_3 
REMARK    2  A    between atoms: O1_3  and  C2_4 
REMARK    3  A    between atoms: C8_12  and  S2_13 
REMARK    4  A    between atoms: S2_13  and  C9_14 
REMARK    5  A    between atoms: C9_14  and  C10_15 
ROOT
HETATM    1  C2  UNL     1      25.461   8.672  48.696  1.00  0.00     0.116 C 
HETATM    2  C3  UNL     1      25.419   8.815  47.368  1.00  0.00     0.022 C 
HETATM    3  C4  UNL     1      24.609   7.856  46.565  1.00  0.00     0.058 C 
HETATM    4  C5  UNL     1      23.230   7.792  47.138  1.00  0.00    -0.015 C 
HETATM    5  C6  UNL     1      22.991   7.553  48.441  1.00  0.00     0.051 C 
HETATM    6  S1  UNL     1      24.526   7.334  49.346  1.00  0.00    -0.057 SA
HETATM    7  C7  UNL     1      24.541   6.863  50.991  1.00  0.00     0.264 C 
HETATM    8  O2  UNL     1      24.442   5.453  50.901  1.00  0.00    -0.318 OA
HETATM    9  C8  UNL     1      25.111   4.994  49.775  1.00  0.00     0.211 C 
HETATM   10  N2  UNL     1      25.368   5.681  48.713  1.00  0.00    -0.194 NA
ENDROOT
BRANCH   1  11
HETATM   11  O1  UNL     1      26.149   9.451  49.618  1.00  0.00    -0.298 OA
BRANCH  11  12
HETATM   12  C1  UNL     1      27.466   9.122  49.909  1.00  0.00     0.250 C 
HETATM   13  N1  UNL     1      27.632   9.517  51.133  1.00  0.00    -0.289 NA
HETATM   14  H1  UNL     1      28.508   9.426  51.678  1.00  0.00     0.188 HD
ENDBRANCH  11  12
ENDBRANCH   1  11
BRANCH   9  15
HETATM   15  S2  UNL     1      25.738   3.310  49.631  1.00  0.00    -0.080 SA
BRANCH  15  16
HETATM   16  C9  UNL     1      26.682   2.844  51.084  1.00  0.00     0.121 C 
BRANCH  16  17
HETATM   17  C10 UNL     1      25.943   1.761  51.793  1.00  0.00    -0.049 A 
HETATM   18  C11 UNL     1      26.557   0.574  52.126  1.00  0.00     0.008 A 
HETATM   19  C12 UNL     1      25.905  -0.449  52.781  1.00  0.00     0.001 A 
HETATM   20  C13 UNL     1      24.571  -0.287  53.125  1.00  0.00     0.000 A 
HETATM   21  C14 UNL     1      23.919   0.887  52.811  1.00  0.00     0.001 A 
HETATM   22  C15 UNL     1      24.615   1.887  52.153  1.00  0.00     0.008 A 
ENDBRANCH  16  17
ENDBRANCH  15  16
ENDBRANCH   9  15
TORSDOF 5
ENDMDL
