MODEL 1
REMARK VINA RESULT:      -8.0      0.000      0.000
REMARK  5 active torsions:
REMARK  status: ('A' for Active; 'I' for Inactive)
REMARK    1  A    between atoms: C2_2  and  C3_3 
REMARK    2  A    between atoms: C6_6  and  O1_7 
REMARK    3  A    between atoms: C7_8  and  N1_9 
REMARK    4  A    between atoms: C7_8  and  N2_12 
REMARK    5  A    between atoms: N1_9  and  C8_10 
ROOT
HETATM    1  C3  UNL     1      22.235   0.124  52.945  1.00  0.00     0.001 C 
HETATM    2  C4  UNL     1      23.448   0.304  53.504  1.00  0.00     0.000 C 
HETATM    3  C5  UNL     1      24.447   1.284  52.927  1.00  0.00     0.065 C 
HETATM    4  C6  UNL     1      23.700   2.535  52.669  1.00  0.00     0.174 C 
HETATM    5  C7  UNL     1      23.135   2.679  51.287  1.00  0.00     0.172 C 
HETATM    6  C19 UNL     1      22.515   1.407  50.767  1.00  0.00     0.178 C 
HETATM    7  N7  UNL     1      21.680   0.771  51.775  1.00  0.00    -0.389 N 
HETATM    8  H29 UNL     1      20.641   0.789  51.640  1.00  0.00     0.159 HD
ENDROOT
BRANCH   5   9
HETATM    9  N1  UNL     1      22.065   3.654  51.382  1.00  0.00    -0.337 N 
HETATM   10  H11 UNL     1      21.799   4.298  50.574  1.00  0.00     0.164 HD
BRANCH   9  11
HETATM   11  C8  UNL     1      21.237   3.905  52.501  1.00  0.00     0.350 C 
HETATM   12  O2  UNL     1      20.216   3.235  52.690  1.00  0.00    -0.284 OA
ENDBRANCH   9  11
ENDBRANCH   5   9
BRANCH   5  13
HETATM   13  N2  UNL     1      24.078   3.185  50.316  1.00  0.00    -0.228 N 
HETATM   14  C9  UNL     1      23.687   4.370  49.617  1.00  0.00     0.253 C 
HETATM   15  N3  UNL     1      23.244   3.747  48.581  1.00  0.00    -0.173 NA
HETATM   16  N4  UNL     1      22.690   4.364  47.457  1.00  0.00    -0.309 N 
HETATM   17  C10 UNL     1      22.376   5.768  47.631  1.00  0.00     0.170 C 
HETATM   18  H14 UNL     1      22.665   3.558  46.767  1.00  0.00     0.182 HD
HETATM   19  C11 UNL     1      23.595   6.543  47.966  1.00  0.00     0.011 C 
HETATM   20  C12 UNL     1      24.379   7.317  48.676  1.00  0.00     0.083 C 
HETATM   21  N5  UNL     1      25.641   7.990  48.787  1.00  0.00    -0.387 N 
HETATM   22  C13 UNL     1      25.254   9.400  48.906  1.00  0.00     0.149 C 
HETATM   23  C14 UNL     1      26.493   6.863  48.717  1.00  0.00     0.141 C 
HETATM   24  C15 UNL     1      27.740   6.692  48.308  1.00  0.00     0.021 C 
HETATM   25  C16 UNL     1      27.878   5.265  48.553  1.00  0.00    -0.022 C 
HETATM   26  C17 UNL     1      27.006   4.396  49.041  1.00  0.00     0.017 C 
HETATM   27  C18 UNL     1      26.311   3.213  49.531  1.00  0.00     0.139 C 
HETATM   28  N6  UNL     1      25.299   2.637  50.004  1.00  0.00    -0.181 NA
ENDBRANCH   5  13
BRANCH   4  29
HETATM   29  O1  UNL     1      24.505   3.630  52.967  1.00  0.00    -0.391 OA
HETATM   30  H10 UNL     1      24.920   4.060  52.180  1.00  0.00     0.210 HD
ENDBRANCH   4  29
BRANCH   1  31
HETATM   31  C2  UNL     1      21.303  -0.854  53.566  1.00  0.00     0.052 C 
HETATM   32  C1  UNL     1      21.923  -1.629  54.691  1.00  0.00     0.011 C 
ENDBRANCH   1  31
TORSDOF 5
ENDMDL
MODEL 2
REMARK VINA RESULT:      -7.4      2.379      4.629
REMARK  5 active torsions:
REMARK  status: ('A' for Active; 'I' for Inactive)
REMARK    1  A    between atoms: C2_2  and  C3_3 
REMARK    2  A    between atoms: C6_6  and  O1_7 
REMARK    3  A    between atoms: C7_8  and  N1_9 
REMARK    4  A    between atoms: C7_8  and  N2_12 
REMARK    5  A    between atoms: N1_9  and  C8_10 
ROOT
HETATM    1  C3  UNL     1      25.136   0.770  53.748  1.00  0.00     0.001 C 
HETATM    2  C4  UNL     1      24.117   0.154  53.116  1.00  0.00     0.000 C 
HETATM    3  C5  UNL     1      23.161   0.919  52.226  1.00  0.00     0.065 C 
HETATM    4  C6  UNL     1      23.998   1.771  51.353  1.00  0.00     0.174 C 
HETATM    5  C7  UNL     1      24.252   3.161  51.854  1.00  0.00     0.172 C 
HETATM    6  C19 UNL     1      24.555   3.211  53.331  1.00  0.00     0.178 C 
HETATM    7  N7  UNL     1      25.498   2.172  53.715  1.00  0.00    -0.389 N 
HETATM    8  H29 UNL     1      26.472   2.458  53.974  1.00  0.00     0.159 HD
ENDROOT
BRANCH   5   9
HETATM    9  N1  UNL     1      25.441   3.633  51.170  1.00  0.00    -0.337 N 
HETATM   10  H11 UNL     1      25.583   4.655  50.899  1.00  0.00     0.164 HD
BRANCH   9  11
HETATM   11  C8  UNL     1      26.555   2.860  50.766  1.00  0.00     0.350 C 
HETATM   12  O2  UNL     1      27.458   2.594  51.565  1.00  0.00    -0.284 OA
ENDBRANCH   9  11
ENDBRANCH   5   9
BRANCH   5  13
HETATM   13  N2  UNL     1      23.195   4.099  51.550  1.00  0.00    -0.228 N 
HETATM   14  C9  UNL     1      23.564   5.229  50.755  1.00  0.00     0.253 C 
HETATM   15  N3  UNL     1      23.722   6.023  51.757  1.00  0.00    -0.173 NA
HETATM   16  N4  UNL     1      24.104   7.363  51.659  1.00  0.00    -0.309 N 
HETATM   17  C10 UNL     1      24.597   7.757  50.355  1.00  0.00     0.170 C 
HETATM   18  H14 UNL     1      23.903   7.709  52.642  1.00  0.00     0.182 HD
HETATM   19  C11 UNL     1      23.561   7.548  49.315  1.00  0.00     0.011 C 
HETATM   20  C12 UNL     1      23.023   7.059  48.225  1.00  0.00     0.083 C 
HETATM   21  N5  UNL     1      21.889   7.013  47.347  1.00  0.00    -0.387 N 
HETATM   22  C13 UNL     1      22.443   7.472  46.068  1.00  0.00     0.149 C 
HETATM   23  C14 UNL     1      20.923   6.544  48.267  1.00  0.00     0.141 C 
HETATM   24  C15 UNL     1      19.609   6.673  48.349  1.00  0.00     0.021 C 
HETATM   25  C16 UNL     1      19.368   5.912  49.563  1.00  0.00    -0.022 C 
HETATM   26  C17 UNL     1      20.221   5.277  50.354  1.00  0.00     0.017 C 
HETATM   27  C18 UNL     1      20.866   4.501  51.404  1.00  0.00     0.139 C 
HETATM   28  N6  UNL     1      21.884   4.006  51.952  1.00  0.00    -0.181 NA
ENDBRANCH   5  13
BRANCH   4  29
HETATM   29  O1  UNL     1      23.441   1.822  50.078  1.00  0.00    -0.391 OA
HETATM   30  H10 UNL     1      22.453   1.793  50.061  1.00  0.00     0.210 HD
ENDBRANCH   4  29
BRANCH   1  31
HETATM   31  C2  UNL     1      26.038  -0.043  54.605  1.00  0.00     0.052 C 
HETATM   32  C1  UNL     1      27.480   0.355  54.490  1.00  0.00     0.011 C 
ENDBRANCH   1  31
TORSDOF 5
ENDMDL
MODEL 3
REMARK VINA RESULT:      -6.8      8.438     10.407
REMARK  5 active torsions:
REMARK  status: ('A' for Active; 'I' for Inactive)
REMARK    1  A    between atoms: C2_2  and  C3_3 
REMARK    2  A    between atoms: C6_6  and  O1_7 
REMARK    3  A    between atoms: C7_8  and  N1_9 
REMARK    4  A    between atoms: C7_8  and  N2_12 
REMARK    5  A    between atoms: N1_9  and  C8_10 
ROOT
HETATM    1  C3  UNL     1      32.993   3.841  47.308  1.00  0.00     0.001 C 
HETATM    2  C4  UNL     1      32.974   4.202  46.009  1.00  0.00     0.000 C 
HETATM    3  C5  UNL     1      32.797   5.646  45.592  1.00  0.00     0.065 C 
HETATM    4  C6  UNL     1      33.722   6.437  46.434  1.00  0.00     0.174 C 
HETATM    5  C7  UNL     1      33.135   6.989  47.699  1.00  0.00     0.172 C 
HETATM    6  C19 UNL     1      32.248   6.004  48.418  1.00  0.00     0.178 C 
HETATM    7  N7  UNL     1      32.858   4.684  48.476  1.00  0.00    -0.389 N 
HETATM    8  H29 UNL     1      33.209   4.342  49.402  1.00  0.00     0.159 HD
ENDROOT
BRANCH   5   9
HETATM    9  N1  UNL     1      34.252   7.265  48.582  1.00  0.00    -0.337 N 
HETATM   10  H11 UNL     1      34.228   8.037  49.319  1.00  0.00     0.164 HD
BRANCH   9  11
HETATM   11  C8  UNL     1      35.497   6.594  48.617  1.00  0.00     0.350 C 
HETATM   12  O2  UNL     1      35.647   5.581  49.307  1.00  0.00    -0.284 OA
ENDBRANCH   9  11
ENDBRANCH   5   9
BRANCH   5  13
HETATM   13  N2  UNL     1      32.424   8.235  47.523  1.00  0.00    -0.228 N 
HETATM   14  C9  UNL     1      31.007   8.135  47.364  1.00  0.00     0.253 C 
HETATM   15  N3  UNL     1      31.035   8.189  46.077  1.00  0.00    -0.173 NA
HETATM   16  N4  UNL     1      29.909   8.137  45.252  1.00  0.00    -0.309 N 
HETATM   17  C10 UNL     1      28.689   7.733  45.921  1.00  0.00     0.170 C 
HETATM   18  H14 UNL     1      30.320   8.430  44.319  1.00  0.00     0.182 HD
HETATM   19  C11 UNL     1      28.353   8.673  47.017  1.00  0.00     0.011 C 
HETATM   20  C12 UNL     1      28.106   9.060  48.244  1.00  0.00     0.083 C 
HETATM   21  N5  UNL     1      27.770  10.136  49.132  1.00  0.00    -0.387 N 
HETATM   22  C13 UNL     1      26.507   9.689  49.730  1.00  0.00     0.149 C 
HETATM   23  C14 UNL     1      28.881  10.976  48.882  1.00  0.00     0.141 C 
HETATM   24  C15 UNL     1      29.065  12.284  48.958  1.00  0.00     0.021 C 
HETATM   25  C16 UNL     1      30.457  12.354  48.546  1.00  0.00    -0.022 C 
HETATM   26  C17 UNL     1      31.292  11.386  48.196  1.00  0.00     0.017 C 
HETATM   27  C18 UNL     1      32.435  10.590  47.771  1.00  0.00     0.139 C 
HETATM   28  N6  UNL     1      32.980   9.492  47.491  1.00  0.00    -0.181 NA
ENDBRANCH   5  13
BRANCH   4  29
HETATM   29  O1  UNL     1      34.274   7.468  45.679  1.00  0.00    -0.391 OA
HETATM   30  H10 UNL     1      34.402   8.315  46.173  1.00  0.00     0.210 HD
ENDBRANCH   4  29
BRANCH   1  31
HETATM   31  C2  UNL     1      33.172   2.404  47.645  1.00  0.00     0.052 C 
HETATM   32  C1  UNL     1      32.402   1.485  46.743  1.00  0.00     0.011 C 
ENDBRANCH   1  31
TORSDOF 5
ENDMDL
MODEL 4
REMARK VINA RESULT:      -6.6      5.134      8.694
REMARK  5 active torsions:
REMARK  status: ('A' for Active; 'I' for Inactive)
REMARK    1  A    between atoms: C2_2  and  C3_3 
REMARK    2  A    between atoms: C6_6  and  O1_7 
REMARK    3  A    between atoms: C7_8  and  N1_9 
REMARK    4  A    between atoms: C7_8  and  N2_12 
REMARK    5  A    between atoms: N1_9  and  C8_10 
ROOT
HETATM    1  C3  UNL     1      24.639   8.319  49.728  1.00  0.00     0.001 C 
HETATM    2  C4  UNL     1      24.463   8.905  48.527  1.00  0.00     0.000 C 
HETATM    3  C5  UNL     1      25.638   9.379  47.699  1.00  0.00     0.065 C 
HETATM    4  C6  UNL     1      26.621   8.274  47.703  1.00  0.00     0.174 C 
HETATM    5  C7  UNL     1      27.668   8.342  48.775  1.00  0.00     0.172 C 
HETATM    6  C19 UNL     1      27.115   8.753  50.116  1.00  0.00     0.178 C 
HETATM    7  N7  UNL     1      25.880   8.045  50.421  1.00  0.00    -0.389 N 
HETATM    8  H29 UNL     1      25.902   7.313  51.170  1.00  0.00     0.159 HD
ENDROOT
BRANCH   5   9
HETATM    9  N1  UNL     1      28.180   6.994  48.932  1.00  0.00    -0.337 N 
HETATM   10  H11 UNL     1      29.127   6.785  49.379  1.00  0.00     0.164 HD
BRANCH   9  11
HETATM   11  C8  UNL     1      27.548   5.790  48.541  1.00  0.00     0.350 C 
HETATM   12  O2  UNL     1      28.177   4.727  48.525  1.00  0.00    -0.284 OA
ENDBRANCH   9  11
ENDBRANCH   5   9
BRANCH   5  13
HETATM   13  N2  UNL     1      28.796   9.182  48.443  1.00  0.00    -0.228 N 
HETATM   14  C9  UNL     1      30.050   8.515  48.274  1.00  0.00     0.253 C 
HETATM   15  N3  UNL     1      30.466   8.754  49.469  1.00  0.00    -0.173 NA
HETATM   16  N4  UNL     1      31.700   8.347  49.980  1.00  0.00    -0.309 N 
HETATM   17  C10 UNL     1      32.401   7.376  49.164  1.00  0.00     0.170 C 
HETATM   18  H14 UNL     1      31.753   8.913  50.875  1.00  0.00     0.182 HD
HETATM   19  C11 UNL     1      32.675   7.923  47.813  1.00  0.00     0.011 C 
HETATM   20  C12 UNL     1      32.629   7.995  46.505  1.00  0.00     0.083 C 
HETATM   21  N5  UNL     1      33.020   8.694  45.315  1.00  0.00    -0.387 N 
HETATM   22  C13 UNL     1      33.765   7.676  44.565  1.00  0.00     0.149 C 
HETATM   23  C14 UNL     1      32.435   9.950  45.599  1.00  0.00     0.141 C 
HETATM   24  C15 UNL     1      32.721  11.188  45.233  1.00  0.00     0.021 C 
HETATM   25  C16 UNL     1      31.666  11.897  45.939  1.00  0.00    -0.022 C 
HETATM   26  C17 UNL     1      30.702  11.431  46.720  1.00  0.00     0.017 C 
HETATM   27  C18 UNL     1      29.556  11.261  47.602  1.00  0.00     0.139 C 
HETATM   28  N6  UNL     1      28.775  10.547  48.281  1.00  0.00    -0.181 NA
ENDBRANCH   5  13
BRANCH   4  29
HETATM   29  O1  UNL     1      27.228   8.185  46.453  1.00  0.00    -0.391 OA
HETATM   30  H10 UNL     1      27.963   8.830  46.308  1.00  0.00     0.210 HD
ENDBRANCH   4  29
BRANCH   1  31
HETATM   31  C2  UNL     1      23.440   7.876  50.487  1.00  0.00     0.052 C 
HETATM   32  C1  UNL     1      23.643   6.573  51.204  1.00  0.00     0.011 C 
ENDBRANCH   1  31
TORSDOF 5
ENDMDL
MODEL 5
REMARK VINA RESULT:      -6.6      4.278      7.957
REMARK  5 active torsions:
REMARK  status: ('A' for Active; 'I' for Inactive)
REMARK    1  A    between atoms: C2_2  and  C3_3 
REMARK    2  A    between atoms: C6_6  and  O1_7 
REMARK    3  A    between atoms: C7_8  and  N1_9 
REMARK    4  A    between atoms: C7_8  and  N2_12 
REMARK    5  A    between atoms: N1_9  and  C8_10 
ROOT
HETATM    1  C3  UNL     1      24.530   5.842  49.370  1.00  0.00     0.001 C 
HETATM    2  C4  UNL     1      24.027   6.428  48.265  1.00  0.00     0.000 C 
HETATM    3  C5  UNL     1      24.651   7.676  47.678  1.00  0.00     0.065 C 
HETATM    4  C6  UNL     1      26.109   7.426  47.629  1.00  0.00     0.174 C 
HETATM    5  C7  UNL     1      26.887   7.898  48.821  1.00  0.00     0.172 C 
HETATM    6  C19 UNL     1      26.200   7.603  50.130  1.00  0.00     0.178 C 
HETATM    7  N7  UNL     1      25.673   6.247  50.160  1.00  0.00    -0.389 N 
HETATM    8  H29 UNL     1      26.145   5.547  50.780  1.00  0.00     0.159 HD
ENDROOT
BRANCH   5   9
HETATM    9  N1  UNL     1      28.127   7.144  48.824  1.00  0.00    -0.337 N 
HETATM   10  H11 UNL     1      29.002   7.475  49.338  1.00  0.00     0.164 HD
BRANCH   9  11
HETATM   11  C8  UNL     1      28.375   5.909  48.181  1.00  0.00     0.350 C 
HETATM   12  O2  UNL     1      28.106   4.842  48.744  1.00  0.00    -0.284 OA
ENDBRANCH   9  11
ENDBRANCH   5   9
BRANCH   5  13
HETATM   13  N2  UNL     1      27.249   9.296  48.772  1.00  0.00    -0.228 N 
HETATM   14  C9  UNL     1      28.622   9.583  48.496  1.00  0.00     0.253 C 
HETATM   15  N3  UNL     1      28.954   9.736  49.731  1.00  0.00    -0.173 NA
HETATM   16  N4  UNL     1      30.240  10.049  50.177  1.00  0.00    -0.309 N 
HETATM   17  C10 UNL     1      31.276   9.923  49.171  1.00  0.00     0.170 C 
HETATM   18  H14 UNL     1      30.054  10.303  51.190  1.00  0.00     0.182 HD
HETATM   19  C11 UNL     1      31.008  10.822  48.023  1.00  0.00     0.011 C 
HETATM   20  C12 UNL     1      30.772  11.155  46.778  1.00  0.00     0.083 C 
HETATM   21  N5  UNL     1      30.527  12.203  45.829  1.00  0.00    -0.387 N 
HETATM   22  C13 UNL     1      31.634  12.052  44.877  1.00  0.00     0.149 C 
HETATM   23  C14 UNL     1      29.351  12.742  46.401  1.00  0.00     0.141 C 
HETATM   24  C15 UNL     1      28.802  13.945  46.382  1.00  0.00     0.021 C 
HETATM   25  C16 UNL     1      27.626  13.684  47.196  1.00  0.00    -0.022 C 
HETATM   26  C17 UNL     1      27.227  12.565  47.783  1.00  0.00     0.017 C 
HETATM   27  C18 UNL     1      26.521  11.537  48.535  1.00  0.00     0.139 C 
HETATM   28  N6  UNL     1      26.404  10.363  48.968  1.00  0.00    -0.181 NA
ENDBRANCH   5  13
BRANCH   4  29
HETATM   29  O1  UNL     1      26.639   7.982  46.468  1.00  0.00    -0.391 OA
HETATM   30  H10 UNL     1      27.525   7.628  46.211  1.00  0.00     0.210 HD
ENDBRANCH   4  29
BRANCH   1  31
HETATM   31  C2  UNL     1      23.867   4.618  49.891  1.00  0.00     0.052 C 
HETATM   32  C1  UNL     1      23.187   3.813  48.822  1.00  0.00     0.011 C 
ENDBRANCH   1  31
TORSDOF 5
ENDMDL
MODEL 6
REMARK VINA RESULT:      -6.4      1.845      2.271
REMARK  5 active torsions:
REMARK  status: ('A' for Active; 'I' for Inactive)
REMARK    1  A    between atoms: C2_2  and  C3_3 
REMARK    2  A    between atoms: C6_6  and  O1_7 
REMARK    3  A    between atoms: C7_8  and  N1_9 
REMARK    4  A    between atoms: C7_8  and  N2_12 
REMARK    5  A    between atoms: N1_9  and  C8_10 
ROOT
HETATM    1  C3  UNL     1      19.352   0.133  52.278  1.00  0.00     0.001 C 
HETATM    2  C4  UNL     1      20.344   0.329  53.169  1.00  0.00     0.000 C 
HETATM    3  C5  UNL     1      21.549   1.183  52.837  1.00  0.00     0.065 C 
HETATM    4  C6  UNL     1      21.022   2.422  52.223  1.00  0.00     0.174 C 
HETATM    5  C7  UNL     1      20.926   2.414  50.727  1.00  0.00     0.172 C 
HETATM    6  C19 UNL     1      20.395   1.114  50.176  1.00  0.00     0.178 C 
HETATM    7  N7  UNL     1      19.241   0.649  50.930  1.00  0.00    -0.389 N 
HETATM    8  H29 UNL     1      18.299   0.696  50.472  1.00  0.00     0.159 HD
ENDROOT
BRANCH   5   9
HETATM    9  N1  UNL     1      19.962   3.439  50.374  1.00  0.00    -0.337 N 
HETATM   10  H11 UNL     1      19.866   3.823  49.382  1.00  0.00     0.164 HD
BRANCH   9  11
HETATM   11  C8  UNL     1      19.036   4.073  51.235  1.00  0.00     0.350 C 
HETATM   12  O2  UNL     1      18.095   3.438  51.722  1.00  0.00    -0.284 OA
ENDBRANCH   9  11
ENDBRANCH   5   9
BRANCH   5  13
HETATM   13  N2  UNL     1      22.160   2.751  50.056  1.00  0.00    -0.228 N 
HETATM   14  C9  UNL     1      22.076   3.769  49.055  1.00  0.00     0.253 C 
HETATM   15  N3  UNL     1      21.984   2.947  48.067  1.00  0.00    -0.173 NA
HETATM   16  N4  UNL     1      21.867   3.321  46.727  1.00  0.00    -0.309 N 
HETATM   17  C10 UNL     1      21.568   4.723  46.515  1.00  0.00     0.170 C 
HETATM   18  H14 UNL     1      22.045   2.398  46.236  1.00  0.00     0.182 HD
HETATM   19  C11 UNL     1      22.632   5.581  47.090  1.00  0.00     0.011 C 
HETATM   20  C12 UNL     1      23.160   6.499  47.863  1.00  0.00     0.083 C 
HETATM   21  N5  UNL     1      24.336   7.215  48.266  1.00  0.00    -0.387 N 
HETATM   22  C13 UNL     1      23.988   8.611  47.977  1.00  0.00     0.149 C 
HETATM   23  C14 UNL     1      25.117   6.120  48.703  1.00  0.00     0.141 C 
HETATM   24  C15 UNL     1      26.420   5.908  48.782  1.00  0.00     0.021 C 
HETATM   25  C16 UNL     1      26.412   4.559  49.324  1.00  0.00    -0.022 C 
HETATM   26  C17 UNL     1      25.392   3.776  49.644  1.00  0.00     0.017 C 
HETATM   27  C18 UNL     1      24.527   2.690  50.083  1.00  0.00     0.139 C 
HETATM   28  N6  UNL     1      23.393   2.187  50.286  1.00  0.00    -0.181 NA
ENDBRANCH   5  13
BRANCH   4  29
HETATM   29  O1  UNL     1      21.783   3.510  52.643  1.00  0.00    -0.391 OA
HETATM   30  H10 UNL     1      22.761   3.372  52.587  1.00  0.00     0.210 HD
ENDBRANCH   4  29
BRANCH   1  31
HETATM   31  C2  UNL     1      18.198  -0.716  52.672  1.00  0.00     0.052 C 
HETATM   32  C1  UNL     1      18.579  -1.847  53.582  1.00  0.00     0.011 C 
ENDBRANCH   1  31
TORSDOF 5
ENDMDL
MODEL 7
REMARK VINA RESULT:      -6.3      8.560     10.218
REMARK  5 active torsions:
REMARK  status: ('A' for Active; 'I' for Inactive)
REMARK    1  A    between atoms: C2_2  and  C3_3 
REMARK    2  A    between atoms: C6_6  and  O1_7 
REMARK    3  A    between atoms: C7_8  and  N1_9 
REMARK    4  A    between atoms: C7_8  and  N2_12 
REMARK    5  A    between atoms: N1_9  and  C8_10 
ROOT
HETATM    1  C3  UNL     1      33.345   3.974  47.514  1.00  0.00     0.001 C 
HETATM    2  C4  UNL     1      33.055   4.181  46.214  1.00  0.00     0.000 C 
HETATM    3  C5  UNL     1      32.174   5.330  45.773  1.00  0.00     0.065 C 
HETATM    4  C6  UNL     1      32.666   6.528  46.489  1.00  0.00     0.174 C 
HETATM    5  C7  UNL     1      31.984   6.830  47.791  1.00  0.00     0.172 C 
HETATM    6  C19 UNL     1      31.738   5.601  48.629  1.00  0.00     0.178 C 
HETATM    7  N7  UNL     1      32.910   4.739  48.664  1.00  0.00    -0.389 N 
HETATM    8  H29 UNL     1      33.452   4.677  49.558  1.00  0.00     0.159 HD
ENDROOT
BRANCH   5   9
HETATM    9  N1  UNL     1      32.895   7.671  48.544  1.00  0.00    -0.337 N 
HETATM   10  H11 UNL     1      32.566   8.327  49.318  1.00  0.00     0.164 HD
BRANCH   9  11
HETATM   11  C8  UNL     1      34.298   7.762  48.388  1.00  0.00     0.350 C 
HETATM   12  O2  UNL     1      35.039   6.890  48.855  1.00  0.00    -0.284 OA
ENDBRANCH   9  11
ENDBRANCH   5   9
BRANCH   5  13
HETATM   13  N2  UNL     1      30.751   7.570  47.651  1.00  0.00    -0.228 N 
HETATM   14  C9  UNL     1      30.829   8.977  47.891  1.00  0.00     0.253 C 
HETATM   15  N3  UNL     1      30.425   8.904  49.112  1.00  0.00    -0.173 NA
HETATM   16  N4  UNL     1      30.270   9.998  49.967  1.00  0.00    -0.309 N 
HETATM   17  C10 UNL     1      30.864  11.229  49.486  1.00  0.00     0.170 C 
HETATM   18  H14 UNL     1      29.726   9.563  50.766  1.00  0.00     0.182 HD
HETATM   19  C11 UNL     1      30.266  11.632  48.190  1.00  0.00     0.011 C 
HETATM   20  C12 UNL     1      30.233  11.934  46.916  1.00  0.00     0.083 C 
HETATM   21  N5  UNL     1      29.447  12.332  45.784  1.00  0.00    -0.387 N 
HETATM   22  C13 UNL     1      30.064  13.602  45.384  1.00  0.00     0.149 C 
HETATM   23  C14 UNL     1      28.551  11.238  45.747  1.00  0.00     0.141 C 
HETATM   24  C15 UNL     1      27.311  11.095  45.310  1.00  0.00     0.021 C 
HETATM   25  C16 UNL     1      27.105   9.692  45.628  1.00  0.00    -0.022 C 
HETATM   26  C17 UNL     1      27.925   8.817  46.193  1.00  0.00     0.017 C 
HETATM   27  C18 UNL     1      28.553   7.637  46.770  1.00  0.00     0.139 C 
HETATM   28  N6  UNL     1      29.523   7.050  47.315  1.00  0.00    -0.181 NA
ENDBRANCH   5  13
BRANCH   4  29
HETATM   29  O1  UNL     1      32.595   7.636  45.649  1.00  0.00    -0.391 OA
HETATM   30  H10 UNL     1      32.983   7.494  44.751  1.00  0.00     0.210 HD
ENDBRANCH   4  29
BRANCH   1  31
HETATM   31  C2  UNL     1      34.218   2.827  47.876  1.00  0.00     0.052 C 
HETATM   32  C1  UNL     1      33.465   1.679  48.482  1.00  0.00     0.011 C 
ENDBRANCH   1  31
TORSDOF 5
ENDMDL
MODEL 8
REMARK VINA RESULT:      -6.3      6.058      9.017
REMARK  5 active torsions:
REMARK  status: ('A' for Active; 'I' for Inactive)
REMARK    1  A    between atoms: C2_2  and  C3_3 
REMARK    2  A    between atoms: C6_6  and  O1_7 
REMARK    3  A    between atoms: C7_8  and  N1_9 
REMARK    4  A    between atoms: C7_8  and  N2_12 
REMARK    5  A    between atoms: N1_9  and  C8_10 
ROOT
HETATM    1  C3  UNL     1      26.436   8.130  49.755  1.00  0.00     0.001 C 
HETATM    2  C4  UNL     1      27.315   9.059  50.181  1.00  0.00     0.000 C 
HETATM    3  C5  UNL     1      28.615   9.312  49.448  1.00  0.00     0.065 C 
HETATM    4  C6  UNL     1      28.271   9.407  48.013  1.00  0.00     0.174 C 
HETATM    5  C7  UNL     1      28.369   8.128  47.236  1.00  0.00     0.172 C 
HETATM    6  C19 UNL     1      27.816   6.940  47.981  1.00  0.00     0.178 C 
HETATM    7  N7  UNL     1      26.541   7.252  48.608  1.00  0.00    -0.389 N 
HETATM    8  H29 UNL     1      25.674   6.822  48.207  1.00  0.00     0.159 HD
ENDROOT
BRANCH   5   9
HETATM    9  N1  UNL     1      27.543   8.301  46.057  1.00  0.00    -0.337 N 
HETATM   10  H11 UNL     1      27.753   7.816  45.129  1.00  0.00     0.164 HD
BRANCH   9  11
HETATM   11  C8  UNL     1      26.379   9.097  45.940  1.00  0.00     0.350 C 
HETATM   12  O2  UNL     1      25.268   8.631  46.214  1.00  0.00    -0.284 OA
ENDBRANCH   9  11
ENDBRANCH   5   9
BRANCH   5  13
HETATM   13  N2  UNL     1      29.703   7.824  46.770  1.00  0.00    -0.228 N 
HETATM   14  C9  UNL     1      30.423   6.840  47.517  1.00  0.00     0.253 C 
HETATM   15  N3  UNL     1      31.071   7.694  48.231  1.00  0.00    -0.173 NA
HETATM   16  N4  UNL     1      32.002   7.364  49.220  1.00  0.00    -0.309 N 
HETATM   17  C10 UNL     1      32.002   5.967  49.606  1.00  0.00     0.170 C 
HETATM   18  H14 UNL     1      32.457   8.304  49.400  1.00  0.00     0.182 HD
HETATM   19  C11 UNL     1      32.311   5.099  48.444  1.00  0.00     0.011 C 
HETATM   20  C12 UNL     1      32.117   4.161  47.550  1.00  0.00     0.083 C 
HETATM   21  N5  UNL     1      32.624   3.442  46.417  1.00  0.00    -0.387 N 
HETATM   22  C13 UNL     1      32.650   2.054  46.892  1.00  0.00     0.149 C 
HETATM   23  C14 UNL     1      32.787   4.528  45.526  1.00  0.00     0.141 C 
HETATM   24  C15 UNL     1      33.592   4.749  44.500  1.00  0.00     0.021 C 
HETATM   25  C16 UNL     1      33.141   6.078  44.122  1.00  0.00    -0.022 C 
HETATM   26  C17 UNL     1      32.199   6.842  44.656  1.00  0.00     0.017 C 
HETATM   27  C18 UNL     1      31.261   7.905  44.989  1.00  0.00     0.139 C 
HETATM   28  N6  UNL     1      30.338   8.390  45.690  1.00  0.00    -0.181 NA
ENDBRANCH   5  13
BRANCH   4  29
HETATM   29  O1  UNL     1      29.052  10.389  47.410  1.00  0.00    -0.391 OA
HETATM   30  H10 UNL     1      28.557  11.205  47.152  1.00  0.00     0.210 HD
ENDBRANCH   4  29
BRANCH   1  31
HETATM   31  C2  UNL     1      25.177   7.936  50.522  1.00  0.00     0.052 C 
HETATM   32  C1  UNL     1      23.950   8.331  49.754  1.00  0.00     0.011 C 
ENDBRANCH   1  31
TORSDOF 5
ENDMDL
MODEL 9
REMARK VINA RESULT:      -6.2     23.630     25.635
REMARK  5 active torsions:
REMARK  status: ('A' for Active; 'I' for Inactive)
REMARK    1  A    between atoms: C2_2  and  C3_3 
REMARK    2  A    between atoms: C6_6  and  O1_7 
REMARK    3  A    between atoms: C7_8  and  N1_9 
REMARK    4  A    between atoms: C7_8  and  N2_12 
REMARK    5  A    between atoms: N1_9  and  C8_10 
ROOT
HETATM    1  C3  UNL     1      39.017  -3.330  67.626  1.00  0.00     0.001 C 
HETATM    2  C4  UNL     1      38.203  -2.474  66.977  1.00  0.00     0.000 C 
HETATM    3  C5  UNL     1      38.043  -1.038  67.430  1.00  0.00     0.065 C 
HETATM    4  C6  UNL     1      39.410  -0.524  67.669  1.00  0.00     0.174 C 
HETATM    5  C7  UNL     1      39.914  -0.651  69.076  1.00  0.00     0.172 C 
HETATM    6  C19 UNL     1      39.577  -1.979  69.706  1.00  0.00     0.178 C 
HETATM    7  N7  UNL     1      39.836  -3.082  68.793  1.00  0.00    -0.389 N 
HETATM    8  H29 UNL     1      40.648  -3.712  68.997  1.00  0.00     0.159 HD
ENDROOT
BRANCH   5   9
HETATM    9  N1  UNL     1      41.361  -0.583  68.999  1.00  0.00    -0.337 N 
HETATM   10  H11 UNL     1      41.967  -0.274  69.821  1.00  0.00     0.164 HD
BRANCH   9  11
HETATM   11  C8  UNL     1      42.172  -0.895  67.883  1.00  0.00     0.350 C 
HETATM   12  O2  UNL     1      42.535  -2.058  67.676  1.00  0.00    -0.284 OA
ENDBRANCH   9  11
ENDBRANCH   5   9
BRANCH   5  13
HETATM   13  N2  UNL     1      39.490   0.417  69.951  1.00  0.00    -0.228 N 
HETATM   14  C9  UNL     1      40.519   1.290  70.423  1.00  0.00     0.253 C 
HETATM   15  N3  UNL     1      40.673   0.684  71.549  1.00  0.00    -0.173 NA
HETATM   16  N4  UNL     1      41.584   1.059  72.539  1.00  0.00    -0.309 N 
HETATM   17  C10 UNL     1      42.573   2.030  72.114  1.00  0.00     0.170 C 
HETATM   18  H14 UNL     1      41.252   0.476  73.361  1.00  0.00     0.182 HD
HETATM   19  C11 UNL     1      41.920   3.281  71.660  1.00  0.00     0.011 C 
HETATM   20  C12 UNL     1      41.595   4.244  70.832  1.00  0.00     0.083 C 
HETATM   21  N5  UNL     1      40.876   5.467  70.618  1.00  0.00    -0.387 N 
HETATM   22  C13 UNL     1      41.935   6.412  70.245  1.00  0.00     0.149 C 
HETATM   23  C14 UNL     1      39.570   5.002  70.897  1.00  0.00     0.141 C 
HETATM   24  C15 UNL     1      38.473   5.590  71.344  1.00  0.00     0.021 C 
HETATM   25  C16 UNL     1      37.576   4.447  71.359  1.00  0.00    -0.022 C 
HETATM   26  C17 UNL     1      37.800   3.184  71.023  1.00  0.00     0.017 C 
HETATM   27  C18 UNL     1      37.707   1.758  70.745  1.00  0.00     0.139 C 
HETATM   28  N6  UNL     1      38.205   0.666  70.370  1.00  0.00    -0.181 NA
ENDBRANCH   5  13
BRANCH   4  29
HETATM   29  O1  UNL     1      39.487   0.804  67.257  1.00  0.00    -0.391 OA
HETATM   30  H10 UNL     1      39.977   1.397  67.877  1.00  0.00     0.210 HD
ENDBRANCH   4  29
BRANCH   1  31
HETATM   31  C2  UNL     1      39.127  -4.726  67.124  1.00  0.00     0.052 C 
HETATM   32  C1  UNL     1      40.300  -5.468  67.695  1.00  0.00     0.011 C 
ENDBRANCH   1  31
TORSDOF 5
ENDMDL
