MODEL 1
REMARK VINA RESULT:      -7.2      0.000      0.000
REMARK  5 active torsions:
REMARK  status: ('A' for Active; 'I' for Inactive)
REMARK    1  A    between atoms: N1_1  and  C1_2 
REMARK    2  A    between atoms: C1_2  and  C2_3 
REMARK    3  A    between atoms: C5_6  and  C6_7 
REMARK    4  A    between atoms: C11_13  and  C12_14 
REMARK    5  A    between atoms: C12_14  and  N3_15 
ROOT
HETATM    1  C6  UNL     1      22.908   3.168  51.472  1.00  0.00     0.132 C 
HETATM    2  C7  UNL     1      21.772   2.742  52.404  1.00  0.00     0.012 C 
HETATM    3  C8  UNL     1      21.005   1.649  52.392  1.00  0.00     0.000 C 
HETATM    4  C9  UNL     1      21.058   0.536  51.448  1.00  0.00     0.017 C 
HETATM    5  C10 UNL     1      21.586   0.627  50.239  1.00  0.00     0.085 C 
HETATM    6  N2  UNL     1      22.194   1.773  49.604  1.00  0.00    -0.368 N 
HETATM    7  C11 UNL     1      22.311   3.144  50.051  1.00  0.00     0.184 C 
HETATM    8  N4  UNL     1      23.047   3.849  49.092  1.00  0.00    -0.246 NA
HETATM    9  C13 UNL     1      23.845   4.687  48.626  1.00  0.00     0.229 C 
HETATM   10  N5  UNL     1      24.630   5.673  49.343  1.00  0.00    -0.253 NA
HETATM   11  C14 UNL     1      24.564   6.069  50.604  1.00  0.00     0.136 C 
HETATM   12  C15 UNL     1      23.674   5.634  51.679  1.00  0.00     0.131 C 
HETATM   13  N6  UNL     1      23.113   4.513  51.900  1.00  0.00    -0.279 NA
HETATM   14  H11 UNL     1      22.583   1.444  48.666  1.00  0.00     0.161 HD
ENDROOT
BRANCH   1  15
HETATM   15  C5  UNL     1      24.002   2.289  51.641  1.00  0.00     0.104 C 
HETATM   16  C4  UNL     1      24.991   1.493  51.793  1.00  0.00    -0.098 C 
HETATM   17  C3  UNL     1      25.706   0.929  51.925  1.00  0.00    -0.092 C 
HETATM   18  C2  UNL     1      26.749   0.115  52.147  1.00  0.00     0.162 C 
HETATM   19  C18 UNL     1      26.531   1.056  53.772  1.00  0.00     0.144 C 
HETATM   20  C17 UNL     1      25.059   1.576  53.942  1.00  0.00     0.081 C 
HETATM   21  O1  UNL     1      27.514   1.149  54.479  1.00  0.00    -0.297 OA
HETATM   22  C16 UNL     1      24.574   2.800  53.268  1.00  0.00     0.027 C 
BRANCH  18  23
HETATM   23  C1  UNL     1      26.519  -1.207  52.805  1.00  0.00     0.291 C 
BRANCH  23  24
HETATM   24  N1  UNL     1      27.811  -1.806  53.097  1.00  0.00     0.079 N 
HETATM   25  H1  UNL     1      28.538  -1.106  53.303  1.00  0.00     0.312 HD
HETATM   26  H2  UNL     1      28.126  -2.463  52.364  1.00  0.00     0.312 HD
ENDBRANCH  23  24
ENDBRANCH  18  23
ENDBRANCH   1  15
BRANCH   7  27
HETATM   27  C12 UNL     1      20.900   3.714  50.107  1.00  0.00     0.325 C 
BRANCH  27  28
HETATM   28  N3  UNL     1      20.359   3.669  48.767  1.00  0.00     0.082 N 
HETATM   29  H14 UNL     1      20.028   4.581  48.409  1.00  0.00     0.312 HD
HETATM   30  H15 UNL     1      20.933   3.114  48.097  1.00  0.00     0.312 HD
ENDBRANCH  27  28
ENDBRANCH   7  27
TORSDOF 5
ENDMDL
MODEL 2
REMARK VINA RESULT:      -6.7      1.668      3.898
REMARK  5 active torsions:
REMARK  status: ('A' for Active; 'I' for Inactive)
REMARK    1  A    between atoms: N1_1  and  C1_2 
REMARK    2  A    between atoms: C1_2  and  C2_3 
REMARK    3  A    between atoms: C5_6  and  C6_7 
REMARK    4  A    between atoms: C11_13  and  C12_14 
REMARK    5  A    between atoms: C12_14  and  N3_15 
ROOT
HETATM    1  C6  UNL     1      23.229   2.770  50.771  1.00  0.00     0.132 C 
HETATM    2  C7  UNL     1      23.930   3.199  49.480  1.00  0.00     0.012 C 
HETATM    3  C8  UNL     1      24.618   4.307  49.194  1.00  0.00     0.000 C 
HETATM    4  C9  UNL     1      24.888   5.438  50.078  1.00  0.00     0.017 C 
HETATM    5  C10 UNL     1      24.163   5.723  51.145  1.00  0.00     0.085 C 
HETATM    6  N2  UNL     1      23.003   5.029  51.658  1.00  0.00    -0.368 N 
HETATM    7  C11 UNL     1      22.257   3.915  51.116  1.00  0.00     0.184 C 
HETATM    8  N4  UNL     1      21.255   3.579  52.034  1.00  0.00    -0.246 NA
HETATM    9  C13 UNL     1      20.470   2.861  52.684  1.00  0.00     0.229 C 
HETATM   10  N5  UNL     1      20.306   1.422  52.615  1.00  0.00    -0.253 NA
HETATM   11  C14 UNL     1      20.776   0.546  51.742  1.00  0.00     0.136 C 
HETATM   12  C15 UNL     1      21.616   0.754  50.564  1.00  0.00     0.131 C 
HETATM   13  N6  UNL     1      22.508   1.628  50.314  1.00  0.00    -0.279 NA
HETATM   14  H11 UNL     1      22.740   5.496  52.581  1.00  0.00     0.161 HD
ENDROOT
BRANCH   1  15
HETATM   15  C5  UNL     1      24.201   2.533  51.769  1.00  0.00     0.104 C 
HETATM   16  C4  UNL     1      25.080   2.319  52.673  1.00  0.00    -0.098 C 
HETATM   17  C3  UNL     1      25.708   2.143  53.323  1.00  0.00    -0.092 C 
HETATM   18  C2  UNL     1      26.616   1.854  54.267  1.00  0.00     0.162 C 
HETATM   19  C18 UNL     1      25.829   0.188  53.846  1.00  0.00     0.144 C 
HETATM   20  C17 UNL     1      25.219   0.190  52.399  1.00  0.00     0.081 C 
HETATM   21  O1  UNL     1      25.880  -0.668  54.705  1.00  0.00    -0.297 OA
HETATM   22  C16 UNL     1      23.900   0.791  52.101  1.00  0.00     0.027 C 
BRANCH  18  23
HETATM   23  C1  UNL     1      27.975   1.390  53.857  1.00  0.00     0.291 C 
BRANCH  23  24
HETATM   24  N1  UNL     1      28.873   2.534  53.864  1.00  0.00     0.079 N 
HETATM   25  H1  UNL     1      29.273   2.722  54.794  1.00  0.00     0.312 HD
HETATM   26  H2  UNL     1      28.443   3.387  53.467  1.00  0.00     0.312 HD
ENDBRANCH  23  24
ENDBRANCH  18  23
ENDBRANCH   1  15
BRANCH   7  27
HETATM   27  C12 UNL     1      21.604   4.402  49.829  1.00  0.00     0.325 C 
BRANCH  27  28
HETATM   28  N3  UNL     1      20.711   5.486  50.178  1.00  0.00     0.082 N 
HETATM   29  H14 UNL     1      19.767   5.412  49.763  1.00  0.00     0.312 HD
HETATM   30  H15 UNL     1      20.731   5.742  51.188  1.00  0.00     0.312 HD
ENDBRANCH  27  28
ENDBRANCH   7  27
TORSDOF 5
ENDMDL
MODEL 3
REMARK VINA RESULT:      -6.4      2.979      5.077
REMARK  5 active torsions:
REMARK  status: ('A' for Active; 'I' for Inactive)
REMARK    1  A    between atoms: N1_1  and  C1_2 
REMARK    2  A    between atoms: C1_2  and  C2_3 
REMARK    3  A    between atoms: C5_6  and  C6_7 
REMARK    4  A    between atoms: C11_13  and  C12_14 
REMARK    5  A    between atoms: C12_14  and  N3_15 
ROOT
HETATM    1  C6  UNL     1      22.868   3.755  50.514  1.00  0.00     0.132 C 
HETATM    2  C7  UNL     1      24.109   2.905  50.234  1.00  0.00     0.012 C 
HETATM    3  C8  UNL     1      25.036   2.423  51.067  1.00  0.00     0.000 C 
HETATM    4  C9  UNL     1      25.102   2.591  52.516  1.00  0.00     0.017 C 
HETATM    5  C10 UNL     1      24.497   3.569  53.167  1.00  0.00     0.085 C 
HETATM    6  N2  UNL     1      23.681   4.637  52.637  1.00  0.00    -0.368 N 
HETATM    7  C11 UNL     1      23.378   4.998  51.270  1.00  0.00     0.184 C 
HETATM    8  N4  UNL     1      22.487   6.077  51.296  1.00  0.00    -0.246 NA
HETATM    9  C13 UNL     1      21.543   6.811  50.943  1.00  0.00     0.229 C 
HETATM   10  N5  UNL     1      20.656   6.649  49.807  1.00  0.00    -0.253 NA
HETATM   11  C14 UNL     1      20.732   5.830  48.770  1.00  0.00     0.136 C 
HETATM   12  C15 UNL     1      21.740   4.824  48.442  1.00  0.00     0.131 C 
HETATM   13  N6  UNL     1      22.482   4.105  49.187  1.00  0.00    -0.279 NA
HETATM   14  H11 UNL     1      23.295   5.182  53.469  1.00  0.00     0.161 HD
ENDROOT
BRANCH   1  15
HETATM   15  C5  UNL     1      21.937   2.988  51.251  1.00  0.00     0.104 C 
HETATM   16  C4  UNL     1      21.095   2.295  51.918  1.00  0.00    -0.098 C 
HETATM   17  C3  UNL     1      20.484   1.784  52.379  1.00  0.00    -0.092 C 
HETATM   18  C2  UNL     1      19.589   1.020  53.024  1.00  0.00     0.162 C 
HETATM   19  C18 UNL     1      19.606   0.338  51.262  1.00  0.00     0.144 C 
HETATM   20  C17 UNL     1      20.963   0.652  50.537  1.00  0.00     0.081 C 
HETATM   21  O1  UNL     1      18.606  -0.246  50.899  1.00  0.00    -0.297 OA
HETATM   22  C16 UNL     1      21.248   1.973  49.936  1.00  0.00     0.027 C 
BRANCH  18  23
HETATM   23  C1  UNL     1      20.026  -0.285  53.605  1.00  0.00     0.291 C 
BRANCH  23  24
HETATM   24  N1  UNL     1      20.704  -0.024  54.864  1.00  0.00     0.079 N 
HETATM   25  H1  UNL     1      21.629  -0.473  54.920  1.00  0.00     0.312 HD
HETATM   26  H2  UNL     1      20.127  -0.260  55.690  1.00  0.00     0.312 HD
ENDBRANCH  23  24
ENDBRANCH  18  23
ENDBRANCH   1  15
BRANCH   7  27
HETATM   27  C12 UNL     1      24.684   5.453  50.630  1.00  0.00     0.325 C 
BRANCH  27  28
HETATM   28  N3  UNL     1      25.033   6.729  51.214  1.00  0.00     0.082 N 
HETATM   29  H14 UNL     1      24.865   6.793  52.233  1.00  0.00     0.312 HD
HETATM   30  H15 UNL     1      25.951   7.104  50.893  1.00  0.00     0.312 HD
ENDBRANCH  27  28
ENDBRANCH   7  27
TORSDOF 5
ENDMDL
MODEL 4
REMARK VINA RESULT:      -6.4      9.401     11.846
REMARK  5 active torsions:
REMARK  status: ('A' for Active; 'I' for Inactive)
REMARK    1  A    between atoms: N1_1  and  C1_2 
REMARK    2  A    between atoms: C1_2  and  C2_3 
REMARK    3  A    between atoms: C5_6  and  C6_7 
REMARK    4  A    between atoms: C11_13  and  C12_14 
REMARK    5  A    between atoms: C12_14  and  N3_15 
ROOT
HETATM    1  C6  UNL     1      32.166   7.120  47.609  1.00  0.00     0.132 C 
HETATM    2  C7  UNL     1      33.440   7.761  48.164  1.00  0.00     0.012 C 
HETATM    3  C8  UNL     1      34.617   7.216  48.482  1.00  0.00     0.000 C 
HETATM    4  C9  UNL     1      35.004   5.812  48.376  1.00  0.00     0.017 C 
HETATM    5  C10 UNL     1      34.137   4.815  48.338  1.00  0.00     0.085 C 
HETATM    6  N2  UNL     1      32.694   4.872  48.391  1.00  0.00    -0.368 N 
HETATM    7  C11 UNL     1      31.804   5.993  48.597  1.00  0.00     0.184 C 
HETATM    8  N4  UNL     1      30.489   5.524  48.497  1.00  0.00    -0.246 NA
HETATM    9  C13 UNL     1      29.272   5.530  48.225  1.00  0.00     0.229 C 
HETATM   10  N5  UNL     1      28.493   6.595  47.623  1.00  0.00    -0.253 NA
HETATM   11  C14 UNL     1      28.803   7.862  47.398  1.00  0.00     0.136 C 
HETATM   12  C15 UNL     1      30.036   8.591  47.685  1.00  0.00     0.131 C 
HETATM   13  N6  UNL     1      31.248   8.203  47.735  1.00  0.00    -0.279 NA
HETATM   14  H11 UNL     1      32.334   3.877  48.248  1.00  0.00     0.161 HD
ENDROOT
BRANCH   1  15
HETATM   15  C5  UNL     1      32.412   6.662  46.295  1.00  0.00     0.104 C 
HETATM   16  C4  UNL     1      32.634   6.248  45.106  1.00  0.00    -0.098 C 
HETATM   17  C3  UNL     1      32.799   5.971  44.244  1.00  0.00    -0.092 C 
HETATM   18  C2  UNL     1      33.053   5.597  42.980  1.00  0.00     0.162 C 
HETATM   19  C18 UNL     1      33.470   7.440  43.018  1.00  0.00     0.144 C 
HETATM   20  C17 UNL     1      33.831   7.918  44.470  1.00  0.00     0.081 C 
HETATM   21  O1  UNL     1      33.416   8.029  41.958  1.00  0.00    -0.297 OA
HETATM   22  C16 UNL     1      32.793   8.220  45.480  1.00  0.00     0.027 C 
BRANCH  18  23
HETATM   23  C1  UNL     1      34.446   5.222  42.594  1.00  0.00     0.291 C 
BRANCH  23  24
HETATM   24  N1  UNL     1      34.469   4.948  41.166  1.00  0.00     0.079 N 
HETATM   25  H1  UNL     1      35.054   5.613  40.641  1.00  0.00     0.312 HD
HETATM   26  H2  UNL     1      33.524   4.879  40.753  1.00  0.00     0.312 HD
ENDBRANCH  23  24
ENDBRANCH  18  23
ENDBRANCH   1  15
BRANCH   7  27
HETATM   27  C12 UNL     1      32.043   6.495  50.014  1.00  0.00     0.325 C 
BRANCH  27  28
HETATM   28  N3  UNL     1      31.590   5.464  50.923  1.00  0.00     0.082 N 
HETATM   29  H14 UNL     1      32.247   5.257  51.696  1.00  0.00     0.312 HD
HETATM   30  H15 UNL     1      30.592   5.558  51.205  1.00  0.00     0.312 HD
ENDBRANCH  27  28
ENDBRANCH   7  27
TORSDOF 5
ENDMDL
MODEL 5
REMARK VINA RESULT:      -6.3      2.116      4.283
REMARK  5 active torsions:
REMARK  status: ('A' for Active; 'I' for Inactive)
REMARK    1  A    between atoms: N1_1  and  C1_2 
REMARK    2  A    between atoms: C1_2  and  C2_3 
REMARK    3  A    between atoms: C5_6  and  C6_7 
REMARK    4  A    between atoms: C11_13  and  C12_14 
REMARK    5  A    between atoms: C12_14  and  N3_15 
ROOT
HETATM    1  C6  UNL     1      23.228   4.637  49.532  1.00  0.00     0.132 C 
HETATM    2  C7  UNL     1      24.388   5.356  48.840  1.00  0.00     0.012 C 
HETATM    3  C8  UNL     1      25.212   6.306  49.290  1.00  0.00     0.000 C 
HETATM    4  C9  UNL     1      25.216   6.925  50.613  1.00  0.00     0.017 C 
HETATM    5  C10 UNL     1      24.168   6.937  51.418  1.00  0.00     0.085 C 
HETATM    6  N2  UNL     1      22.854   6.379  51.197  1.00  0.00    -0.368 N 
HETATM    7  C11 UNL     1      22.284   5.751  50.025  1.00  0.00     0.184 C 
HETATM    8  N4  UNL     1      20.991   5.325  50.350  1.00  0.00    -0.246 NA
HETATM    9  C13 UNL     1      19.970   4.608  50.348  1.00  0.00     0.229 C 
HETATM   10  N5  UNL     1      19.738   3.380  49.614  1.00  0.00    -0.253 NA
HETATM   11  C14 UNL     1      20.435   2.819  48.637  1.00  0.00     0.136 C 
HETATM   12  C15 UNL     1      21.666   3.266  47.988  1.00  0.00     0.131 C 
HETATM   13  N6  UNL     1      22.647   3.947  48.429  1.00  0.00    -0.279 NA
HETATM   14  H11 UNL     1      22.301   6.506  52.101  1.00  0.00     0.161 HD
ENDROOT
BRANCH   1  15
HETATM   15  C5  UNL     1      23.739   3.828  50.573  1.00  0.00     0.104 C 
HETATM   16  C4  UNL     1      24.201   3.096  51.514  1.00  0.00    -0.098 C 
HETATM   17  C3  UNL     1      24.549   2.562  52.177  1.00  0.00    -0.092 C 
HETATM   18  C2  UNL     1      25.082   1.774  53.124  1.00  0.00     0.162 C 
HETATM   19  C18 UNL     1      26.178   1.496  51.610  1.00  0.00     0.144 C 
HETATM   20  C17 UNL     1      26.125   2.722  50.629  1.00  0.00     0.081 C 
HETATM   21  O1  UNL     1      26.779   0.443  51.563  1.00  0.00    -0.297 OA
HETATM   22  C16 UNL     1      25.010   2.923  49.678  1.00  0.00     0.027 C 
BRANCH  18  23
HETATM   23  C1  UNL     1      26.225   2.283  53.940  1.00  0.00     0.291 C 
BRANCH  23  24
HETATM   24  N1  UNL     1      26.695   1.205  54.795  1.00  0.00     0.079 N 
HETATM   25  H1  UNL     1      27.693   0.993  54.658  1.00  0.00     0.312 HD
HETATM   26  H2  UNL     1      26.120   0.349  54.718  1.00  0.00     0.312 HD
ENDBRANCH  23  24
ENDBRANCH  18  23
ENDBRANCH   1  15
BRANCH   7  27
HETATM   27  C12 UNL     1      22.193   6.823  48.947  1.00  0.00     0.325 C 
BRANCH  27  28
HETATM   28  N3  UNL     1      21.329   7.870  49.446  1.00  0.00     0.082 N 
HETATM   29  H14 UNL     1      20.448   7.986  48.916  1.00  0.00     0.312 HD
HETATM   30  H15 UNL     1      21.225   7.875  50.483  1.00  0.00     0.312 HD
ENDBRANCH  27  28
ENDBRANCH   7  27
TORSDOF 5
ENDMDL
MODEL 6
REMARK VINA RESULT:      -6.3      2.765      5.854
REMARK  5 active torsions:
REMARK  status: ('A' for Active; 'I' for Inactive)
REMARK    1  A    between atoms: N1_1  and  C1_2 
REMARK    2  A    between atoms: C1_2  and  C2_3 
REMARK    3  A    between atoms: C5_6  and  C6_7 
REMARK    4  A    between atoms: C11_13  and  C12_14 
REMARK    5  A    between atoms: C12_14  and  N3_15 
ROOT
HETATM    1  C6  UNL     1      24.612   3.230  50.525  1.00  0.00     0.132 C 
HETATM    2  C7  UNL     1      23.988   2.798  49.197  1.00  0.00     0.012 C 
HETATM    3  C8  UNL     1      22.814   3.116  48.646  1.00  0.00     0.000 C 
HETATM    4  C9  UNL     1      21.784   3.995  49.194  1.00  0.00     0.017 C 
HETATM    5  C10 UNL     1      21.676   4.282  50.479  1.00  0.00     0.085 C 
HETATM    6  N2  UNL     1      22.494   3.823  51.578  1.00  0.00    -0.368 N 
HETATM    7  C11 UNL     1      23.577   2.865  51.608  1.00  0.00     0.184 C 
HETATM    8  N4  UNL     1      24.081   2.825  52.913  1.00  0.00    -0.246 NA
HETATM    9  C13 UNL     1      24.919   2.721  53.831  1.00  0.00     0.229 C 
HETATM   10  N5  UNL     1      26.346   2.491  53.721  1.00  0.00    -0.253 NA
HETATM   11  C14 UNL     1      27.081   2.141  52.676  1.00  0.00     0.136 C 
HETATM   12  C15 UNL     1      26.681   1.876  51.296  1.00  0.00     0.131 C 
HETATM   13  N6  UNL     1      25.731   2.350  50.592  1.00  0.00    -0.279 NA
HETATM   14  H11 UNL     1      22.160   4.333  52.454  1.00  0.00     0.161 HD
ENDROOT
BRANCH   1  15
HETATM   15  C5  UNL     1      24.909   4.611  50.470  1.00  0.00     0.104 C 
HETATM   16  C4  UNL     1      25.178   5.860  50.421  1.00  0.00    -0.098 C 
HETATM   17  C3  UNL     1      25.389   6.754  50.370  1.00  0.00    -0.092 C 
HETATM   18  C2  UNL     1      25.716   8.052  50.271  1.00  0.00     0.162 C 
HETATM   19  C18 UNL     1      26.875   7.181  49.059  1.00  0.00     0.144 C 
HETATM   20  C17 UNL     1      26.274   5.814  48.571  1.00  0.00     0.081 C 
HETATM   21  O1  UNL     1      27.915   7.751  48.800  1.00  0.00    -0.297 OA
HETATM   22  C16 UNL     1      26.347   4.584  49.390  1.00  0.00     0.027 C 
BRANCH  18  23
HETATM   23  C1  UNL     1      25.102   8.881  49.191  1.00  0.00     0.291 C 
BRANCH  23  24
HETATM   24  N1  UNL     1      23.655   8.807  49.322  1.00  0.00     0.079 N 
HETATM   25  H1  UNL     1      23.320   7.850  49.501  1.00  0.00     0.312 HD
HETATM   26  H2  UNL     1      23.156   9.232  48.522  1.00  0.00     0.312 HD
ENDBRANCH  23  24
ENDBRANCH  18  23
ENDBRANCH   1  15
BRANCH   7  27
HETATM   27  C12 UNL     1      22.978   1.507  51.269  1.00  0.00     0.325 C 
BRANCH  27  28
HETATM   28  N3  UNL     1      22.041   1.170  52.319  1.00  0.00     0.082 N 
HETATM   29  H14 UNL     1      21.649   0.215  52.252  1.00  0.00     0.312 HD
HETATM   30  H15 UNL     1      22.354   1.453  53.272  1.00  0.00     0.312 HD
ENDBRANCH  27  28
ENDBRANCH   7  27
TORSDOF 5
ENDMDL
MODEL 7
REMARK VINA RESULT:      -6.1      7.399     10.223
REMARK  5 active torsions:
REMARK  status: ('A' for Active; 'I' for Inactive)
REMARK    1  A    between atoms: N1_1  and  C1_2 
REMARK    2  A    between atoms: C1_2  and  C2_3 
REMARK    3  A    between atoms: C5_6  and  C6_7 
REMARK    4  A    between atoms: C11_13  and  C12_14 
REMARK    5  A    between atoms: C12_14  and  N3_15 
ROOT
HETATM    1  C6  UNL     1      29.110   9.402  47.759  1.00  0.00     0.132 C 
HETATM    2  C7  UNL     1      29.661  10.252  46.612  1.00  0.00     0.012 C 
HETATM    3  C8  UNL     1      30.684  11.110  46.583  1.00  0.00     0.000 C 
HETATM    4  C9  UNL     1      31.574  11.470  47.684  1.00  0.00     0.017 C 
HETATM    5  C10 UNL     1      31.259  11.318  48.958  1.00  0.00     0.085 C 
HETATM    6  N2  UNL     1      30.039  10.796  49.530  1.00  0.00    -0.368 N 
HETATM    7  C11 UNL     1      28.802  10.392  48.899  1.00  0.00     0.184 C 
HETATM    8  N4  UNL     1      27.951   9.897  49.894  1.00  0.00    -0.246 NA
HETATM    9  C13 UNL     1      27.079   9.182  50.425  1.00  0.00     0.229 C 
HETATM   10  N5  UNL     1      26.310   8.110  49.822  1.00  0.00    -0.253 NA
HETATM   11  C14 UNL     1      26.186   7.751  48.554  1.00  0.00     0.136 C 
HETATM   12  C15 UNL     1      26.789   8.326  47.354  1.00  0.00     0.131 C 
HETATM   13  N6  UNL     1      27.900   8.924  47.177  1.00  0.00    -0.279 NA
HETATM   14  H11 UNL     1      30.183  10.745  50.586  1.00  0.00     0.161 HD
ENDROOT
BRANCH   1  15
HETATM   15  C5  UNL     1      30.064   8.418  48.107  1.00  0.00     0.104 C 
HETATM   16  C4  UNL     1      30.926   7.528  48.422  1.00  0.00    -0.098 C 
HETATM   17  C3  UNL     1      31.546   6.880  48.627  1.00  0.00    -0.092 C 
HETATM   18  C2  UNL     1      32.450   5.925  48.895  1.00  0.00     0.162 C 
HETATM   19  C18 UNL     1      32.039   5.684  47.067  1.00  0.00     0.144 C 
HETATM   20  C17 UNL     1      31.507   7.011  46.417  1.00  0.00     0.081 C 
HETATM   21  O1  UNL     1      32.224   4.573  46.612  1.00  0.00    -0.297 OA
HETATM   22  C16 UNL     1      30.109   7.464  46.583  1.00  0.00     0.027 C 
BRANCH  18  23
HETATM   23  C1  UNL     1      33.893   6.182  48.605  1.00  0.00     0.291 C 
BRANCH  23  24
HETATM   24  N1  UNL     1      34.684   5.159  49.269  1.00  0.00     0.079 N 
HETATM   25  H1  UNL     1      35.197   4.560  48.608  1.00  0.00     0.312 HD
HETATM   26  H2  UNL     1      34.133   4.591  49.935  1.00  0.00     0.312 HD
ENDBRANCH  23  24
ENDBRANCH  18  23
ENDBRANCH   1  15
BRANCH   7  27
HETATM   27  C12 UNL     1      28.181  11.646  48.298  1.00  0.00     0.325 C 
BRANCH  27  28
HETATM   28  N3  UNL     1      28.291  12.701  49.282  1.00  0.00     0.082 N 
HETATM   29  H14 UNL     1      27.437  12.849  49.847  1.00  0.00     0.312 HD
HETATM   30  H15 UNL     1      29.181  12.683  49.824  1.00  0.00     0.312 HD
ENDBRANCH  27  28
ENDBRANCH   7  27
TORSDOF 5
ENDMDL
MODEL 8
REMARK VINA RESULT:      -6.1      2.909      5.171
REMARK  5 active torsions:
REMARK  status: ('A' for Active; 'I' for Inactive)
REMARK    1  A    between atoms: N1_1  and  C1_2 
REMARK    2  A    between atoms: C1_2  and  C2_3 
REMARK    3  A    between atoms: C5_6  and  C6_7 
REMARK    4  A    between atoms: C11_13  and  C12_14 
REMARK    5  A    between atoms: C12_14  and  N3_15 
ROOT
HETATM    1  C6  UNL     1      22.413   4.145  50.902  1.00  0.00     0.132 C 
HETATM    2  C7  UNL     1      22.773   4.226  52.387  1.00  0.00     0.012 C 
HETATM    3  C8  UNL     1      23.793   3.690  53.062  1.00  0.00     0.000 C 
HETATM    4  C9  UNL     1      24.870   2.857  52.532  1.00  0.00     0.017 C 
HETATM    5  C10 UNL     1      24.780   2.176  51.403  1.00  0.00     0.085 C 
HETATM    6  N2  UNL     1      23.668   2.097  50.483  1.00  0.00    -0.368 N 
HETATM    7  C11 UNL     1      22.331   2.640  50.575  1.00  0.00     0.184 C 
HETATM    8  N4  UNL     1      21.658   2.332  49.388  1.00  0.00    -0.246 NA
HETATM    9  C13 UNL     1      20.876   2.473  48.426  1.00  0.00     0.229 C 
HETATM   10  N5  UNL     1      19.991   3.587  48.147  1.00  0.00    -0.253 NA
HETATM   11  C14 UNL     1      19.638   4.614  48.904  1.00  0.00     0.136 C 
HETATM   12  C15 UNL     1      20.034   4.951  50.270  1.00  0.00     0.131 C 
HETATM   13  N6  UNL     1      21.109   4.721  50.913  1.00  0.00    -0.279 NA
HETATM   14  H11 UNL     1      23.994   1.524  49.644  1.00  0.00     0.161 HD
ENDROOT
BRANCH   1  15
HETATM   15  C5  UNL     1      23.391   4.834  50.149  1.00  0.00     0.104 C 
HETATM   16  C4  UNL     1      24.276   5.457  49.468  1.00  0.00    -0.098 C 
HETATM   17  C3  UNL     1      24.908   5.925  48.990  1.00  0.00    -0.092 C 
HETATM   18  C2  UNL     1      25.826   6.632  48.314  1.00  0.00     0.162 C 
HETATM   19  C18 UNL     1      25.142   7.847  49.589  1.00  0.00     0.144 C 
HETATM   20  C17 UNL     1      24.542   7.099  50.833  1.00  0.00     0.081 C 
HETATM   21  O1  UNL     1      25.239   9.027  49.319  1.00  0.00    -0.297 OA
HETATM   22  C16 UNL     1      23.192   6.494  50.812  1.00  0.00     0.027 C 
BRANCH  18  23
HETATM   23  C1  UNL     1      27.213   6.739  48.858  1.00  0.00     0.291 C 
BRANCH  23  24
HETATM   24  N1  UNL     1      27.772   5.401  48.957  1.00  0.00     0.079 N 
HETATM   25  H1  UNL     1      27.163   4.752  49.475  1.00  0.00     0.312 HD
HETATM   26  H2  UNL     1      28.733   5.392  49.340  1.00  0.00     0.312 HD
ENDBRANCH  23  24
ENDBRANCH  18  23
ENDBRANCH   1  15
BRANCH   7  27
HETATM   27  C12 UNL     1      21.641   1.930  51.732  1.00  0.00     0.325 C 
BRANCH  27  28
HETATM   28  N3  UNL     1      21.589   0.521  51.408  1.00  0.00     0.082 N 
HETATM   29  H14 UNL     1      21.412   0.318  50.409  1.00  0.00     0.312 HD
HETATM   30  H15 UNL     1      22.350  -0.042  51.845  1.00  0.00     0.312 HD
ENDBRANCH  27  28
ENDBRANCH   7  27
TORSDOF 5
ENDMDL
MODEL 9
REMARK VINA RESULT:      -5.9      6.894     10.307
REMARK  5 active torsions:
REMARK  status: ('A' for Active; 'I' for Inactive)
REMARK    1  A    between atoms: N1_1  and  C1_2 
REMARK    2  A    between atoms: C1_2  and  C2_3 
REMARK    3  A    between atoms: C5_6  and  C6_7 
REMARK    4  A    between atoms: C11_13  and  C12_14 
REMARK    5  A    between atoms: C12_14  and  N3_15 
ROOT
HETATM    1  C6  UNL     1      29.641   9.469  47.512  1.00  0.00     0.132 C 
HETATM    2  C7  UNL     1      30.018   8.254  46.661  1.00  0.00     0.012 C 
HETATM    3  C8  UNL     1      30.475   7.052  47.021  1.00  0.00     0.000 C 
HETATM    4  C9  UNL     1      30.741   6.571  48.374  1.00  0.00     0.017 C 
HETATM    5  C10 UNL     1      30.959   7.369  49.404  1.00  0.00     0.085 C 
HETATM    6  N2  UNL     1      30.986   8.813  49.437  1.00  0.00    -0.368 N 
HETATM    7  C11 UNL     1      30.886   9.780  48.366  1.00  0.00     0.184 C 
HETATM    8  N4  UNL     1      30.904  11.058  48.935  1.00  0.00    -0.246 NA
HETATM    9  C13 UNL     1      30.632  12.266  49.085  1.00  0.00     0.229 C 
HETATM   10  N5  UNL     1      29.768  13.099  48.271  1.00  0.00    -0.253 NA
HETATM   11  C14 UNL     1      29.222  12.868  47.088  1.00  0.00     0.136 C 
HETATM   12  C15 UNL     1      29.317  11.693  46.224  1.00  0.00     0.131 C 
HETATM   13  N6  UNL     1      29.474  10.459  46.500  1.00  0.00    -0.279 NA
HETATM   14  H11 UNL     1      31.105   9.103  50.457  1.00  0.00     0.161 HD
ENDROOT
BRANCH   1  15
HETATM   15  C5  UNL     1      28.493   9.162  48.277  1.00  0.00     0.104 C 
HETATM   16  C4  UNL     1      27.455   8.884  48.969  1.00  0.00    -0.098 C 
HETATM   17  C3  UNL     1      26.696   8.679  49.448  1.00  0.00    -0.092 C 
HETATM   18  C2  UNL     1      25.576   8.369  50.119  1.00  0.00     0.162 C 
HETATM   19  C18 UNL     1      25.149   8.032  48.309  1.00  0.00     0.144 C 
HETATM   20  C17 UNL     1      26.437   7.739  47.460  1.00  0.00     0.081 C 
HETATM   21  O1  UNL     1      23.973   8.076  48.014  1.00  0.00    -0.297 OA
HETATM   22  C16 UNL     1      27.315   8.821  46.961  1.00  0.00     0.027 C 
BRANCH  18  23
HETATM   23  C1  UNL     1      25.328   6.949  50.511  1.00  0.00     0.291 C 
BRANCH  23  24
HETATM   24  N1  UNL     1      24.569   6.941  51.751  1.00  0.00     0.079 N 
HETATM   25  H1  UNL     1      25.022   7.484  52.500  1.00  0.00     0.312 HD
HETATM   26  H2  UNL     1      24.335   5.987  52.075  1.00  0.00     0.312 HD
ENDBRANCH  23  24
ENDBRANCH  18  23
ENDBRANCH   1  15
BRANCH   7  27
HETATM   27  C12 UNL     1      32.126   9.610  47.497  1.00  0.00     0.325 C 
BRANCH  27  28
HETATM   28  N3  UNL     1      32.603  10.932  47.156  1.00  0.00     0.082 N 
HETATM   29  H14 UNL     1      33.456  10.941  46.571  1.00  0.00     0.312 HD
HETATM   30  H15 UNL     1      31.852  11.588  46.852  1.00  0.00     0.312 HD
ENDBRANCH  27  28
ENDBRANCH   7  27
TORSDOF 5
ENDMDL
