MODEL 1
REMARK VINA RESULT:      -7.8      0.000      0.000
REMARK  5 active torsions:
REMARK  status: ('A' for Active; 'I' for Inactive)
REMARK    1  A    between atoms: C3_4  and  N1_5 
REMARK    2  A    between atoms: N1_5  and  C4_6 
REMARK    3  A    between atoms: C11_14  and  O1_15 
REMARK    4  A    between atoms: O1_15  and  C12_16 
REMARK    5  A    between atoms: C12_16  and  C13_17 
ROOT
HETATM    1 CL1  UNL     1      22.288   1.033  51.721  1.00  0.00    -0.081 Cl
HETATM    2  C1  UNL     1      22.852   0.150  53.139  1.00  0.00     0.069 A 
HETATM    3  C2  UNL     1      24.238  -0.015  53.237  1.00  0.00     0.056 A 
HETATM    4  C3  UNL     1      24.810  -0.685  54.296  1.00  0.00     0.031 A 
HETATM    5  C9  UNL     1      23.965  -1.192  55.260  1.00  0.00     0.032 A 
HETATM    6  C10 UNL     1      22.595  -1.049  55.195  1.00  0.00     0.041 A 
HETATM    7  C11 UNL     1      22.022  -0.379  54.136  1.00  0.00     0.091 A 
ENDROOT
BRANCH   4   8
HETATM    8  N1  UNL     1      26.212  -0.872  54.426  1.00  0.00    -0.367 N 
HETATM    9  H2  UNL     1      26.611  -1.196  55.333  1.00  0.00     0.161 HD
BRANCH   8  10
HETATM   10  C4  UNL     1      27.153  -0.634  53.352  1.00  0.00     0.208 A 
HETATM   11  C5  UNL     1      27.991   0.592  53.591  1.00  0.00     0.076 A 
HETATM   12  C6  UNL     1      29.433   0.348  53.663  1.00  0.00    -0.021 A 
HETATM   13  C7  UNL     1      30.083  -0.784  53.547  1.00  0.00     0.015 A 
HETATM   14  C8  UNL     1      29.215  -1.917  53.320  1.00  0.00     0.112 A 
HETATM   15  N2  UNL     1      27.952  -1.834  53.238  1.00  0.00    -0.276 NA
ENDBRANCH   8  10
ENDBRANCH   4   8
BRANCH   7  16
HETATM   16  O1  UNL     1      20.694  -0.109  53.854  1.00  0.00    -0.344 OA
BRANCH  16  17
HETATM   17  C12 UNL     1      19.759  -1.169  53.848  1.00  0.00     0.235 C 
BRANCH  17  18
HETATM   18  C13 UNL     1      18.712  -0.842  52.847  1.00  0.00     0.058 A 
HETATM   19  C14 UNL     1      18.811  -0.118  51.653  1.00  0.00     0.029 A 
HETATM   20  C15 UNL     1      17.688   0.072  50.879  1.00  0.00     0.003 A 
HETATM   21  C16 UNL     1      16.455  -0.427  51.235  1.00  0.00     0.019 A 
HETATM   22  C17 UNL     1      16.428  -1.128  52.422  1.00  0.00     0.117 A 
HETATM   23  N3  UNL     1      17.494  -1.341  53.212  1.00  0.00    -0.263 NA
ENDBRANCH  17  18
ENDBRANCH  16  17
ENDBRANCH   7  16
TORSDOF 5
ENDMDL
MODEL 2
REMARK VINA RESULT:      -7.7      1.263      1.767
REMARK  5 active torsions:
REMARK  status: ('A' for Active; 'I' for Inactive)
REMARK    1  A    between atoms: C3_4  and  N1_5 
REMARK    2  A    between atoms: N1_5  and  C4_6 
REMARK    3  A    between atoms: C11_14  and  O1_15 
REMARK    4  A    between atoms: O1_15  and  C12_16 
REMARK    5  A    between atoms: C12_16  and  C13_17 
ROOT
HETATM    1 CL1  UNL     1      21.194  -1.535  54.566  1.00  0.00    -0.081 Cl
HETATM    2  C1  UNL     1      22.474  -0.572  53.829  1.00  0.00     0.069 A 
HETATM    3  C2  UNL     1      23.781  -0.934  54.178  1.00  0.00     0.056 A 
HETATM    4  C3  UNL     1      24.872  -0.264  53.671  1.00  0.00     0.031 A 
HETATM    5  C9  UNL     1      24.633   0.781  52.805  1.00  0.00     0.032 A 
HETATM    6  C10 UNL     1      23.360   1.165  52.440  1.00  0.00     0.041 A 
HETATM    7  C11 UNL     1      22.267   0.495  52.946  1.00  0.00     0.091 A 
ENDROOT
BRANCH   4   8
HETATM    8  N1  UNL     1      26.211  -0.603  54.006  1.00  0.00    -0.367 N 
HETATM    9  H2  UNL     1      26.434  -0.955  54.960  1.00  0.00     0.161 HD
BRANCH   8  10
HETATM   10  C4  UNL     1      27.319  -0.487  53.081  1.00  0.00     0.208 A 
HETATM   11  C5  UNL     1      28.233   0.656  53.429  1.00  0.00     0.076 A 
HETATM   12  C6  UNL     1      29.617   0.271  53.717  1.00  0.00    -0.021 A 
HETATM   13  C7  UNL     1      30.157  -0.923  53.712  1.00  0.00     0.015 A 
HETATM   14  C8  UNL     1      29.221  -1.969  53.370  1.00  0.00     0.112 A 
HETATM   15  N2  UNL     1      28.000  -1.763  53.100  1.00  0.00    -0.276 NA
ENDBRANCH   8  10
ENDBRANCH   4   8
BRANCH   7  16
HETATM   16  O1  UNL     1      20.913   0.690  52.731  1.00  0.00    -0.344 OA
BRANCH  16  17
HETATM   17  C12 UNL     1      20.418   0.694  51.408  1.00  0.00     0.235 C 
BRANCH  17  18
HETATM   18  C13 UNL     1      19.029   0.169  51.444  1.00  0.00     0.058 A 
HETATM   19  C14 UNL     1      18.020   0.241  50.476  1.00  0.00     0.029 A 
HETATM   20  C15 UNL     1      16.787  -0.315  50.737  1.00  0.00     0.003 A 
HETATM   21  C16 UNL     1      16.501  -0.947  51.926  1.00  0.00     0.019 A 
HETATM   22  C17 UNL     1      17.538  -0.981  52.835  1.00  0.00     0.117 A 
HETATM   23  N3  UNL     1      18.757  -0.455  52.628  1.00  0.00    -0.263 NA
ENDBRANCH  17  18
ENDBRANCH  16  17
ENDBRANCH   7  16
TORSDOF 5
ENDMDL
MODEL 3
REMARK VINA RESULT:      -7.6      1.589      2.196
REMARK  5 active torsions:
REMARK  status: ('A' for Active; 'I' for Inactive)
REMARK    1  A    between atoms: C3_4  and  N1_5 
REMARK    2  A    between atoms: N1_5  and  C4_6 
REMARK    3  A    between atoms: C11_14  and  O1_15 
REMARK    4  A    between atoms: O1_15  and  C12_16 
REMARK    5  A    between atoms: C12_16  and  C13_17 
ROOT
HETATM    1 CL1  UNL     1      22.405   2.270  49.802  1.00  0.00    -0.081 Cl
HETATM    2  C1  UNL     1      22.756   1.304  51.234  1.00  0.00     0.069 A 
HETATM    3  C2  UNL     1      24.028   1.485  51.789  1.00  0.00     0.056 A 
HETATM    4  C3  UNL     1      24.430   0.793  52.909  1.00  0.00     0.031 A 
HETATM    5  C9  UNL     1      23.532  -0.091  53.468  1.00  0.00     0.032 A 
HETATM    6  C10 UNL     1      22.272  -0.295  52.948  1.00  0.00     0.041 A 
HETATM    7  C11 UNL     1      21.868   0.398  51.827  1.00  0.00     0.091 A 
ENDROOT
BRANCH   4   8
HETATM    8  N1  UNL     1      25.714   0.951  53.497  1.00  0.00    -0.367 N 
HETATM    9  H2  UNL     1      26.169   1.888  53.506  1.00  0.00     0.161 HD
BRANCH   8  10
HETATM   10  C4  UNL     1      26.456  -0.136  54.101  1.00  0.00     0.208 A 
HETATM   11  C5  UNL     1      27.062  -1.051  53.073  1.00  0.00     0.076 A 
HETATM   12  C6  UNL     1      28.522  -1.151  53.123  1.00  0.00    -0.021 A 
HETATM   13  C7  UNL     1      29.361  -0.556  53.936  1.00  0.00     0.015 A 
HETATM   14  C8  UNL     1      28.708   0.306  54.894  1.00  0.00     0.112 A 
HETATM   15  N2  UNL     1      27.452   0.475  54.952  1.00  0.00    -0.276 NA
ENDBRANCH   8  10
ENDBRANCH   4   8
BRANCH   7  16
HETATM   16  O1  UNL     1      20.672   0.367  51.131  1.00  0.00    -0.344 OA
BRANCH  16  17
HETATM   17  C12 UNL     1      19.546   1.034  51.663  1.00  0.00     0.235 C 
BRANCH  17  18
HETATM   18  C13 UNL     1      18.573   0.001  52.102  1.00  0.00     0.058 A 
HETATM   19  C14 UNL     1      18.671  -0.937  53.137  1.00  0.00     0.029 A 
HETATM   20  C15 UNL     1      17.635  -1.817  53.357  1.00  0.00     0.003 A 
HETATM   21  C16 UNL     1      16.491  -1.814  52.590  1.00  0.00     0.019 A 
HETATM   22  C17 UNL     1      16.461  -0.867  51.588  1.00  0.00     0.117 A 
HETATM   23  N3  UNL     1      17.444   0.013  51.335  1.00  0.00    -0.263 NA
ENDBRANCH  17  18
ENDBRANCH  16  17
ENDBRANCH   7  16
TORSDOF 5
ENDMDL
MODEL 4
REMARK VINA RESULT:      -7.5      1.439      8.888
REMARK  5 active torsions:
REMARK  status: ('A' for Active; 'I' for Inactive)
REMARK    1  A    between atoms: C3_4  and  N1_5 
REMARK    2  A    between atoms: N1_5  and  C4_6 
REMARK    3  A    between atoms: C11_14  and  O1_15 
REMARK    4  A    between atoms: O1_15  and  C12_16 
REMARK    5  A    between atoms: C12_16  and  C13_17 
ROOT
HETATM    1 CL1  UNL     1      23.820   1.842  51.835  1.00  0.00    -0.081 Cl
HETATM    2  C1  UNL     1      23.053   0.689  52.927  1.00  0.00     0.069 A 
HETATM    3  C2  UNL     1      21.653   0.674  52.904  1.00  0.00     0.056 A 
HETATM    4  C3  UNL     1      20.930  -0.180  53.707  1.00  0.00     0.031 A 
HETATM    5  C9  UNL     1      21.635  -1.022  54.539  1.00  0.00     0.032 A 
HETATM    6  C10 UNL     1      23.012  -1.033  54.589  1.00  0.00     0.041 A 
HETATM    7  C11 UNL     1      23.738  -0.180  53.786  1.00  0.00     0.091 A 
ENDROOT
BRANCH   4   8
HETATM    8  N1  UNL     1      19.510  -0.221  53.710  1.00  0.00    -0.367 N 
HETATM    9  H2  UNL     1      18.982   0.144  54.531  1.00  0.00     0.161 HD
BRANCH   8  10
HETATM   10  C4  UNL     1      18.723  -0.752  52.617  1.00  0.00     0.208 A 
HETATM   11  C5  UNL     1      17.631  -1.669  53.096  1.00  0.00     0.076 A 
HETATM   12  C6  UNL     1      16.273  -1.244  52.747  1.00  0.00    -0.021 A 
HETATM   13  C7  UNL     1      15.889  -0.182  52.081  1.00  0.00     0.015 A 
HETATM   14  C8  UNL     1      16.990   0.650  51.655  1.00  0.00     0.112 A 
HETATM   15  N2  UNL     1      18.207   0.389  51.894  1.00  0.00    -0.276 NA
ENDBRANCH   8  10
ENDBRANCH   4   8
BRANCH   7  16
HETATM   16  O1  UNL     1      25.105  -0.009  53.657  1.00  0.00    -0.344 OA
BRANCH  16  17
HETATM   17  C12 UNL     1      25.848  -0.935  52.891  1.00  0.00     0.235 C 
BRANCH  17  18
HETATM   18  C13 UNL     1      27.288  -0.693  53.160  1.00  0.00     0.058 A 
HETATM   19  C14 UNL     1      27.964   0.511  53.392  1.00  0.00     0.029 A 
HETATM   20  C15 UNL     1      29.324   0.496  53.609  1.00  0.00     0.003 A 
HETATM   21  C16 UNL     1      30.057  -0.669  53.608  1.00  0.00     0.019 A 
HETATM   22  C17 UNL     1      29.330  -1.817  53.373  1.00  0.00     0.117 A 
HETATM   23  N3  UNL     1      28.004  -1.855  53.156  1.00  0.00    -0.263 NA
ENDBRANCH  17  18
ENDBRANCH  16  17
ENDBRANCH   7  16
TORSDOF 5
ENDMDL
MODEL 5
REMARK VINA RESULT:      -7.3      4.991      6.382
REMARK  5 active torsions:
REMARK  status: ('A' for Active; 'I' for Inactive)
REMARK    1  A    between atoms: C3_4  and  N1_5 
REMARK    2  A    between atoms: N1_5  and  C4_6 
REMARK    3  A    between atoms: C11_14  and  O1_15 
REMARK    4  A    between atoms: O1_15  and  C12_16 
REMARK    5  A    between atoms: C12_16  and  C13_17 
ROOT
HETATM    1 CL1  UNL     1      26.573   3.408  49.407  1.00  0.00    -0.081 Cl
HETATM    2  C1  UNL     1      25.568   2.895  50.762  1.00  0.00     0.069 A 
HETATM    3  C2  UNL     1      26.257   2.558  51.933  1.00  0.00     0.056 A 
HETATM    4  C3  UNL     1      25.591   2.143  53.065  1.00  0.00     0.031 A 
HETATM    5  C9  UNL     1      24.217   2.070  53.005  1.00  0.00     0.032 A 
HETATM    6  C10 UNL     1      23.506   2.393  51.869  1.00  0.00     0.041 A 
HETATM    7  C11 UNL     1      24.170   2.808  50.735  1.00  0.00     0.091 A 
ENDROOT
BRANCH   4   8
HETATM    8  N1  UNL     1      26.259   1.792  54.269  1.00  0.00    -0.367 N 
HETATM    9  H2  UNL     1      26.477   2.527  54.975  1.00  0.00     0.161 HD
BRANCH   8  10
HETATM   10  C4  UNL     1      26.671   0.441  54.590  1.00  0.00     0.208 A 
HETATM   11  C5  UNL     1      26.448  -0.509  53.445  1.00  0.00     0.076 A 
HETATM   12  C6  UNL     1      27.658  -1.164  52.945  1.00  0.00    -0.021 A 
HETATM   13  C7  UNL     1      28.896  -1.033  53.357  1.00  0.00     0.015 A 
HETATM   14  C8  UNL     1      29.033  -0.106  54.456  1.00  0.00     0.112 A 
HETATM   15  N2  UNL     1      28.062   0.522  54.977  1.00  0.00    -0.276 NA
ENDBRANCH   8  10
ENDBRANCH   4   8
BRANCH   7  16
HETATM   16  O1  UNL     1      23.685   3.183  49.494  1.00  0.00    -0.344 OA
BRANCH  16  17
HETATM   17  C12 UNL     1      22.662   4.155  49.417  1.00  0.00     0.235 C 
BRANCH  17  18
HETATM   18  C13 UNL     1      23.275   5.479  49.696  1.00  0.00     0.058 A 
HETATM   19  C14 UNL     1      23.126   6.317  50.807  1.00  0.00     0.029 A 
HETATM   20  C15 UNL     1      23.792   7.522  50.844  1.00  0.00     0.003 A 
HETATM   21  C16 UNL     1      24.609   7.943  49.820  1.00  0.00     0.019 A 
HETATM   22  C17 UNL     1      24.711   7.071  48.756  1.00  0.00     0.117 A 
HETATM   23  N3  UNL     1      24.083   5.886  48.673  1.00  0.00    -0.263 NA
ENDBRANCH  17  18
ENDBRANCH  16  17
ENDBRANCH   7  16
TORSDOF 5
ENDMDL
MODEL 6
REMARK VINA RESULT:      -7.2      3.632      8.406
REMARK  5 active torsions:
REMARK  status: ('A' for Active; 'I' for Inactive)
REMARK    1  A    between atoms: C3_4  and  N1_5 
REMARK    2  A    between atoms: N1_5  and  C4_6 
REMARK    3  A    between atoms: C11_14  and  O1_15 
REMARK    4  A    between atoms: O1_15  and  C12_16 
REMARK    5  A    between atoms: C12_16  and  C13_17 
ROOT
HETATM    1 CL1  UNL     1      22.472   0.125  53.681  1.00  0.00    -0.081 Cl
HETATM    2  C1  UNL     1      23.583   1.097  52.716  1.00  0.00     0.069 A 
HETATM    3  C2  UNL     1      23.010   2.184  52.046  1.00  0.00     0.056 A 
HETATM    4  C3  UNL     1      23.767   3.023  51.259  1.00  0.00     0.031 A 
HETATM    5  C9  UNL     1      25.114   2.755  51.152  1.00  0.00     0.032 A 
HETATM    6  C10 UNL     1      25.712   1.693  51.797  1.00  0.00     0.041 A 
HETATM    7  C11 UNL     1      24.956   0.851  52.585  1.00  0.00     0.091 A 
ENDROOT
BRANCH   4   8
HETATM    8  N1  UNL     1      23.218   4.134  50.563  1.00  0.00    -0.367 N 
HETATM    9  H2  UNL     1      23.362   5.099  50.930  1.00  0.00     0.161 HD
BRANCH   8  10
HETATM   10  C4  UNL     1      22.448   4.012  49.343  1.00  0.00     0.208 A 
HETATM   11  C5  UNL     1      22.956   2.908  48.457  1.00  0.00     0.076 A 
HETATM   12  C6  UNL     1      21.984   1.850  48.175  1.00  0.00    -0.021 A 
HETATM   13  C7  UNL     1      20.745   1.739  48.586  1.00  0.00     0.015 A 
HETATM   14  C8  UNL     1      20.327   2.833  49.432  1.00  0.00     0.112 A 
HETATM   15  N2  UNL     1      21.075   3.807  49.748  1.00  0.00    -0.276 NA
ENDBRANCH   8  10
ENDBRANCH   4   8
BRANCH   7  16
HETATM   16  O1  UNL     1      25.322  -0.262  53.323  1.00  0.00    -0.344 OA
BRANCH  16  17
HETATM   17  C12 UNL     1      26.054  -0.088  54.519  1.00  0.00     0.235 C 
BRANCH  17  18
HETATM   18  C13 UNL     1      27.498  -0.109  54.172  1.00  0.00     0.058 A 
HETATM   19  C14 UNL     1      28.438   0.928  54.196  1.00  0.00     0.029 A 
HETATM   20  C15 UNL     1      29.737   0.676  53.815  1.00  0.00     0.003 A 
HETATM   21  C16 UNL     1      30.156  -0.570  53.406  1.00  0.00     0.019 A 
HETATM   22  C17 UNL     1      29.180  -1.544  53.405  1.00  0.00     0.117 A 
HETATM   23  N3  UNL     1      27.901  -1.349  53.767  1.00  0.00    -0.263 NA
ENDBRANCH  17  18
ENDBRANCH  16  17
ENDBRANCH   7  16
TORSDOF 5
ENDMDL
MODEL 7
REMARK VINA RESULT:      -7.2      2.040      8.856
REMARK  5 active torsions:
REMARK  status: ('A' for Active; 'I' for Inactive)
REMARK    1  A    between atoms: C3_4  and  N1_5 
REMARK    2  A    between atoms: N1_5  and  C4_6 
REMARK    3  A    between atoms: C11_14  and  O1_15 
REMARK    4  A    between atoms: O1_15  and  C12_16 
REMARK    5  A    between atoms: C12_16  and  C13_17 
ROOT
HETATM    1 CL1  UNL     1      25.163   1.873  51.909  1.00  0.00    -0.081 Cl
HETATM    2  C1  UNL     1      23.800   1.028  52.642  1.00  0.00     0.069 A 
HETATM    3  C2  UNL     1      22.546   1.617  52.445  1.00  0.00     0.056 A 
HETATM    4  C3  UNL     1      21.399   1.058  52.964  1.00  0.00     0.031 A 
HETATM    5  C9  UNL     1      21.530  -0.107  53.688  1.00  0.00     0.032 A 
HETATM    6  C10 UNL     1      22.749  -0.715  53.902  1.00  0.00     0.041 A 
HETATM    7  C11 UNL     1      23.897  -0.156  53.383  1.00  0.00     0.091 A 
ENDROOT
BRANCH   4   8
HETATM    8  N1  UNL     1      20.111   1.630  52.785  1.00  0.00    -0.367 N 
HETATM    9  H2  UNL     1      19.617   2.060  53.595  1.00  0.00     0.161 HD
BRANCH   8  10
HETATM   10  C4  UNL     1      19.417   1.655  51.514  1.00  0.00     0.208 A 
HETATM   11  C5  UNL     1      18.898   0.298  51.123  1.00  0.00     0.076 A 
HETATM   12  C6  UNL     1      17.445   0.221  50.953  1.00  0.00    -0.021 A 
HETATM   13  C7  UNL     1      16.548   1.167  51.095  1.00  0.00     0.015 A 
HETATM   14  C8  UNL     1      17.119   2.439  51.471  1.00  0.00     0.112 A 
HETATM   15  N2  UNL     1      18.360   2.632  51.647  1.00  0.00    -0.276 NA
ENDBRANCH   8  10
ENDBRANCH   4   8
BRANCH   7  16
HETATM   16  O1  UNL     1      25.215  -0.574  53.460  1.00  0.00    -0.344 OA
BRANCH  16  17
HETATM   17  C12 UNL     1      25.944  -0.344  54.648  1.00  0.00     0.235 C 
BRANCH  17  18
HETATM   18  C13 UNL     1      27.367  -0.139  54.273  1.00  0.00     0.058 A 
HETATM   19  C14 UNL     1      28.143   1.025  54.312  1.00  0.00     0.029 A 
HETATM   20  C15 UNL     1      29.456   0.980  53.899  1.00  0.00     0.003 A 
HETATM   21  C16 UNL     1      30.045  -0.177  53.442  1.00  0.00     0.019 A 
HETATM   22  C17 UNL     1      29.224  -1.285  53.429  1.00  0.00     0.117 A 
HETATM   23  N3  UNL     1      27.940  -1.294  53.822  1.00  0.00    -0.263 NA
ENDBRANCH  17  18
ENDBRANCH  16  17
ENDBRANCH   7  16
TORSDOF 5
ENDMDL
MODEL 8
REMARK VINA RESULT:      -7.2      2.398      8.676
REMARK  5 active torsions:
REMARK  status: ('A' for Active; 'I' for Inactive)
REMARK    1  A    between atoms: C3_4  and  N1_5 
REMARK    2  A    between atoms: N1_5  and  C4_6 
REMARK    3  A    between atoms: C11_14  and  O1_15 
REMARK    4  A    between atoms: O1_15  and  C12_16 
REMARK    5  A    between atoms: C12_16  and  C13_17 
ROOT
HETATM    1 CL1  UNL     1      23.873   3.224  49.555  1.00  0.00    -0.081 Cl
HETATM    2  C1  UNL     1      23.461   2.123  50.868  1.00  0.00     0.069 A 
HETATM    3  C2  UNL     1      22.242   1.448  50.732  1.00  0.00     0.056 A 
HETATM    4  C3  UNL     1      21.802   0.558  51.686  1.00  0.00     0.031 A 
HETATM    5  C9  UNL     1      22.606   0.354  52.786  1.00  0.00     0.032 A 
HETATM    6  C10 UNL     1      23.812   1.001  52.954  1.00  0.00     0.041 A 
HETATM    7  C11 UNL     1      24.254   1.893  52.000  1.00  0.00     0.091 A 
ENDROOT
BRANCH   4   8
HETATM    8  N1  UNL     1      20.571  -0.142  51.580  1.00  0.00    -0.367 N 
HETATM    9  H2  UNL     1      20.489  -0.954  50.932  1.00  0.00     0.161 HD
BRANCH   8  10
HETATM   10  C4  UNL     1      19.385   0.207  52.334  1.00  0.00     0.208 A 
HETATM   11  C5  UNL     1      18.182   0.391  51.450  1.00  0.00     0.076 A 
HETATM   12  C6  UNL     1      17.065  -0.513  51.735  1.00  0.00    -0.021 A 
HETATM   13  C7  UNL     1      16.977  -1.449  52.648  1.00  0.00     0.015 A 
HETATM   14  C8  UNL     1      18.167  -1.568  53.457  1.00  0.00     0.112 A 
HETATM   15  N2  UNL     1      19.197  -0.844  53.309  1.00  0.00    -0.276 NA
ENDBRANCH   8  10
ENDBRANCH   4   8
BRANCH   7  16
HETATM   16  O1  UNL     1      25.410   2.651  51.944  1.00  0.00    -0.344 OA
BRANCH  16  17
HETATM   17  C12 UNL     1      26.554   2.121  51.305  1.00  0.00     0.235 C 
BRANCH  17  18
HETATM   18  C13 UNL     1      27.357   1.410  52.332  1.00  0.00     0.058 A 
HETATM   19  C14 UNL     1      27.333   0.063  52.712  1.00  0.00     0.029 A 
HETATM   20  C15 UNL     1      28.172  -0.376  53.712  1.00  0.00     0.003 A 
HETATM   21  C16 UNL     1      29.044   0.466  54.364  1.00  0.00     0.019 A 
HETATM   22  C17 UNL     1      29.016   1.779  53.942  1.00  0.00     0.117 A 
HETATM   23  N3  UNL     1      28.218   2.256  52.972  1.00  0.00    -0.263 NA
ENDBRANCH  17  18
ENDBRANCH  16  17
ENDBRANCH   7  16
TORSDOF 5
ENDMDL
MODEL 9
REMARK VINA RESULT:      -7.2      4.854      5.666
REMARK  5 active torsions:
REMARK  status: ('A' for Active; 'I' for Inactive)
REMARK    1  A    between atoms: C3_4  and  N1_5 
REMARK    2  A    between atoms: N1_5  and  C4_6 
REMARK    3  A    between atoms: C11_14  and  O1_15 
REMARK    4  A    between atoms: O1_15  and  C12_16 
REMARK    5  A    between atoms: C12_16  and  C13_17 
ROOT
HETATM    1 CL1  UNL     1      26.639   3.132  49.449  1.00  0.00    -0.081 Cl
HETATM    2  C1  UNL     1      25.815   2.908  50.992  1.00  0.00     0.069 A 
HETATM    3  C2  UNL     1      26.613   2.435  52.040  1.00  0.00     0.056 A 
HETATM    4  C3  UNL     1      26.093   2.218  53.297  1.00  0.00     0.031 A 
HETATM    5  C9  UNL     1      24.755   2.482  53.488  1.00  0.00     0.032 A 
HETATM    6  C10 UNL     1      23.939   2.947  52.479  1.00  0.00     0.041 A 
HETATM    7  C11 UNL     1      24.457   3.166  51.220  1.00  0.00     0.091 A 
ENDROOT
BRANCH   4   8
HETATM    8  N1  UNL     1      26.873   1.737  54.383  1.00  0.00    -0.367 N 
HETATM    9  H2  UNL     1      27.321   2.411  55.040  1.00  0.00     0.161 HD
BRANCH   8  10
HETATM   10  C4  UNL     1      27.097   0.330  54.646  1.00  0.00     0.208 A 
HETATM   11  C5  UNL     1      26.569  -0.545  53.543  1.00  0.00     0.076 A 
HETATM   12  C6  UNL     1      27.577  -1.378  52.883  1.00  0.00    -0.021 A 
HETATM   13  C7  UNL     1      28.863  -1.460  53.124  1.00  0.00     0.015 A 
HETATM   14  C8  UNL     1      29.297  -0.592  54.193  1.00  0.00     0.112 A 
HETATM   15  N2  UNL     1      28.521   0.174  54.841  1.00  0.00    -0.276 NA
ENDBRANCH   8  10
ENDBRANCH   4   8
BRANCH   7  16
HETATM   16  O1  UNL     1      23.850   3.624  50.064  1.00  0.00    -0.344 OA
BRANCH  16  17
HETATM   17  C12 UNL     1      23.013   2.753  49.331  1.00  0.00     0.235 C 
BRANCH  17  18
HETATM   18  C13 UNL     1      22.605   3.457  48.089  1.00  0.00     0.058 A 
HETATM   19  C14 UNL     1      22.032   2.945  46.918  1.00  0.00     0.029 A 
HETATM   20  C15 UNL     1      21.745   3.797  45.874  1.00  0.00     0.003 A 
HETATM   21  C16 UNL     1      22.002   5.148  45.934  1.00  0.00     0.019 A 
HETATM   22  C17 UNL     1      22.567   5.584  47.114  1.00  0.00     0.117 A 
HETATM   23  N3  UNL     1      22.865   4.795  48.160  1.00  0.00    -0.263 NA
ENDBRANCH  17  18
ENDBRANCH  16  17
ENDBRANCH   7  16
TORSDOF 5
ENDMDL
