MODEL 1
REMARK VINA RESULT:      -6.9      0.000      0.000
REMARK  11 active torsions:
REMARK  status: ('A' for Active; 'I' for Inactive)
REMARK    1  A    between atoms: C2_2  and  C3_3 
REMARK    2  A    between atoms: C3_3  and  C4_5 
REMARK    3  A    between atoms: C4_5  and  C5_6 
REMARK    4  A    between atoms: C5_6  and  C6_7 
REMARK    5  A    between atoms: C6_7  and  C7_8 
REMARK    6  A    between atoms: C6_7  and  N2_19 
REMARK    7  A    between atoms: C7_8  and  C8_9 
REMARK    8  A    between atoms: C9_10  and  N1_11 
REMARK    9  A    between atoms: C9_10  and  C10_12 
REMARK   10  A    between atoms: C13_15  and  O1_16 
REMARK   11  A    between atoms: N2_19  and  C16_20 
ROOT
HETATM    1  C7  UNL     1      24.545   3.144  53.407  1.00  0.00     0.069 C 
ENDROOT
BRANCH   1   2
HETATM    2  C6  UNL     1      23.796   3.623  52.201  1.00  0.00     0.247 C 
BRANCH   2   3
HETATM    3  C5  UNL     1      23.297   2.433  51.464  1.00  0.00     0.010 C 
BRANCH   3   4
HETATM    4  C4  UNL     1      22.012   2.200  51.239  1.00  0.00     0.025 C 
BRANCH   4   5
HETATM    5  C3  UNL     1      21.215   1.050  51.583  1.00  0.00     0.051 C 
HETATM    6 BR1  UNL     1      19.427   0.632  51.197  1.00  0.00    -0.042 Br
BRANCH   5   7
HETATM    7  C2  UNL     1      21.936   0.215  52.278  1.00  0.00    -0.136 C 
HETATM    8  C1  UNL     1      22.474  -0.753  53.006  1.00  0.00     0.098 C 
ENDBRANCH   5   7
ENDBRANCH   4   5
ENDBRANCH   3   4
ENDBRANCH   2   3
BRANCH   2   9
HETATM    9  N2  UNL     1      24.588   4.501  51.369  1.00  0.00     0.095 N 
HETATM   10  H16 UNL     1      25.422   4.818  51.871  1.00  0.00     0.317 HD
BRANCH   9  11
HETATM   11  C16 UNL     1      24.935   3.913  50.112  1.00  0.00     0.213 C 
HETATM   12  C17 UNL     1      26.425   3.585  50.093  1.00  0.00     0.042 C 
HETATM   13  C18 UNL     1      24.687   4.826  48.950  1.00  0.00     0.042 C 
ENDBRANCH   9  11
ENDBRANCH   2   9
ENDBRANCH   1   2
BRANCH   1  14
HETATM   14  C8  UNL     1      25.090   1.770  53.238  1.00  0.00     0.005 C 
HETATM   15  C9  UNL     1      26.383   1.587  53.465  1.00  0.00     0.032 C 
BRANCH  15  16
HETATM   16  N1  UNL     1      27.072   2.772  53.847  1.00  0.00    -0.399 N 
HETATM   17  H9  UNL     1      26.361   3.533  53.920  1.00  0.00     0.156 HD
HETATM   18  H10 UNL     1      28.118   2.759  53.998  1.00  0.00     0.156 HD
ENDBRANCH  15  16
BRANCH  15  19
HETATM   19  C10 UNL     1      27.023   0.286  53.331  1.00  0.00    -0.010 A 
HETATM   20  C11 UNL     1      28.325   0.030  53.717  1.00  0.00     0.016 A 
HETATM   21  C12 UNL     1      28.849  -1.254  53.546  1.00  0.00     0.037 A 
HETATM   22  C13 UNL     1      28.113  -2.295  53.000  1.00  0.00     0.065 A 
HETATM   23  C14 UNL     1      26.826  -2.015  52.624  1.00  0.00     0.037 A 
HETATM   24  C15 UNL     1      26.306  -0.737  52.794  1.00  0.00     0.016 A 
BRANCH  22  25
HETATM   25  O1  UNL     1      28.652  -3.562  52.839  1.00  0.00    -0.361 OA
HETATM   26  H13 UNL     1      28.379  -4.361  53.385  1.00  0.00     0.217 HD
ENDBRANCH  22  25
ENDBRANCH  15  19
ENDBRANCH   1  14
TORSDOF 11
ENDMDL
MODEL 2
REMARK VINA RESULT:      -6.7      3.660      6.497
REMARK  11 active torsions:
REMARK  status: ('A' for Active; 'I' for Inactive)
REMARK    1  A    between atoms: C2_2  and  C3_3 
REMARK    2  A    between atoms: C3_3  and  C4_5 
REMARK    3  A    between atoms: C4_5  and  C5_6 
REMARK    4  A    between atoms: C5_6  and  C6_7 
REMARK    5  A    between atoms: C6_7  and  C7_8 
REMARK    6  A    between atoms: C6_7  and  N2_19 
REMARK    7  A    between atoms: C7_8  and  C8_9 
REMARK    8  A    between atoms: C9_10  and  N1_11 
REMARK    9  A    between atoms: C9_10  and  C10_12 
REMARK   10  A    between atoms: C13_15  and  O1_16 
REMARK   11  A    between atoms: N2_19  and  C16_20 
ROOT
HETATM    1  C7  UNL     1      25.350  -0.692  54.148  1.00  0.00     0.069 C 
ENDROOT
BRANCH   1   2
HETATM    2  C6  UNL     1      26.576  -0.121  53.501  1.00  0.00     0.247 C 
BRANCH   2   3
HETATM    3  C5  UNL     1      26.200   0.367  52.149  1.00  0.00     0.010 C 
BRANCH   3   4
HETATM    4  C4  UNL     1      26.648   1.502  51.632  1.00  0.00     0.025 C 
BRANCH   4   5
HETATM    5  C3  UNL     1      25.911   2.627  51.115  1.00  0.00     0.051 C 
HETATM    6 BR1  UNL     1      26.240   3.740  49.641  1.00  0.00    -0.042 Br
BRANCH   5   7
HETATM    7  C2  UNL     1      24.859   2.834  51.857  1.00  0.00    -0.136 C 
HETATM    8  C1  UNL     1      23.830   3.267  52.571  1.00  0.00     0.098 C 
ENDBRANCH   5   7
ENDBRANCH   4   5
ENDBRANCH   3   4
ENDBRANCH   2   3
BRANCH   2   9
HETATM    9  N2  UNL     1      27.674  -1.060  53.470  1.00  0.00     0.095 N 
HETATM   10  H16 UNL     1      27.588  -1.689  52.666  1.00  0.00     0.317 HD
BRANCH   9  11
HETATM   11  C16 UNL     1      28.954  -0.421  53.490  1.00  0.00     0.213 C 
HETATM   12  C17 UNL     1      30.036  -1.448  53.815  1.00  0.00     0.042 C 
HETATM   13  C18 UNL     1      29.058   0.649  54.533  1.00  0.00     0.042 C 
ENDBRANCH   9  11
ENDBRANCH   2   9
ENDBRANCH   1   2
BRANCH   1  14
HETATM   14  C8  UNL     1      24.110  -0.417  53.373  1.00  0.00     0.005 C 
HETATM   15  C9  UNL     1      22.950  -0.707  53.943  1.00  0.00     0.032 C 
BRANCH  15  16
HETATM   16  N1  UNL     1      23.073  -1.255  55.251  1.00  0.00    -0.399 N 
HETATM   17  H9  UNL     1      22.660  -2.213  55.225  1.00  0.00     0.156 HD
HETATM   18  H10 UNL     1      23.521  -0.694  56.027  1.00  0.00     0.156 HD
ENDBRANCH  15  16
BRANCH  15  19
HETATM   19  C10 UNL     1      21.674  -0.480  53.279  1.00  0.00    -0.010 A 
HETATM   20  C11 UNL     1      21.545   0.183  52.073  1.00  0.00     0.016 A 
HETATM   21  C12 UNL     1      20.275   0.350  51.516  1.00  0.00     0.037 A 
HETATM   22  C13 UNL     1      19.124  -0.125  52.126  1.00  0.00     0.065 A 
HETATM   23  C14 UNL     1      19.277  -0.779  53.319  1.00  0.00     0.037 A 
HETATM   24  C15 UNL     1      20.542  -0.944  53.873  1.00  0.00     0.016 A 
BRANCH  22  25
HETATM   25  O1  UNL     1      17.872   0.051  51.556  1.00  0.00    -0.361 OA
HETATM   26  H13 UNL     1      17.589  -0.362  50.683  1.00  0.00     0.217 HD
ENDBRANCH  22  25
ENDBRANCH  15  19
ENDBRANCH   1  14
TORSDOF 11
ENDMDL
MODEL 3
REMARK VINA RESULT:      -6.7      1.571      1.745
REMARK  11 active torsions:
REMARK  status: ('A' for Active; 'I' for Inactive)
REMARK    1  A    between atoms: C2_2  and  C3_3 
REMARK    2  A    between atoms: C3_3  and  C4_5 
REMARK    3  A    between atoms: C4_5  and  C5_6 
REMARK    4  A    between atoms: C5_6  and  C6_7 
REMARK    5  A    between atoms: C6_7  and  C7_8 
REMARK    6  A    between atoms: C6_7  and  N2_19 
REMARK    7  A    between atoms: C7_8  and  C8_9 
REMARK    8  A    between atoms: C9_10  and  N1_11 
REMARK    9  A    between atoms: C9_10  and  C10_12 
REMARK   10  A    between atoms: C13_15  and  O1_16 
REMARK   11  A    between atoms: N2_19  and  C16_20 
ROOT
HETATM    1  C7  UNL     1      24.457   3.065  52.847  1.00  0.00     0.069 C 
ENDROOT
BRANCH   1   2
HETATM    2  C6  UNL     1      23.131   2.963  52.158  1.00  0.00     0.247 C 
BRANCH   2   3
HETATM    3  C5  UNL     1      22.821   1.523  51.963  1.00  0.00     0.010 C 
BRANCH   3   4
HETATM    4  C4  UNL     1      21.593   1.027  52.012  1.00  0.00     0.025 C 
BRANCH   4   5
HETATM    5  C3  UNL     1      21.005   0.126  52.970  1.00  0.00     0.051 C 
HETATM    6 BR1  UNL     1      21.688  -0.594  54.562  1.00  0.00    -0.042 Br
BRANCH   5   7
HETATM    7  C2  UNL     1      19.799  -0.189  52.586  1.00  0.00    -0.136 C 
HETATM    8  C1  UNL     1      18.505  -0.351  52.348  1.00  0.00     0.098 C 
ENDBRANCH   5   7
ENDBRANCH   4   5
ENDBRANCH   3   4
ENDBRANCH   2   3
BRANCH   2   9
HETATM    9  N2  UNL     1      23.089   3.714  50.923  1.00  0.00     0.095 N 
HETATM   10  H16 UNL     1      23.395   4.678  51.077  1.00  0.00     0.317 HD
BRANCH   9  11
HETATM   11  C16 UNL     1      23.837   3.096  49.871  1.00  0.00     0.213 C 
HETATM   12  C17 UNL     1      24.909   4.060  49.370  1.00  0.00     0.042 C 
HETATM   13  C18 UNL     1      22.995   2.743  48.683  1.00  0.00     0.042 C 
ENDBRANCH   9  11
ENDBRANCH   2   9
ENDBRANCH   1   2
BRANCH   1  14
HETATM   14  C8  UNL     1      25.081   1.737  53.094  1.00  0.00     0.005 C 
HETATM   15  C9  UNL     1      26.316   1.544  52.652  1.00  0.00     0.032 C 
BRANCH  15  16
HETATM   16  N1  UNL     1      26.871   2.673  51.987  1.00  0.00    -0.399 N 
HETATM   17  H9  UNL     1      26.282   2.856  51.146  1.00  0.00     0.156 HD
HETATM   18  H10 UNL     1      27.729   3.154  52.374  1.00  0.00     0.156 HD
ENDBRANCH  15  16
BRANCH  15  19
HETATM   19  C10 UNL     1      27.024   0.285  52.837  1.00  0.00    -0.010 A 
HETATM   20  C11 UNL     1      28.300   0.193  53.359  1.00  0.00     0.016 A 
HETATM   21  C12 UNL     1      28.895  -1.064  53.497  1.00  0.00     0.037 A 
HETATM   22  C13 UNL     1      28.254  -2.237  53.129  1.00  0.00     0.065 A 
HETATM   23  C14 UNL     1      26.991  -2.120  52.614  1.00  0.00     0.037 A 
HETATM   24  C15 UNL     1      26.400  -0.869  52.477  1.00  0.00     0.016 A 
BRANCH  22  25
HETATM   25  O1  UNL     1      28.862  -3.475  53.274  1.00  0.00    -0.361 OA
HETATM   26  H13 UNL     1      29.492  -3.706  54.024  1.00  0.00     0.217 HD
ENDBRANCH  22  25
ENDBRANCH  15  19
ENDBRANCH   1  14
TORSDOF 11
ENDMDL
MODEL 4
REMARK VINA RESULT:      -6.5      2.221      3.934
REMARK  11 active torsions:
REMARK  status: ('A' for Active; 'I' for Inactive)
REMARK    1  A    between atoms: C2_2  and  C3_3 
REMARK    2  A    between atoms: C3_3  and  C4_5 
REMARK    3  A    between atoms: C4_5  and  C5_6 
REMARK    4  A    between atoms: C5_6  and  C6_7 
REMARK    5  A    between atoms: C6_7  and  C7_8 
REMARK    6  A    between atoms: C6_7  and  N2_19 
REMARK    7  A    between atoms: C7_8  and  C8_9 
REMARK    8  A    between atoms: C9_10  and  N1_11 
REMARK    9  A    between atoms: C9_10  and  C10_12 
REMARK   10  A    between atoms: C13_15  and  O1_16 
REMARK   11  A    between atoms: N2_19  and  C16_20 
ROOT
HETATM    1  C7  UNL     1      24.535   3.192  52.991  1.00  0.00     0.069 C 
ENDROOT
BRANCH   1   2
HETATM    2  C6  UNL     1      23.692   3.600  51.821  1.00  0.00     0.247 C 
BRANCH   2   3
HETATM    3  C5  UNL     1      24.509   3.450  50.589  1.00  0.00     0.010 C 
BRANCH   3   4
HETATM    4  C4  UNL     1      25.513   4.255  50.276  1.00  0.00     0.025 C 
BRANCH   4   5
HETATM    5  C3  UNL     1      25.629   5.198  49.193  1.00  0.00     0.051 C 
HETATM    6 BR1  UNL     1      24.353   6.321  48.398  1.00  0.00    -0.042 Br
BRANCH   5   7
HETATM    7  C2  UNL     1      26.857   5.206  48.755  1.00  0.00    -0.136 C 
HETATM    8  C1  UNL     1      28.162   5.171  48.528  1.00  0.00     0.098 C 
ENDBRANCH   5   7
ENDBRANCH   4   5
ENDBRANCH   3   4
ENDBRANCH   2   3
BRANCH   2   9
HETATM    9  N2  UNL     1      23.147   4.931  51.969  1.00  0.00     0.095 N 
HETATM   10  H16 UNL     1      23.603   5.582  51.324  1.00  0.00     0.317 HD
BRANCH   9  11
HETATM   11  C16 UNL     1      21.724   4.969  51.820  1.00  0.00     0.213 C 
HETATM   12  C17 UNL     1      21.133   3.613  52.199  1.00  0.00     0.042 C 
HETATM   13  C18 UNL     1      21.290   5.243  50.413  1.00  0.00     0.042 C 
ENDBRANCH   9  11
ENDBRANCH   2   9
ENDBRANCH   1   2
BRANCH   1  14
HETATM   14  C8  UNL     1      25.091   1.819  52.849  1.00  0.00     0.005 C 
HETATM   15  C9  UNL     1      26.326   1.606  53.279  1.00  0.00     0.032 C 
BRANCH  15  16
HETATM   16  N1  UNL     1      26.950   2.760  53.828  1.00  0.00    -0.399 N 
HETATM   17  H9  UNL     1      26.368   3.071  54.637  1.00  0.00     0.156 HD
HETATM   18  H10 UNL     1      27.840   3.142  53.404  1.00  0.00     0.156 HD
ENDBRANCH  15  16
BRANCH  15  19
HETATM   19  C10 UNL     1      26.970   0.303  53.190  1.00  0.00    -0.010 A 
HETATM   20  C11 UNL     1      28.268   0.061  53.599  1.00  0.00     0.016 A 
HETATM   21  C12 UNL     1      28.797  -1.227  53.472  1.00  0.00     0.037 A 
HETATM   22  C13 UNL     1      28.069  -2.284  52.948  1.00  0.00     0.065 A 
HETATM   23  C14 UNL     1      26.786  -2.019  52.550  1.00  0.00     0.037 A 
HETATM   24  C15 UNL     1      26.261  -0.738  52.676  1.00  0.00     0.016 A 
BRANCH  22  25
HETATM   25  O1  UNL     1      28.612  -3.555  52.830  1.00  0.00    -0.361 OA
HETATM   26  H13 UNL     1      28.442  -4.301  53.484  1.00  0.00     0.217 HD
ENDBRANCH  22  25
ENDBRANCH  15  19
ENDBRANCH   1  14
TORSDOF 11
ENDMDL
MODEL 5
REMARK VINA RESULT:      -6.2      2.993      3.976
REMARK  11 active torsions:
REMARK  status: ('A' for Active; 'I' for Inactive)
REMARK    1  A    between atoms: C2_2  and  C3_3 
REMARK    2  A    between atoms: C3_3  and  C4_5 
REMARK    3  A    between atoms: C4_5  and  C5_6 
REMARK    4  A    between atoms: C5_6  and  C6_7 
REMARK    5  A    between atoms: C6_7  and  C7_8 
REMARK    6  A    between atoms: C6_7  and  N2_19 
REMARK    7  A    between atoms: C7_8  and  C8_9 
REMARK    8  A    between atoms: C9_10  and  N1_11 
REMARK    9  A    between atoms: C9_10  and  C10_12 
REMARK   10  A    between atoms: C13_15  and  O1_16 
REMARK   11  A    between atoms: N2_19  and  C16_20 
ROOT
HETATM    1  C7  UNL     1      26.232   2.746  51.421  1.00  0.00     0.069 C 
ENDROOT
BRANCH   1   2
HETATM    2  C6  UNL     1      25.818   3.740  50.380  1.00  0.00     0.247 C 
BRANCH   2   3
HETATM    3  C5  UNL     1      24.938   3.048  49.403  1.00  0.00     0.010 C 
BRANCH   3   4
HETATM    4  C4  UNL     1      23.670   3.376  49.203  1.00  0.00     0.025 C 
BRANCH   4   5
HETATM    5  C3  UNL     1      22.471   2.738  49.685  1.00  0.00     0.051 C 
HETATM    6 BR1  UNL     1      21.548   1.226  49.066  1.00  0.00    -0.042 Br
BRANCH   5   7
HETATM    7  C2  UNL     1      22.023   3.386  50.724  1.00  0.00    -0.136 C 
HETATM    8  C1  UNL     1      21.689   3.893  51.902  1.00  0.00     0.098 C 
ENDBRANCH   5   7
ENDBRANCH   4   5
ENDBRANCH   3   4
ENDBRANCH   2   3
BRANCH   2   9
HETATM    9  N2  UNL     1      26.949   4.385  49.750  1.00  0.00     0.095 N 
HETATM   10  H16 UNL     1      27.495   3.709  49.209  1.00  0.00     0.317 HD
BRANCH   9  11
HETATM   11  C16 UNL     1      26.573   5.507  48.946  1.00  0.00     0.213 C 
HETATM   12  C17 UNL     1      27.814   6.108  48.292  1.00  0.00     0.042 C 
HETATM   13  C18 UNL     1      25.935   6.608  49.738  1.00  0.00     0.042 C 
ENDBRANCH   9  11
ENDBRANCH   2   9
ENDBRANCH   1   2
BRANCH   1  14
HETATM   14  C8  UNL     1      25.073   2.153  52.143  1.00  0.00     0.005 C 
HETATM   15  C9  UNL     1      25.108   0.855  52.406  1.00  0.00     0.032 C 
BRANCH  15  16
HETATM   16  N1  UNL     1      26.287   0.207  51.942  1.00  0.00    -0.399 N 
HETATM   17  H9  UNL     1      27.087   0.851  52.126  1.00  0.00     0.156 HD
HETATM   18  H10 UNL     1      26.234  -0.754  51.505  1.00  0.00     0.156 HD
ENDBRANCH  15  16
BRANCH  15  19
HETATM   19  C10 UNL     1      24.031   0.170  53.107  1.00  0.00    -0.010 A 
HETATM   20  C11 UNL     1      24.219  -0.590  54.245  1.00  0.00     0.016 A 
HETATM   21  C12 UNL     1      23.119  -1.209  54.845  1.00  0.00     0.037 A 
HETATM   22  C13 UNL     1      21.832  -1.093  54.342  1.00  0.00     0.065 A 
HETATM   23  C14 UNL     1      21.672  -0.335  53.213  1.00  0.00     0.037 A 
HETATM   24  C15 UNL     1      22.766   0.280  52.617  1.00  0.00     0.016 A 
BRANCH  22  25
HETATM   25  O1  UNL     1      20.753  -1.716  54.952  1.00  0.00    -0.361 OA
HETATM   26  H13 UNL     1      19.972  -1.222  55.351  1.00  0.00     0.217 HD
ENDBRANCH  22  25
ENDBRANCH  15  19
ENDBRANCH   1  14
TORSDOF 11
ENDMDL
MODEL 6
REMARK VINA RESULT:      -6.2      3.869      6.059
REMARK  11 active torsions:
REMARK  status: ('A' for Active; 'I' for Inactive)
REMARK    1  A    between atoms: C2_2  and  C3_3 
REMARK    2  A    between atoms: C3_3  and  C4_5 
REMARK    3  A    between atoms: C4_5  and  C5_6 
REMARK    4  A    between atoms: C5_6  and  C6_7 
REMARK    5  A    between atoms: C6_7  and  C7_8 
REMARK    6  A    between atoms: C6_7  and  N2_19 
REMARK    7  A    between atoms: C7_8  and  C8_9 
REMARK    8  A    between atoms: C9_10  and  N1_11 
REMARK    9  A    between atoms: C9_10  and  C10_12 
REMARK   10  A    between atoms: C13_15  and  O1_16 
REMARK   11  A    between atoms: N2_19  and  C16_20 
ROOT
HETATM    1  C7  UNL     1      25.806   2.984  50.750  1.00  0.00     0.069 C 
ENDROOT
BRANCH   1   2
HETATM    2  C6  UNL     1      25.277   4.230  50.107  1.00  0.00     0.247 C 
BRANCH   2   3
HETATM    3  C5  UNL     1      26.324   4.759  49.195  1.00  0.00     0.010 C 
BRANCH   3   4
HETATM    4  C4  UNL     1      26.426   6.039  48.867  1.00  0.00     0.025 C 
BRANCH   4   5
HETATM    5  C3  UNL     1      27.418   6.702  48.060  1.00  0.00     0.051 C 
HETATM    6 BR1  UNL     1      27.295   8.210  46.950  1.00  0.00    -0.042 Br
BRANCH   5   7
HETATM    7  C2  UNL     1      28.559   6.083  48.182  1.00  0.00    -0.136 C 
HETATM    8  C1  UNL     1      29.761   5.530  48.092  1.00  0.00     0.098 C 
ENDBRANCH   5   7
ENDBRANCH   4   5
ENDBRANCH   3   4
ENDBRANCH   2   3
BRANCH   2   9
HETATM    9  N2  UNL     1      24.834   5.208  51.076  1.00  0.00     0.095 N 
HETATM   10  H16 UNL     1      25.379   6.070  50.992  1.00  0.00     0.317 HD
BRANCH   9  11
HETATM   11  C16 UNL     1      23.430   5.474  50.995  1.00  0.00     0.213 C 
HETATM   12  C17 UNL     1      23.199   6.980  50.903  1.00  0.00     0.042 C 
HETATM   13  C18 UNL     1      22.675   5.002  52.199  1.00  0.00     0.042 C 
ENDBRANCH   9  11
ENDBRANCH   2   9
ENDBRANCH   1   2
BRANCH   1  14
HETATM   14  C8  UNL     1      24.725   2.077  51.224  1.00  0.00     0.005 C 
HETATM   15  C9  UNL     1      24.633   1.855  52.527  1.00  0.00     0.032 C 
BRANCH  15  16
HETATM   16  N1  UNL     1      25.615   2.539  53.296  1.00  0.00    -0.399 N 
HETATM   17  H9  UNL     1      25.577   3.545  53.020  1.00  0.00     0.156 HD
HETATM   18  H10 UNL     1      26.215   2.014  53.990  1.00  0.00     0.156 HD
ENDBRANCH  15  16
BRANCH  15  19
HETATM   19  C10 UNL     1      23.616   0.987  53.102  1.00  0.00    -0.010 A 
HETATM   20  C11 UNL     1      22.258   1.200  52.961  1.00  0.00     0.016 A 
HETATM   21  C12 UNL     1      21.359   0.308  53.552  1.00  0.00     0.037 A 
HETATM   22  C13 UNL     1      21.775  -0.796  54.282  1.00  0.00     0.065 A 
HETATM   23  C14 UNL     1      23.125  -0.985  54.408  1.00  0.00     0.037 A 
HETATM   24  C15 UNL     1      24.018  -0.097  53.820  1.00  0.00     0.016 A 
BRANCH  22  25
HETATM   25  O1  UNL     1      20.867  -1.669  54.862  1.00  0.00    -0.361 OA
HETATM   26  H13 UNL     1      21.088  -2.617  55.120  1.00  0.00     0.217 HD
ENDBRANCH  22  25
ENDBRANCH  15  19
ENDBRANCH   1  14
TORSDOF 11
ENDMDL
MODEL 7
REMARK VINA RESULT:      -6.1      1.694      2.548
REMARK  11 active torsions:
REMARK  status: ('A' for Active; 'I' for Inactive)
REMARK    1  A    between atoms: C2_2  and  C3_3 
REMARK    2  A    between atoms: C3_3  and  C4_5 
REMARK    3  A    between atoms: C4_5  and  C5_6 
REMARK    4  A    between atoms: C5_6  and  C6_7 
REMARK    5  A    between atoms: C6_7  and  C7_8 
REMARK    6  A    between atoms: C6_7  and  N2_19 
REMARK    7  A    between atoms: C7_8  and  C8_9 
REMARK    8  A    between atoms: C9_10  and  N1_11 
REMARK    9  A    between atoms: C9_10  and  C10_12 
REMARK   10  A    between atoms: C13_15  and  O1_16 
REMARK   11  A    between atoms: N2_19  and  C16_20 
ROOT
HETATM    1  C7  UNL     1      23.348   3.467  52.346  1.00  0.00     0.069 C 
ENDROOT
BRANCH   1   2
HETATM    2  C6  UNL     1      21.958   3.051  51.974  1.00  0.00     0.247 C 
BRANCH   2   3
HETATM    3  C5  UNL     1      21.749   1.659  52.449  1.00  0.00     0.010 C 
BRANCH   3   4
HETATM    4  C4  UNL     1      20.621   1.237  53.002  1.00  0.00     0.025 C 
BRANCH   4   5
HETATM    5  C3  UNL     1      20.264  -0.079  53.467  1.00  0.00     0.051 C 
HETATM    6 BR1  UNL     1      18.689  -1.075  53.251  1.00  0.00    -0.042 Br
BRANCH   5   7
HETATM    7  C2  UNL     1      21.259  -0.585  54.141  1.00  0.00    -0.136 C 
HETATM    8  C1  UNL     1      22.113  -1.240  54.915  1.00  0.00     0.098 C 
ENDBRANCH   5   7
ENDBRANCH   4   5
ENDBRANCH   3   4
ENDBRANCH   2   3
BRANCH   2   9
HETATM    9  N2  UNL     1      21.694   3.203  50.560  1.00  0.00     0.095 N 
HETATM   10  H16 UNL     1      21.957   4.140  50.243  1.00  0.00     0.317 HD
BRANCH   9  11
HETATM   11  C16 UNL     1      22.322   2.193  49.765  1.00  0.00     0.213 C 
HETATM   12  C17 UNL     1      23.244   2.848  48.740  1.00  0.00     0.042 C 
HETATM   13  C18 UNL     1      21.345   1.365  48.990  1.00  0.00     0.042 C 
ENDBRANCH   9  11
ENDBRANCH   2   9
ENDBRANCH   1   2
BRANCH   1  14
HETATM   14  C8  UNL     1      24.202   2.320  52.758  1.00  0.00     0.005 C 
HETATM   15  C9  UNL     1      25.418   2.238  52.239  1.00  0.00     0.032 C 
BRANCH  15  16
HETATM   16  N1  UNL     1      25.730   3.294  51.338  1.00  0.00    -0.399 N 
HETATM   17  H9  UNL     1      26.764   3.283  51.196  1.00  0.00     0.156 HD
HETATM   18  H10 UNL     1      24.965   3.912  50.950  1.00  0.00     0.156 HD
ENDBRANCH  15  16
BRANCH  15  19
HETATM   19  C10 UNL     1      26.338   1.159  52.570  1.00  0.00    -0.010 A 
HETATM   20  C11 UNL     1      26.103  -0.169  52.269  1.00  0.00     0.016 A 
HETATM   21  C12 UNL     1      27.049  -1.132  52.630  1.00  0.00     0.037 A 
HETATM   22  C13 UNL     1      28.228  -0.810  53.285  1.00  0.00     0.065 A 
HETATM   23  C14 UNL     1      28.438   0.512  53.572  1.00  0.00     0.037 A 
HETATM   24  C15 UNL     1      27.496   1.469  53.213  1.00  0.00     0.016 A 
BRANCH  22  25
HETATM   25  O1  UNL     1      29.155  -1.780  53.635  1.00  0.00    -0.361 OA
HETATM   26  H13 UNL     1      29.957  -2.018  53.075  1.00  0.00     0.217 HD
ENDBRANCH  22  25
ENDBRANCH  15  19
ENDBRANCH   1  14
TORSDOF 11
ENDMDL
MODEL 8
REMARK VINA RESULT:      -6.1      2.467      3.237
REMARK  11 active torsions:
REMARK  status: ('A' for Active; 'I' for Inactive)
REMARK    1  A    between atoms: C2_2  and  C3_3 
REMARK    2  A    between atoms: C3_3  and  C4_5 
REMARK    3  A    between atoms: C4_5  and  C5_6 
REMARK    4  A    between atoms: C5_6  and  C6_7 
REMARK    5  A    between atoms: C6_7  and  C7_8 
REMARK    6  A    between atoms: C6_7  and  N2_19 
REMARK    7  A    between atoms: C7_8  and  C8_9 
REMARK    8  A    between atoms: C9_10  and  N1_11 
REMARK    9  A    between atoms: C9_10  and  C10_12 
REMARK   10  A    between atoms: C13_15  and  O1_16 
REMARK   11  A    between atoms: N2_19  and  C16_20 
ROOT
HETATM    1  C7  UNL     1      23.855   4.100  50.969  1.00  0.00     0.069 C 
ENDROOT
BRANCH   1   2
HETATM    2  C6  UNL     1      24.452   5.137  50.068  1.00  0.00     0.247 C 
BRANCH   2   3
HETATM    3  C5  UNL     1      23.916   4.923  48.699  1.00  0.00     0.010 C 
BRANCH   3   4
HETATM    4  C4  UNL     1      22.679   4.514  48.456  1.00  0.00     0.025 C 
BRANCH   4   5
HETATM    5  C3  UNL     1      22.193   3.624  47.431  1.00  0.00     0.051 C 
HETATM    6 BR1  UNL     1      21.831   3.921  45.615  1.00  0.00    -0.042 Br
BRANCH   5   7
HETATM    7  C2  UNL     1      22.000   2.440  47.942  1.00  0.00    -0.136 C 
HETATM    8  C1  UNL     1      21.722   1.350  48.643  1.00  0.00     0.098 C 
ENDBRANCH   5   7
ENDBRANCH   4   5
ENDBRANCH   3   4
ENDBRANCH   2   3
BRANCH   2   9
HETATM    9  N2  UNL     1      25.898   5.137  50.106  1.00  0.00     0.095 N 
HETATM   10  H16 UNL     1      26.252   4.209  50.350  1.00  0.00     0.317 HD
BRANCH   9  11
HETATM   11  C16 UNL     1      26.486   5.612  48.890  1.00  0.00     0.213 C 
HETATM   12  C17 UNL     1      27.768   4.834  48.604  1.00  0.00     0.042 C 
HETATM   13  C18 UNL     1      26.871   7.058  48.952  1.00  0.00     0.042 C 
ENDBRANCH   9  11
ENDBRANCH   2   9
ENDBRANCH   1   2
BRANCH   1  14
HETATM   14  C8  UNL     1      24.769   2.952  51.212  1.00  0.00     0.005 C 
HETATM   15  C9  UNL     1      25.089   2.672  52.467  1.00  0.00     0.032 C 
BRANCH  15  16
HETATM   16  N1  UNL     1      24.489   3.541  53.420  1.00  0.00    -0.399 N 
HETATM   17  H9  UNL     1      25.197   4.269  53.663  1.00  0.00     0.156 HD
HETATM   18  H10 UNL     1      23.498   3.377  53.747  1.00  0.00     0.156 HD
ENDBRANCH  15  16
BRANCH  15  19
HETATM   19  C10 UNL     1      25.975   1.572  52.821  1.00  0.00    -0.010 A 
HETATM   20  C11 UNL     1      26.675   1.504  54.010  1.00  0.00     0.016 A 
HETATM   21  C12 UNL     1      27.501   0.404  54.256  1.00  0.00     0.037 A 
HETATM   22  C13 UNL     1      27.652  -0.634  53.350  1.00  0.00     0.065 A 
HETATM   23  C14 UNL     1      26.948  -0.544  52.178  1.00  0.00     0.037 A 
HETATM   24  C15 UNL     1      26.127   0.551  51.934  1.00  0.00     0.016 A 
BRANCH  22  25
HETATM   25  O1  UNL     1      28.478  -1.717  53.613  1.00  0.00    -0.361 OA
HETATM   26  H13 UNL     1      29.214  -1.708  54.299  1.00  0.00     0.217 HD
ENDBRANCH  22  25
ENDBRANCH  15  19
ENDBRANCH   1  14
TORSDOF 11
ENDMDL
MODEL 9
REMARK VINA RESULT:      -5.9      2.403      4.216
REMARK  11 active torsions:
REMARK  status: ('A' for Active; 'I' for Inactive)
REMARK    1  A    between atoms: C2_2  and  C3_3 
REMARK    2  A    between atoms: C3_3  and  C4_5 
REMARK    3  A    between atoms: C4_5  and  C5_6 
REMARK    4  A    between atoms: C5_6  and  C6_7 
REMARK    5  A    between atoms: C6_7  and  C7_8 
REMARK    6  A    between atoms: C6_7  and  N2_19 
REMARK    7  A    between atoms: C7_8  and  C8_9 
REMARK    8  A    between atoms: C9_10  and  N1_11 
REMARK    9  A    between atoms: C9_10  and  C10_12 
REMARK   10  A    between atoms: C13_15  and  O1_16 
REMARK   11  A    between atoms: N2_19  and  C16_20 
ROOT
HETATM    1  C7  UNL     1      23.032   2.093  51.658  1.00  0.00     0.069 C 
ENDROOT
BRANCH   1   2
HETATM    2  C6  UNL     1      22.509   1.945  50.262  1.00  0.00     0.247 C 
BRANCH   2   3
HETATM    3  C5  UNL     1      23.357   2.768  49.361  1.00  0.00     0.010 C 
BRANCH   3   4
HETATM    4  C4  UNL     1      23.419   4.090  49.424  1.00  0.00     0.025 C 
BRANCH   4   5
HETATM    5  C3  UNL     1      24.446   4.934  49.983  1.00  0.00     0.051 C 
HETATM    6 BR1  UNL     1      24.339   6.602  50.834  1.00  0.00    -0.042 Br
BRANCH   5   7
HETATM    7  C2  UNL     1      25.608   4.364  49.824  1.00  0.00    -0.136 C 
HETATM    8  C1  UNL     1      26.770   3.852  49.444  1.00  0.00     0.098 C 
ENDBRANCH   5   7
ENDBRANCH   4   5
ENDBRANCH   3   4
ENDBRANCH   2   3
BRANCH   2   9
HETATM    9  N2  UNL     1      21.104   2.274  50.159  1.00  0.00     0.095 N 
HETATM   10  H16 UNL     1      20.688   1.825  49.339  1.00  0.00     0.317 HD
BRANCH   9  11
HETATM   11  C16 UNL     1      20.371   1.959  51.347  1.00  0.00     0.213 C 
HETATM   12  C17 UNL     1      19.518   0.716  51.109  1.00  0.00     0.042 C 
HETATM   13  C18 UNL     1      19.429   3.048  51.759  1.00  0.00     0.042 C 
ENDBRANCH   9  11
ENDBRANCH   2   9
ENDBRANCH   1   2
BRANCH   1  14
HETATM   14  C8  UNL     1      24.324   1.385  51.867  1.00  0.00     0.005 C 
HETATM   15  C9  UNL     1      25.218   1.954  52.662  1.00  0.00     0.032 C 
BRANCH  15  16
HETATM   16  N1  UNL     1      24.792   3.196  53.210  1.00  0.00    -0.399 N 
HETATM   17  H9  UNL     1      23.848   3.400  52.813  1.00  0.00     0.156 HD
HETATM   18  H10 UNL     1      25.408   3.724  53.886  1.00  0.00     0.156 HD
ENDBRANCH  15  16
BRANCH  15  19
HETATM   19  C10 UNL     1      26.515   1.351  52.938  1.00  0.00    -0.010 A 
HETATM   20  C11 UNL     1      27.631   2.072  53.314  1.00  0.00     0.016 A 
HETATM   21  C12 UNL     1      28.832   1.400  53.557  1.00  0.00     0.037 A 
HETATM   22  C13 UNL     1      28.954   0.024  53.435  1.00  0.00     0.065 A 
HETATM   23  C14 UNL     1      27.834  -0.669  53.060  1.00  0.00     0.037 A 
HETATM   24  C15 UNL     1      26.640   0.001  52.819  1.00  0.00     0.016 A 
BRANCH  22  25
HETATM   25  O1  UNL     1      30.155  -0.625  53.680  1.00  0.00    -0.361 OA
HETATM   26  H13 UNL     1      30.497  -1.397  53.133  1.00  0.00     0.217 HD
ENDBRANCH  22  25
ENDBRANCH  15  19
ENDBRANCH   1  14
TORSDOF 11
ENDMDL
