MODEL 1
REMARK VINA RESULT:      -7.7      0.000      0.000
REMARK  2 active torsions:
REMARK  status: ('A' for Active; 'I' for Inactive)
REMARK    1  A    between atoms: C4_6  and  C5_7 
REMARK    2  A    between atoms: C12_16  and  N3_17 
ROOT
HETATM    1  C1  UNL     1      23.017  -1.213  55.398  1.00  0.00     0.066 C 
HETATM    2  C2  UNL     1      22.401  -0.499  54.252  1.00  0.00     0.013 C 
HETATM    3  N1  UNL     1      23.403  -0.175  53.524  1.00  0.00    -0.251 NA
HETATM    4  C3  UNL     1      23.315   0.535  52.304  1.00  0.00     0.233 C 
HETATM    5  N2  UNL     1      23.196   0.978  51.151  1.00  0.00    -0.239 NA
HETATM    6  C4  UNL     1      23.280   2.205  50.528  1.00  0.00     0.093 C 
HETATM    7  C12 UNL     1      22.260   2.152  49.634  1.00  0.00     0.066 C 
HETATM    8  C15 UNL     1      21.300   1.062  49.313  1.00  0.00     0.088 C 
HETATM    9  C16 UNL     1      19.874   1.380  49.675  1.00  0.00     0.180 C 
HETATM   10  O2  UNL     1      19.757   1.650  51.073  1.00  0.00    -0.363 OA
HETATM   11  C17 UNL     1      19.688   0.546  51.955  1.00  0.00     0.131 C 
HETATM   12  C18 UNL     1      20.338   0.223  53.048  1.00  0.00     0.003 C 
HETATM   13  C19 UNL     1      20.916  -0.336  54.255  1.00  0.00     0.083 C 
ENDROOT
BRANCH   6  14
HETATM   14  C5  UNL     1      23.998   3.471  50.408  1.00  0.00     0.003 A 
HETATM   15  C6  UNL     1      25.140   3.363  49.601  1.00  0.00     0.017 A 
HETATM   16  C7  UNL     1      25.971   4.458  49.332  1.00  0.00     0.045 A 
HETATM   17  C8  UNL     1      25.550   5.619  49.934  1.00  0.00     0.138 A 
HETATM   18  F1  UNL     1      26.325   6.720  49.705  1.00  0.00    -0.204 F 
HETATM   19  C9  UNL     1      24.453   5.819  50.734  1.00  0.00     0.079 A 
HETATM   20 CL1  UNL     1      23.989   7.337  51.462  1.00  0.00    -0.080 Cl
HETATM   21  C10 UNL     1      23.686   4.695  50.952  1.00  0.00    -0.025 A 
HETATM   22  C11 UNL     1      22.470   4.810  51.791  1.00  0.00     0.051 C 
ENDBRANCH   6  14
BRANCH   7  23
HETATM   23  N3  UNL     1      21.849   3.171  48.691  1.00  0.00    -0.258 N 
HETATM   24  C13 UNL     1      22.101   3.141  47.265  1.00  0.00     0.184 C 
HETATM   25  C14 UNL     1      21.857   4.623  47.336  1.00  0.00     0.223 C 
HETATM   26  O1  UNL     1      21.223   4.358  48.527  1.00  0.00    -0.276 OA
ENDBRANCH   7  23
TORSDOF 2
ENDMDL
MODEL 2
REMARK VINA RESULT:      -7.6      2.940      4.543
REMARK  2 active torsions:
REMARK  status: ('A' for Active; 'I' for Inactive)
REMARK    1  A    between atoms: C4_6  and  C5_7 
REMARK    2  A    between atoms: C12_16  and  N3_17 
ROOT
HETATM    1  C1  UNL     1      29.426   0.610  53.607  1.00  0.00     0.066 C 
HETATM    2  C2  UNL     1      27.954   0.454  53.721  1.00  0.00     0.013 C 
HETATM    3  N1  UNL     1      27.513   0.932  52.619  1.00  0.00    -0.251 NA
HETATM    4  C3  UNL     1      26.146   1.004  52.264  1.00  0.00     0.233 C 
HETATM    5  N2  UNL     1      24.968   0.873  51.893  1.00  0.00    -0.239 NA
HETATM    6  C4  UNL     1      23.835   1.656  51.840  1.00  0.00     0.093 C 
HETATM    7  C12 UNL     1      22.858   0.787  52.206  1.00  0.00     0.066 C 
HETATM    8  C15 UNL     1      22.916  -0.663  52.534  1.00  0.00     0.088 C 
HETATM    9  C16 UNL     1      22.591  -0.975  53.971  1.00  0.00     0.180 C 
HETATM   10  O2  UNL     1      23.497  -0.305  54.849  1.00  0.00    -0.363 OA
HETATM   11  C17 UNL     1      24.769  -0.889  55.056  1.00  0.00     0.131 C 
HETATM   12  C18 UNL     1      25.995  -0.426  54.992  1.00  0.00     0.003 C 
HETATM   13  C19 UNL     1      27.417  -0.143  54.981  1.00  0.00     0.083 C 
ENDROOT
BRANCH   6  14
HETATM   14  C5  UNL     1      23.264   2.965  51.533  1.00  0.00     0.003 A 
HETATM   15  C6  UNL     1      23.265   3.820  52.645  1.00  0.00     0.017 A 
HETATM   16  C7  UNL     1      22.781   5.133  52.577  1.00  0.00     0.045 A 
HETATM   17  C8  UNL     1      22.318   5.477  51.331  1.00  0.00     0.138 A 
HETATM   18  F1  UNL     1      21.834   6.748  51.208  1.00  0.00    -0.204 F 
HETATM   19  C9  UNL     1      22.279   4.712  50.191  1.00  0.00     0.079 A 
HETATM   20 CL1  UNL     1      21.671   5.231  48.639  1.00  0.00    -0.080 Cl
HETATM   21  C10 UNL     1      22.772   3.434  50.338  1.00  0.00    -0.025 A 
HETATM   22  C11 UNL     1      22.789   2.534  49.162  1.00  0.00     0.051 C 
ENDBRANCH   6  14
BRANCH   7  23
HETATM   23  N3  UNL     1      21.440   1.046  52.338  1.00  0.00    -0.258 N 
HETATM   24  C13 UNL     1      20.419   0.608  51.408  1.00  0.00     0.184 C 
HETATM   25  C14 UNL     1      19.588   1.695  52.030  1.00  0.00     0.223 C 
HETATM   26  O1  UNL     1      20.472   1.629  53.081  1.00  0.00    -0.276 OA
ENDBRANCH   7  23
TORSDOF 2
ENDMDL
MODEL 3
REMARK VINA RESULT:      -7.4      2.749      4.047
REMARK  2 active torsions:
REMARK  status: ('A' for Active; 'I' for Inactive)
REMARK    1  A    between atoms: C4_6  and  C5_7 
REMARK    2  A    between atoms: C12_16  and  N3_17 
ROOT
HETATM    1  C1  UNL     1      19.306  -1.295  53.818  1.00  0.00     0.066 C 
HETATM    2  C2  UNL     1      20.551  -0.587  53.426  1.00  0.00     0.013 C 
HETATM    3  N1  UNL     1      20.127   0.480  52.860  1.00  0.00    -0.251 NA
HETATM    4  C3  UNL     1      20.959   1.483  52.310  1.00  0.00     0.233 C 
HETATM    5  N2  UNL     1      21.701   2.434  52.019  1.00  0.00    -0.239 NA
HETATM    6  C4  UNL     1      22.291   2.940  50.881  1.00  0.00     0.093 C 
HETATM    7  C12 UNL     1      23.524   3.300  51.323  1.00  0.00     0.066 C 
HETATM    8  C15 UNL     1      24.126   3.248  52.682  1.00  0.00     0.088 C 
HETATM    9  C16 UNL     1      25.271   2.278  52.804  1.00  0.00     0.180 C 
HETATM   10  O2  UNL     1      24.846   0.954  52.477  1.00  0.00    -0.363 OA
HETATM   11  C17 UNL     1      24.169   0.212  53.474  1.00  0.00     0.131 C 
HETATM   12  C18 UNL     1      23.043  -0.461  53.490  1.00  0.00     0.003 C 
HETATM   13  C19 UNL     1      21.852  -1.250  53.742  1.00  0.00     0.083 C 
ENDROOT
BRANCH   6  14
HETATM   14  C5  UNL     1      22.141   3.269  49.465  1.00  0.00     0.003 A 
HETATM   15  C6  UNL     1      22.548   2.221  48.628  1.00  0.00     0.017 A 
HETATM   16  C7  UNL     1      22.475   2.308  47.232  1.00  0.00     0.045 A 
HETATM   17  C8  UNL     1      21.972   3.507  46.790  1.00  0.00     0.138 A 
HETATM   18  F1  UNL     1      21.878   3.647  45.434  1.00  0.00    -0.204 F 
HETATM   19  C9  UNL     1      21.550   4.584  47.530  1.00  0.00     0.079 A 
HETATM   20 CL1  UNL     1      20.921   6.079  46.883  1.00  0.00    -0.080 Cl
HETATM   21  C10 UNL     1      21.653   4.421  48.894  1.00  0.00    -0.025 A 
HETATM   22  C11 UNL     1      21.209   5.521  49.782  1.00  0.00     0.051 C 
ENDBRANCH   6  14
BRANCH   7  23
HETATM   23  N3  UNL     1      24.604   3.893  50.563  1.00  0.00    -0.258 N 
HETATM   24  C13 UNL     1      24.912   5.308  50.509  1.00  0.00     0.184 C 
HETATM   25  C14 UNL     1      25.644   4.954  49.244  1.00  0.00     0.223 C 
HETATM   26  O1  UNL     1      25.638   3.666  49.723  1.00  0.00    -0.276 OA
ENDBRANCH   7  23
TORSDOF 2
ENDMDL
MODEL 4
REMARK VINA RESULT:      -7.3      1.423      2.060
REMARK  2 active torsions:
REMARK  status: ('A' for Active; 'I' for Inactive)
REMARK    1  A    between atoms: C4_6  and  C5_7 
REMARK    2  A    between atoms: C12_16  and  N3_17 
ROOT
HETATM    1  C1  UNL     1      25.127  -0.805  54.784  1.00  0.00     0.066 C 
HETATM    2  C2  UNL     1      24.216  -0.168  53.801  1.00  0.00     0.013 C 
HETATM    3  N1  UNL     1      25.003   0.510  53.054  1.00  0.00    -0.251 NA
HETATM    4  C3  UNL     1      24.588   1.302  51.959  1.00  0.00     0.233 C 
HETATM    5  N2  UNL     1      24.226   1.824  50.892  1.00  0.00    -0.239 NA
HETATM    6  C4  UNL     1      23.902   3.087  50.446  1.00  0.00     0.093 C 
HETATM    7  C12 UNL     1      22.841   2.850  49.633  1.00  0.00     0.066 C 
HETATM    8  C15 UNL     1      22.185   1.576  49.233  1.00  0.00     0.088 C 
HETATM    9  C16 UNL     1      20.776   1.430  49.742  1.00  0.00     0.180 C 
HETATM   10  O2  UNL     1      20.747   1.492  51.169  1.00  0.00    -0.363 OA
HETATM   11  C17 UNL     1      21.081   0.319  51.886  1.00  0.00     0.131 C 
HETATM   12  C18 UNL     1      21.912   0.070  52.871  1.00  0.00     0.003 C 
HETATM   13  C19 UNL     1      22.752  -0.437  53.939  1.00  0.00     0.083 C 
ENDROOT
BRANCH   6  14
HETATM   14  C5  UNL     1      24.229   4.511  50.455  1.00  0.00     0.003 A 
HETATM   15  C6  UNL     1      23.309   5.265  51.199  1.00  0.00     0.017 A 
HETATM   16  C7  UNL     1      23.435   6.650  51.359  1.00  0.00     0.045 A 
HETATM   17  C8  UNL     1      24.535   7.172  50.722  1.00  0.00     0.138 A 
HETATM   18  F1  UNL     1      24.707   8.521  50.845  1.00  0.00    -0.204 F 
HETATM   19  C9  UNL     1      25.484   6.516  49.978  1.00  0.00     0.079 A 
HETATM   20 CL1  UNL     1      26.857   7.261  49.198  1.00  0.00    -0.080 Cl
HETATM   21  C10 UNL     1      25.290   5.156  49.866  1.00  0.00    -0.025 A 
HETATM   22  C11 UNL     1      26.269   4.355  49.096  1.00  0.00     0.051 C 
ENDBRANCH   6  14
BRANCH   7  23
HETATM   23  N3  UNL     1      22.065   3.811  48.879  1.00  0.00    -0.258 N 
HETATM   24  C13 UNL     1      22.264   4.135  47.480  1.00  0.00     0.184 C 
HETATM   25  C14 UNL     1      21.513   5.394  47.813  1.00  0.00     0.223 C 
HETATM   26  O1  UNL     1      21.054   4.709  48.913  1.00  0.00    -0.276 OA
ENDBRANCH   7  23
TORSDOF 2
ENDMDL
MODEL 5
REMARK VINA RESULT:      -7.3      2.321      3.418
REMARK  2 active torsions:
REMARK  status: ('A' for Active; 'I' for Inactive)
REMARK    1  A    between atoms: C4_6  and  C5_7 
REMARK    2  A    between atoms: C12_16  and  N3_17 
ROOT
HETATM    1  C1  UNL     1      27.610  -0.812  53.555  1.00  0.00     0.066 C 
HETATM    2  C2  UNL     1      26.171  -0.451  53.527  1.00  0.00     0.013 C 
HETATM    3  N1  UNL     1      26.041   0.192  52.427  1.00  0.00    -0.251 NA
HETATM    4  C3  UNL     1      24.828   0.747  51.958  1.00  0.00     0.233 C 
HETATM    5  N2  UNL     1      23.724   1.048  51.477  1.00  0.00    -0.239 NA
HETATM    6  C4  UNL     1      22.941   2.178  51.379  1.00  0.00     0.093 C 
HETATM    7  C12 UNL     1      21.692   1.691  51.594  1.00  0.00     0.066 C 
HETATM    8  C15 UNL     1      21.214   0.300  51.822  1.00  0.00     0.088 C 
HETATM    9  C16 UNL     1      20.649   0.068  53.197  1.00  0.00     0.180 C 
HETATM   10  O2  UNL     1      21.628   0.348  54.198  1.00  0.00    -0.363 OA
HETATM   11  C17 UNL     1      22.593  -0.649  54.474  1.00  0.00     0.131 C 
HETATM   12  C18 UNL     1      23.903  -0.640  54.553  1.00  0.00     0.003 C 
HETATM   13  C19 UNL     1      25.329  -0.869  54.689  1.00  0.00     0.083 C 
ENDROOT
BRANCH   6  14
HETATM   14  C5  UNL     1      22.890   3.614  51.118  1.00  0.00     0.003 A 
HETATM   15  C6  UNL     1      22.985   4.373  52.293  1.00  0.00     0.017 A 
HETATM   16  C7  UNL     1      22.976   5.774  52.280  1.00  0.00     0.045 A 
HETATM   17  C8  UNL     1      22.866   6.304  51.018  1.00  0.00     0.138 A 
HETATM   18  F1  UNL     1      22.851   7.668  50.947  1.00  0.00    -0.204 F 
HETATM   19  C9  UNL     1      22.768   5.644  49.818  1.00  0.00     0.079 A 
HETATM   20 CL1  UNL     1      22.631   6.400  48.250  1.00  0.00    -0.080 Cl
HETATM   21  C10 UNL     1      22.784   4.269  49.913  1.00  0.00    -0.025 A 
HETATM   22  C11 UNL     1      22.701   3.464  48.673  1.00  0.00     0.051 C 
ENDBRANCH   6  14
BRANCH   7  23
HETATM   23  N3  UNL     1      20.443   2.422  51.618  1.00  0.00    -0.258 N 
HETATM   24  C13 UNL     1      19.458   2.432  50.555  1.00  0.00     0.184 C 
HETATM   25  C14 UNL     1      18.978   3.698  51.207  1.00  0.00     0.223 C 
HETATM   26  O1  UNL     1      19.648   3.257  52.323  1.00  0.00    -0.276 OA
ENDBRANCH   7  23
TORSDOF 2
ENDMDL
MODEL 6
REMARK VINA RESULT:      -6.9      3.085      5.639
REMARK  2 active torsions:
REMARK  status: ('A' for Active; 'I' for Inactive)
REMARK    1  A    between atoms: C4_6  and  C5_7 
REMARK    2  A    between atoms: C12_16  and  N3_17 
ROOT
HETATM    1  C1  UNL     1      20.579   9.152  49.404  1.00  0.00     0.066 C 
HETATM    2  C2  UNL     1      20.444   7.700  49.681  1.00  0.00     0.013 C 
HETATM    3  N1  UNL     1      21.301   7.488  50.609  1.00  0.00    -0.251 NA
HETATM    4  C3  UNL     1      21.543   6.230  51.207  1.00  0.00     0.233 C 
HETATM    5  N2  UNL     1      21.594   5.170  51.850  1.00  0.00    -0.239 NA
HETATM    6  C4  UNL     1      22.384   4.041  51.870  1.00  0.00     0.093 C 
HETATM    7  C12 UNL     1      21.478   3.049  52.062  1.00  0.00     0.066 C 
HETATM    8  C15 UNL     1      20.005   3.101  52.268  1.00  0.00     0.088 C 
HETATM    9  C16 UNL     1      19.211   2.485  51.146  1.00  0.00     0.180 C 
HETATM   10  O2  UNL     1      19.491   3.144  49.910  1.00  0.00    -0.363 OA
HETATM   11  C17 UNL     1      18.827   4.366  49.650  1.00  0.00     0.131 C 
HETATM   12  C18 UNL     1      19.239   5.554  49.272  1.00  0.00     0.003 C 
HETATM   13  C19 UNL     1      19.457   6.929  48.867  1.00  0.00     0.083 C 
ENDROOT
BRANCH   6  14
HETATM   14  C5  UNL     1      23.736   3.490  51.809  1.00  0.00     0.003 A 
HETATM   15  C6  UNL     1      24.195   3.061  53.062  1.00  0.00     0.017 A 
HETATM   16  C7  UNL     1      25.459   2.483  53.237  1.00  0.00     0.045 A 
HETATM   17  C8  UNL     1      26.177   2.386  52.071  1.00  0.00     0.138 A 
HETATM   18  F1  UNL     1      27.419   1.828  52.183  1.00  0.00    -0.204 F 
HETATM   19  C9  UNL     1      25.812   2.776  50.806  1.00  0.00     0.079 A 
HETATM   20 CL1  UNL     1      26.793   2.615  49.370  1.00  0.00    -0.080 Cl
HETATM   21  C10 UNL     1      24.556   3.336  50.715  1.00  0.00    -0.025 A 
HETATM   22  C11 UNL     1      24.062   3.775  49.390  1.00  0.00     0.051 C 
ENDBRANCH   6  14
BRANCH   7  23
HETATM   23  N3  UNL     1      21.722   1.626  52.163  1.00  0.00    -0.258 N 
HETATM   24  C13 UNL     1      21.445   0.809  53.328  1.00  0.00     0.184 C 
HETATM   25  C14 UNL     1      22.425  -0.150  52.711  1.00  0.00     0.223 C 
HETATM   26  O1  UNL     1      22.186   0.522  51.536  1.00  0.00    -0.276 OA
ENDBRANCH   7  23
TORSDOF 2
ENDMDL
MODEL 7
REMARK VINA RESULT:      -6.8      3.108      6.281
REMARK  2 active torsions:
REMARK  status: ('A' for Active; 'I' for Inactive)
REMARK    1  A    between atoms: C4_6  and  C5_7 
REMARK    2  A    between atoms: C12_16  and  N3_17 
ROOT
HETATM    1  C1  UNL     1      26.053   9.227  50.085  1.00  0.00     0.066 C 
HETATM    2  C2  UNL     1      25.201   8.101  49.628  1.00  0.00     0.013 C 
HETATM    3  N1  UNL     1      24.873   7.509  50.715  1.00  0.00    -0.251 NA
HETATM    4  C3  UNL     1      24.055   6.358  50.788  1.00  0.00     0.233 C 
HETATM    5  N2  UNL     1      23.181   5.478  50.841  1.00  0.00    -0.239 NA
HETATM    6  C4  UNL     1      23.139   4.104  50.940  1.00  0.00     0.093 C 
HETATM    7  C12 UNL     1      22.125   3.778  50.099  1.00  0.00     0.066 C 
HETATM    8  C15 UNL     1      21.212   4.634  49.295  1.00  0.00     0.088 C 
HETATM    9  C16 UNL     1      21.392   4.489  47.808  1.00  0.00     0.180 C 
HETATM   10  O2  UNL     1      22.729   4.819  47.428  1.00  0.00    -0.363 OA
HETATM   11  C17 UNL     1      23.055   6.189  47.288  1.00  0.00     0.131 C 
HETATM   12  C18 UNL     1      24.025   6.938  47.759  1.00  0.00     0.003 C 
HETATM   13  C19 UNL     1      24.987   7.948  48.157  1.00  0.00     0.083 C 
ENDROOT
BRANCH   6  14
HETATM   14  C5  UNL     1      23.684   2.903  51.571  1.00  0.00     0.003 A 
HETATM   15  C6  UNL     1      22.809   2.356  52.520  1.00  0.00     0.017 A 
HETATM   16  C7  UNL     1      23.116   1.192  53.236  1.00  0.00     0.045 A 
HETATM   17  C8  UNL     1      24.341   0.663  52.910  1.00  0.00     0.138 A 
HETATM   18  F1  UNL     1      24.692  -0.475  53.579  1.00  0.00    -0.204 F 
HETATM   19  C9  UNL     1      25.258   1.126  51.999  1.00  0.00     0.079 A 
HETATM   20 CL1  UNL     1      26.801   0.387  51.645  1.00  0.00    -0.080 Cl
HETATM   21  C10 UNL     1      24.884   2.274  51.336  1.00  0.00    -0.025 A 
HETATM   22  C11 UNL     1      25.798   2.846  50.321  1.00  0.00     0.051 C 
ENDBRANCH   6  14
BRANCH   7  23
HETATM   23  N3  UNL     1      21.617   2.459  49.784  1.00  0.00    -0.258 N 
HETATM   24  C13 UNL     1      20.293   1.971  50.115  1.00  0.00     0.184 C 
HETATM   25  C14 UNL     1      20.906   0.610  49.929  1.00  0.00     0.223 C 
HETATM   26  O1  UNL     1      21.886   1.261  49.219  1.00  0.00    -0.276 OA
ENDBRANCH   7  23
TORSDOF 2
ENDMDL
MODEL 8
REMARK VINA RESULT:      -6.8      8.449     11.654
REMARK  2 active torsions:
REMARK  status: ('A' for Active; 'I' for Inactive)
REMARK    1  A    between atoms: C4_6  and  C5_7 
REMARK    2  A    between atoms: C12_16  and  N3_17 
ROOT
HETATM    1  C1  UNL     1      25.812   6.513  49.215  1.00  0.00     0.066 C 
HETATM    2  C2  UNL     1      27.029   7.321  48.953  1.00  0.00     0.013 C 
HETATM    3  N1  UNL     1      27.648   6.652  48.054  1.00  0.00    -0.251 NA
HETATM    4  C3  UNL     1      28.884   7.029  47.479  1.00  0.00     0.233 C 
HETATM    5  N2  UNL     1      29.857   7.479  46.852  1.00  0.00    -0.239 NA
HETATM    6  C4  UNL     1      31.226   7.324  46.870  1.00  0.00     0.093 C 
HETATM    7  C12 UNL     1      31.669   8.591  46.665  1.00  0.00     0.066 C 
HETATM    8  C15 UNL     1      30.925   9.855  46.415  1.00  0.00     0.088 C 
HETATM    9  C16 UNL     1      31.058  10.868  47.521  1.00  0.00     0.180 C 
HETATM   10  O2  UNL     1      30.581  10.332  48.756  1.00  0.00    -0.363 OA
HETATM   11  C17 UNL     1      29.184  10.336  48.980  1.00  0.00     0.131 C 
HETATM   12  C18 UNL     1      28.328   9.414  49.354  1.00  0.00     0.003 C 
HETATM   13  C19 UNL     1      27.214   8.573  49.748  1.00  0.00     0.083 C 
ENDROOT
BRANCH   6  14
HETATM   14  C5  UNL     1      32.354   6.402  46.979  1.00  0.00     0.003 A 
HETATM   15  C6  UNL     1      32.723   6.166  48.311  1.00  0.00     0.017 A 
HETATM   16  C7  UNL     1      33.769   5.300  48.654  1.00  0.00     0.045 A 
HETATM   17  C8  UNL     1      34.374   4.723  47.565  1.00  0.00     0.138 A 
HETATM   18  F1  UNL     1      35.403   3.867  47.842  1.00  0.00    -0.204 F 
HETATM   19  C9  UNL     1      34.082   4.891  46.234  1.00  0.00     0.079 A 
HETATM   20 CL1  UNL     1      34.908   4.114  44.906  1.00  0.00    -0.080 Cl
HETATM   21  C10 UNL     1      33.042   5.758  45.978  1.00  0.00    -0.025 A 
HETATM   22  C11 UNL     1      32.639   5.996  44.573  1.00  0.00     0.051 C 
ENDBRANCH   6  14
BRANCH   7  23
HETATM   23  N3  UNL     1      33.038   9.055  46.590  1.00  0.00    -0.258 N 
HETATM   24  C13 UNL     1      33.710   9.488  45.381  1.00  0.00     0.184 C 
HETATM   25  C14 UNL     1      34.970   9.220  46.157  1.00  0.00     0.223 C 
HETATM   26  O1  UNL     1      34.176   9.301  47.276  1.00  0.00    -0.276 OA
ENDBRANCH   7  23
TORSDOF 2
ENDMDL
MODEL 9
REMARK VINA RESULT:      -6.7      2.577      4.278
REMARK  2 active torsions:
REMARK  status: ('A' for Active; 'I' for Inactive)
REMARK    1  A    between atoms: C4_6  and  C5_7 
REMARK    2  A    between atoms: C12_16  and  N3_17 
ROOT
HETATM    1  C1  UNL     1      15.538   3.308  51.349  1.00  0.00     0.066 C 
HETATM    2  C2  UNL     1      16.864   2.653  51.475  1.00  0.00     0.013 C 
HETATM    3  N1  UNL     1      17.658   3.624  51.733  1.00  0.00    -0.251 NA
HETATM    4  C3  UNL     1      19.051   3.491  51.937  1.00  0.00     0.233 C 
HETATM    5  N2  UNL     1      20.224   3.324  52.306  1.00  0.00    -0.239 NA
HETATM    6  C4  UNL     1      21.480   3.409  51.744  1.00  0.00     0.093 C 
HETATM    7  C12 UNL     1      22.119   2.341  52.287  1.00  0.00     0.066 C 
HETATM    8  C15 UNL     1      21.663   1.336  53.284  1.00  0.00     0.088 C 
HETATM    9  C16 UNL     1      21.547  -0.060  52.732  1.00  0.00     0.180 C 
HETATM   10  O2  UNL     1      20.624  -0.095  51.642  1.00  0.00    -0.363 OA
HETATM   11  C17 UNL     1      19.244  -0.148  51.947  1.00  0.00     0.131 C 
HETATM   12  C18 UNL     1      18.205   0.550  51.552  1.00  0.00     0.003 C 
HETATM   13  C19 UNL     1      16.928   1.175  51.265  1.00  0.00     0.083 C 
ENDROOT
BRANCH   6  14
HETATM   14  C5  UNL     1      22.384   4.155  50.872  1.00  0.00     0.003 A 
HETATM   15  C6  UNL     1      22.246   3.791  49.525  1.00  0.00     0.017 A 
HETATM   16  C7  UNL     1      23.001   4.390  48.508  1.00  0.00     0.045 A 
HETATM   17  C8  UNL     1      23.868   5.349  48.971  1.00  0.00     0.138 A 
HETATM   18  F1  UNL     1      24.630   5.967  48.020  1.00  0.00    -0.204 F 
HETATM   19  C9  UNL     1      24.069   5.771  50.262  1.00  0.00     0.079 A 
HETATM   20 CL1  UNL     1      25.199   7.004  50.764  1.00  0.00    -0.080 Cl
HETATM   21  C10 UNL     1      23.291   5.134  51.204  1.00  0.00    -0.025 A 
HETATM   22  C11 UNL     1      23.422   5.528  52.625  1.00  0.00     0.051 C 
ENDBRANCH   6  14
BRANCH   7  23
HETATM   23  N3  UNL     1      23.482   1.910  52.061  1.00  0.00    -0.258 N 
HETATM   24  C13 UNL     1      24.554   1.974  53.034  1.00  0.00     0.184 C 
HETATM   25  C14 UNL     1      25.456   1.880  51.835  1.00  0.00     0.223 C 
HETATM   26  O1  UNL     1      24.357   1.381  51.176  1.00  0.00    -0.276 OA
ENDBRANCH   7  23
TORSDOF 2
ENDMDL
