MODEL 1
REMARK VINA RESULT:      -9.1      0.000      0.000
REMARK  7 active torsions:
REMARK  status: ('A' for Active; 'I' for Inactive)
REMARK    1  A    between atoms: C2_2  and  C3_3 
REMARK    2  A    between atoms: C2_2  and  N1_5 
REMARK    3  A    between atoms: N1_5  and  C4_6 
REMARK    4  A    between atoms: N1_5  and  C9_13 
REMARK    5  A    between atoms: C4_6  and  C5_7 
REMARK    6  A    between atoms: C14_20  and  N5_21 
REMARK    7  A    between atoms: N5_21  and  C15_22 
ROOT
HETATM    1  C9  UNL     1      22.243   2.131  51.072  1.00  0.00     0.031 A 
HETATM    2  C10 UNL     1      22.157   2.707  49.811  1.00  0.00     0.031 A 
HETATM    3  C11 UNL     1      23.205   3.258  49.108  1.00  0.00     0.035 A 
HETATM    4  C12 UNL     1      24.467   3.258  49.669  1.00  0.00     0.072 A 
HETATM    5  N3  UNL     1      25.489   3.785  49.002  1.00  0.00    -0.241 NA
HETATM    6  C13 UNL     1      26.729   3.806  49.510  1.00  0.00     0.236 A 
HETATM    7  N4  UNL     1      26.863   3.266  50.716  1.00  0.00    -0.224 NA
HETATM    8  C14 UNL     1      25.895   2.716  51.454  1.00  0.00     0.142 A 
HETATM    9  C21 UNL     1      24.630   2.702  50.921  1.00  0.00     0.041 A 
HETATM   10  C22 UNL     1      23.534   2.177  51.547  1.00  0.00     0.047 A 
ENDROOT
BRANCH   1  11
HETATM   11  N1  UNL     1      21.119   1.596  51.765  1.00  0.00    -0.372 N 
BRANCH  11  12
HETATM   12  C2  UNL     1      19.811   1.437  51.217  1.00  0.00     0.114 C 
HETATM   13  C1  UNL     1      19.111   0.138  51.611  1.00  0.00     0.035 C 
BRANCH  12  14
HETATM   14  C3  UNL     1      18.873   2.521  51.660  1.00  0.00     0.415 C 
HETATM   15  O1  UNL     1      18.394   3.589  52.042  1.00  0.00    -0.428 OA
ENDBRANCH  12  14
ENDBRANCH  11  12
BRANCH  11  16
HETATM   16  C4  UNL     1      21.318   1.094  53.097  1.00  0.00     0.161 C 
BRANCH  16  17
HETATM   17  C5  UNL     1      21.379  -0.368  53.307  1.00  0.00     0.261 C 
HETATM   18  C6  UNL     1      21.013  -0.952  54.609  1.00  0.00     0.204 C 
HETATM   19  O2  UNL     1      21.917  -2.035  54.867  1.00  0.00    -0.387 OA
HETATM   20  C7  UNL     1      23.072  -1.380  55.350  1.00  0.00     0.197 C 
HETATM   21  C8  UNL     1      23.609  -0.625  54.144  1.00  0.00     0.296 C 
HETATM   22  N2  UNL     1      22.761  -0.774  52.984  1.00  0.00     0.093 N 
HETATM   23  H15 UNL     1      22.698  -1.825  52.828  1.00  0.00     0.316 HD
ENDBRANCH  16  17
ENDBRANCH  11  16
ENDBRANCH   1  11
BRANCH   8  24
HETATM   24  N5  UNL     1      26.163   2.171  52.730  1.00  0.00    -0.340 N 
HETATM   25  H19 UNL     1      25.570   2.361  53.563  1.00  0.00     0.167 HD
BRANCH  24  26
HETATM   26  C15 UNL     1      27.231   1.317  53.092  1.00  0.00     0.035 A 
HETATM   27  C16 UNL     1      28.401   1.727  53.695  1.00  0.00     0.032 A 
HETATM   28  C17 UNL     1      29.453   0.909  54.040  1.00  0.00     0.046 A 
HETATM   29  C18 UNL     1      29.345  -0.437  53.766  1.00  0.00     0.138 A 
HETATM   30  F1  UNL     1      30.335  -1.309  54.072  1.00  0.00    -0.204 F 
HETATM   31  C19 UNL     1      28.224  -0.935  53.170  1.00  0.00     0.074 A 
HETATM   32 CL1  UNL     1      28.063  -2.634  52.813  1.00  0.00    -0.081 Cl
HETATM   33  C20 UNL     1      27.220  -0.049  52.859  1.00  0.00     0.056 A 
ENDBRANCH  24  26
ENDBRANCH   8  24
TORSDOF 7
ENDMDL
MODEL 2
REMARK VINA RESULT:      -9.0      2.478      4.774
REMARK  7 active torsions:
REMARK  status: ('A' for Active; 'I' for Inactive)
REMARK    1  A    between atoms: C2_2  and  C3_3 
REMARK    2  A    between atoms: C2_2  and  N1_5 
REMARK    3  A    between atoms: N1_5  and  C4_6 
REMARK    4  A    between atoms: N1_5  and  C9_13 
REMARK    5  A    between atoms: C4_6  and  C5_7 
REMARK    6  A    between atoms: C14_20  and  N5_21 
REMARK    7  A    between atoms: N5_21  and  C15_22 
ROOT
HETATM    1  C9  UNL     1      21.072   1.585  52.118  1.00  0.00     0.031 A 
HETATM    2  C10 UNL     1      20.132   1.031  52.978  1.00  0.00     0.031 A 
HETATM    3  C11 UNL     1      20.403   0.151  54.002  1.00  0.00     0.035 A 
HETATM    4  C12 UNL     1      21.708  -0.239  54.228  1.00  0.00     0.072 A 
HETATM    5  N3  UNL     1      21.985  -1.087  55.214  1.00  0.00    -0.241 NA
HETATM    6  C13 UNL     1      23.238  -1.491  55.467  1.00  0.00     0.236 A 
HETATM    7  N4  UNL     1      24.173  -0.988  54.671  1.00  0.00    -0.224 NA
HETATM    8  C14 UNL     1      23.986  -0.133  53.662  1.00  0.00     0.142 A 
HETATM    9  C21 UNL     1      22.697   0.272  53.413  1.00  0.00     0.041 A 
HETATM   10  C22 UNL     1      22.338   1.140  52.421  1.00  0.00     0.047 A 
ENDROOT
BRANCH   1  11
HETATM   11  N1  UNL     1      20.733   2.474  51.059  1.00  0.00    -0.372 N 
BRANCH  11  12
HETATM   12  C2  UNL     1      20.384   2.082  49.731  1.00  0.00     0.114 C 
HETATM   13  C1  UNL     1      21.279   0.998  49.134  1.00  0.00     0.035 C 
BRANCH  12  14
HETATM   14  C3  UNL     1      18.998   1.514  49.651  1.00  0.00     0.415 C 
HETATM   15  O1  UNL     1      17.957   0.894  49.875  1.00  0.00    -0.428 OA
ENDBRANCH  12  14
ENDBRANCH  11  12
BRANCH  11  16
HETATM   16  C4  UNL     1      20.650   3.879  51.350  1.00  0.00     0.161 C 
BRANCH  16  17
HETATM   17  C5  UNL     1      21.711   4.777  50.846  1.00  0.00     0.261 C 
HETATM   18  C6  UNL     1      22.815   4.245  50.029  1.00  0.00     0.204 C 
HETATM   19  O2  UNL     1      24.011   4.934  50.416  1.00  0.00    -0.387 OA
HETATM   20  C7  UNL     1      24.401   4.262  51.597  1.00  0.00     0.197 C 
HETATM   21  C8  UNL     1      23.325   4.626  52.609  1.00  0.00     0.296 C 
HETATM   22  N2  UNL     1      22.285   5.444  52.031  1.00  0.00     0.093 N 
HETATM   23  H15 UNL     1      22.794   6.291  51.637  1.00  0.00     0.316 HD
ENDBRANCH  16  17
ENDBRANCH  11  16
ENDBRANCH   1  11
BRANCH   8  24
HETATM   24  N5  UNL     1      25.067   0.333  52.882  1.00  0.00    -0.340 N 
HETATM   25  H19 UNL     1      24.943   0.928  52.039  1.00  0.00     0.167 HD
BRANCH  24  26
HETATM   26  C15 UNL     1      26.446   0.089  53.091  1.00  0.00     0.035 A 
HETATM   27  C16 UNL     1      27.086  -1.101  52.821  1.00  0.00     0.032 A 
HETATM   28  C17 UNL     1      28.423  -1.357  53.033  1.00  0.00     0.046 A 
HETATM   29  C18 UNL     1      29.200  -0.348  53.559  1.00  0.00     0.138 A 
HETATM   30  F1  UNL     1      30.522  -0.519  53.798  1.00  0.00    -0.204 F 
HETATM   31  C19 UNL     1      28.653   0.864  53.858  1.00  0.00     0.074 A 
HETATM   32 CL1  UNL     1      29.615   2.156  54.525  1.00  0.00    -0.081 Cl
HETATM   33  C20 UNL     1      27.311   1.035  53.616  1.00  0.00     0.056 A 
ENDBRANCH  24  26
ENDBRANCH   8  24
TORSDOF 7
ENDMDL
MODEL 3
REMARK VINA RESULT:      -8.9      2.611      5.465
REMARK  7 active torsions:
REMARK  status: ('A' for Active; 'I' for Inactive)
REMARK    1  A    between atoms: C2_2  and  C3_3 
REMARK    2  A    between atoms: C2_2  and  N1_5 
REMARK    3  A    between atoms: N1_5  and  C4_6 
REMARK    4  A    between atoms: N1_5  and  C9_13 
REMARK    5  A    between atoms: C4_6  and  C5_7 
REMARK    6  A    between atoms: C14_20  and  N5_21 
REMARK    7  A    between atoms: N5_21  and  C15_22 
ROOT
HETATM    1  C9  UNL     1      22.155   2.455  51.375  1.00  0.00     0.031 A 
HETATM    2  C10 UNL     1      20.955   2.441  52.074  1.00  0.00     0.031 A 
HETATM    3  C11 UNL     1      20.651   1.607  53.127  1.00  0.00     0.035 A 
HETATM    4  C12 UNL     1      21.591   0.690  53.555  1.00  0.00     0.072 A 
HETATM    5  N3  UNL     1      21.311  -0.121  54.570  1.00  0.00    -0.241 NA
HETATM    6  C13 UNL     1      22.194  -1.025  55.017  1.00  0.00     0.236 A 
HETATM    7  N4  UNL     1      23.359  -1.051  54.379  1.00  0.00    -0.224 NA
HETATM    8  C14 UNL     1      23.723  -0.275  53.354  1.00  0.00     0.142 A 
HETATM    9  C21 UNL     1      22.808   0.646  52.907  1.00  0.00     0.041 A 
HETATM   10  C22 UNL     1      23.026   1.511  51.872  1.00  0.00     0.047 A 
ENDROOT
BRANCH   1  11
HETATM   11  N1  UNL     1      22.409   3.325  50.277  1.00  0.00    -0.372 N 
BRANCH  11  12
HETATM   12  C2  UNL     1      21.744   3.278  49.015  1.00  0.00     0.114 C 
HETATM   13  C1  UNL     1      22.513   3.931  47.867  1.00  0.00     0.035 C 
BRANCH  12  14
HETATM   14  C3  UNL     1      21.498   1.872  48.553  1.00  0.00     0.415 C 
HETATM   15  O1  UNL     1      21.591   0.663  48.337  1.00  0.00    -0.428 OA
ENDBRANCH  12  14
ENDBRANCH  11  12
BRANCH  11  16
HETATM   16  C4  UNL     1      23.350   4.396  50.462  1.00  0.00     0.161 C 
BRANCH  16  17
HETATM   17  C5  UNL     1      22.896   5.638  51.123  1.00  0.00     0.261 C 
HETATM   18  C6  UNL     1      22.211   6.690  50.352  1.00  0.00     0.204 C 
HETATM   19  O2  UNL     1      22.667   7.956  50.846  1.00  0.00    -0.387 OA
HETATM   20  C7  UNL     1      23.913   8.123  50.199  1.00  0.00     0.197 C 
HETATM   21  C8  UNL     1      24.803   7.054  50.814  1.00  0.00     0.296 C 
HETATM   22  N2  UNL     1      24.091   6.227  51.759  1.00  0.00     0.093 N 
HETATM   23  H15 UNL     1      23.699   6.910  52.476  1.00  0.00     0.316 HD
ENDBRANCH  16  17
ENDBRANCH  11  16
ENDBRANCH   1  11
BRANCH   8  24
HETATM   24  N5  UNL     1      24.997  -0.398  52.756  1.00  0.00    -0.340 N 
HETATM   25  H19 UNL     1      25.169  -0.966  51.902  1.00  0.00     0.167 HD
BRANCH  24  26
HETATM   26  C15 UNL     1      26.209   0.194  53.185  1.00  0.00     0.035 A 
HETATM   27  C16 UNL     1      26.363   1.521  53.522  1.00  0.00     0.032 A 
HETATM   28  C17 UNL     1      27.539   2.113  53.927  1.00  0.00     0.046 A 
HETATM   29  C18 UNL     1      28.666   1.325  54.007  1.00  0.00     0.138 A 
HETATM   30  F1  UNL     1      29.862   1.830  54.396  1.00  0.00    -0.204 F 
HETATM   31  C19 UNL     1      28.610  -0.000  53.693  1.00  0.00     0.074 A 
HETATM   32 CL1  UNL     1      30.023  -1.017  53.785  1.00  0.00    -0.081 Cl
HETATM   33  C20 UNL     1      27.396  -0.510  53.297  1.00  0.00     0.056 A 
ENDBRANCH  24  26
ENDBRANCH   8  24
TORSDOF 7
ENDMDL
MODEL 4
REMARK VINA RESULT:      -8.9      2.825      5.138
REMARK  7 active torsions:
REMARK  status: ('A' for Active; 'I' for Inactive)
REMARK    1  A    between atoms: C2_2  and  C3_3 
REMARK    2  A    between atoms: C2_2  and  N1_5 
REMARK    3  A    between atoms: N1_5  and  C4_6 
REMARK    4  A    between atoms: N1_5  and  C9_13 
REMARK    5  A    between atoms: C4_6  and  C5_7 
REMARK    6  A    between atoms: C14_20  and  N5_21 
REMARK    7  A    between atoms: N5_21  and  C15_22 
ROOT
HETATM    1  C9  UNL     1      21.313   1.100  52.083  1.00  0.00     0.031 A 
HETATM    2  C10 UNL     1      20.398   0.633  53.017  1.00  0.00     0.031 A 
HETATM    3  C11 UNL     1      20.702  -0.122  54.129  1.00  0.00     0.035 A 
HETATM    4  C12 UNL     1      22.017  -0.464  54.373  1.00  0.00     0.072 A 
HETATM    5  N3  UNL     1      22.325  -1.191  55.442  1.00  0.00    -0.241 NA
HETATM    6  C13 UNL     1      23.589  -1.545  55.715  1.00  0.00     0.236 A 
HETATM    7  N4  UNL     1      24.502  -1.121  54.850  1.00  0.00    -0.224 NA
HETATM    8  C14 UNL     1      24.282  -0.389  53.755  1.00  0.00     0.142 A 
HETATM    9  C21 UNL     1      22.983  -0.034  53.487  1.00  0.00     0.041 A 
HETATM   10  C22 UNL     1      22.593   0.711  52.409  1.00  0.00     0.047 A 
ENDROOT
BRANCH   1  11
HETATM   11  N1  UNL     1      20.941   1.859  50.936  1.00  0.00    -0.372 N 
BRANCH  11  12
HETATM   12  C2  UNL     1      20.441   1.316  49.714  1.00  0.00     0.114 C 
HETATM   13  C1  UNL     1      19.224   2.044  49.147  1.00  0.00     0.035 C 
BRANCH  12  14
HETATM   14  C3  UNL     1      21.458   1.364  48.612  1.00  0.00     0.415 C 
HETATM   15  O1  UNL     1      22.288   1.738  47.782  1.00  0.00    -0.428 OA
ENDBRANCH  12  14
ENDBRANCH  11  12
BRANCH  11  16
HETATM   16  C4  UNL     1      20.988   3.292  51.025  1.00  0.00     0.161 C 
BRANCH  16  17
HETATM   17  C5  UNL     1      22.303   3.966  51.010  1.00  0.00     0.261 C 
HETATM   18  C6  UNL     1      22.636   4.981  52.025  1.00  0.00     0.204 C 
HETATM   19  O2  UNL     1      23.385   6.015  51.373  1.00  0.00    -0.387 OA
HETATM   20  C7  UNL     1      22.384   6.792  50.748  1.00  0.00     0.197 C 
HETATM   21  C8  UNL     1      21.829   5.887  49.660  1.00  0.00     0.296 C 
HETATM   22  N2  UNL     1      22.439   4.578  49.673  1.00  0.00     0.093 N 
HETATM   23  H15 UNL     1      23.482   4.765  49.573  1.00  0.00     0.316 HD
ENDBRANCH  16  17
ENDBRANCH  11  16
ENDBRANCH   1  11
BRANCH   8  24
HETATM   24  N5  UNL     1      25.343   0.003  52.907  1.00  0.00    -0.340 N 
HETATM   25  H19 UNL     1      25.192   0.457  51.984  1.00  0.00     0.167 HD
BRANCH  24  26
HETATM   26  C15 UNL     1      26.730  -0.145  53.143  1.00  0.00     0.035 A 
HETATM   27  C16 UNL     1      27.455  -1.291  52.897  1.00  0.00     0.032 A 
HETATM   28  C17 UNL     1      28.802  -1.452  53.135  1.00  0.00     0.046 A 
HETATM   29  C18 UNL     1      29.499  -0.387  53.663  1.00  0.00     0.138 A 
HETATM   30  F1  UNL     1      30.825  -0.465  53.926  1.00  0.00    -0.204 F 
HETATM   31  C19 UNL     1      28.865   0.788  53.938  1.00  0.00     0.074 A 
HETATM   32 CL1  UNL     1      29.725   2.149  54.607  1.00  0.00    -0.081 Cl
HETATM   33  C20 UNL     1      27.519   0.864  53.671  1.00  0.00     0.056 A 
ENDBRANCH  24  26
ENDBRANCH   8  24
TORSDOF 7
ENDMDL
MODEL 5
REMARK VINA RESULT:      -8.9      3.607      5.679
REMARK  7 active torsions:
REMARK  status: ('A' for Active; 'I' for Inactive)
REMARK    1  A    between atoms: C2_2  and  C3_3 
REMARK    2  A    between atoms: C2_2  and  N1_5 
REMARK    3  A    between atoms: N1_5  and  C4_6 
REMARK    4  A    between atoms: N1_5  and  C9_13 
REMARK    5  A    between atoms: C4_6  and  C5_7 
REMARK    6  A    between atoms: C14_20  and  N5_21 
REMARK    7  A    between atoms: N5_21  and  C15_22 
ROOT
HETATM    1  C9  UNL     1      22.625   0.923  51.617  1.00  0.00     0.031 A 
HETATM    2  C10 UNL     1      21.639   0.342  50.831  1.00  0.00     0.031 A 
HETATM    3  C11 UNL     1      21.213   0.806  49.606  1.00  0.00     0.035 A 
HETATM    4  C12 UNL     1      21.791   1.943  49.077  1.00  0.00     0.072 A 
HETATM    5  N3  UNL     1      21.391   2.401  47.895  1.00  0.00    -0.241 NA
HETATM    6  C13 UNL     1      21.925   3.501  47.346  1.00  0.00     0.236 A 
HETATM    7  N4  UNL     1      22.875   4.093  48.060  1.00  0.00    -0.224 NA
HETATM    8  C14 UNL     1      23.337   3.703  49.251  1.00  0.00     0.142 A 
HETATM    9  C21 UNL     1      22.780   2.575  49.802  1.00  0.00     0.041 A 
HETATM   10  C22 UNL     1      23.141   2.046  51.009  1.00  0.00     0.047 A 
ENDROOT
BRANCH   1  11
HETATM   11  N1  UNL     1      23.011   0.414  52.890  1.00  0.00    -0.372 N 
BRANCH  11  12
HETATM   12  C2  UNL     1      22.163   0.322  54.034  1.00  0.00     0.114 C 
HETATM   13  C1  UNL     1      20.767   0.909  53.838  1.00  0.00     0.035 C 
BRANCH  12  14
HETATM   14  C3  UNL     1      21.921  -1.098  54.451  1.00  0.00     0.415 C 
HETATM   15  O1  UNL     1      21.934  -2.176  55.048  1.00  0.00    -0.428 OA
ENDBRANCH  12  14
ENDBRANCH  11  12
BRANCH  11  16
HETATM   16  C4  UNL     1      24.334  -0.131  53.031  1.00  0.00     0.161 C 
BRANCH  16  17
HETATM   17  C5  UNL     1      25.249   0.465  54.027  1.00  0.00     0.261 C 
HETATM   18  C6  UNL     1      25.959   1.722  53.732  1.00  0.00     0.204 C 
HETATM   19  O2  UNL     1      27.277   1.614  54.284  1.00  0.00    -0.387 OA
HETATM   20  C7  UNL     1      27.970   0.854  53.314  1.00  0.00     0.197 C 
HETATM   21  C8  UNL     1      27.336  -0.525  53.394  1.00  0.00     0.296 C 
HETATM   22  N2  UNL     1      26.249  -0.574  54.343  1.00  0.00     0.093 N 
HETATM   23  H15 UNL     1      26.679  -0.255  55.264  1.00  0.00     0.316 HD
ENDBRANCH  16  17
ENDBRANCH  11  16
ENDBRANCH   1  11
BRANCH   8  24
HETATM   24  N5  UNL     1      24.357   4.420  49.916  1.00  0.00    -0.340 N 
HETATM   25  H19 UNL     1      24.338   4.616  50.937  1.00  0.00     0.167 HD
BRANCH  24  26
HETATM   26  C15 UNL     1      25.526   4.978  49.347  1.00  0.00     0.035 A 
HETATM   27  C16 UNL     1      26.715   4.305  49.166  1.00  0.00     0.032 A 
HETATM   28  C17 UNL     1      27.864   4.840  48.628  1.00  0.00     0.046 A 
HETATM   29  C18 UNL     1      27.840   6.159  48.230  1.00  0.00     0.138 A 
HETATM   30  F1  UNL     1      28.928   6.760  47.692  1.00  0.00    -0.204 F 
HETATM   31  C19 UNL     1      26.707   6.905  48.370  1.00  0.00     0.074 A 
HETATM   32 CL1  UNL     1      26.653   8.575  47.874  1.00  0.00    -0.081 Cl
HETATM   33  C20 UNL     1      25.605   6.293  48.917  1.00  0.00     0.056 A 
ENDBRANCH  24  26
ENDBRANCH   8  24
TORSDOF 7
ENDMDL
MODEL 6
REMARK VINA RESULT:      -8.7      2.880      5.909
REMARK  7 active torsions:
REMARK  status: ('A' for Active; 'I' for Inactive)
REMARK    1  A    between atoms: C2_2  and  C3_3 
REMARK    2  A    between atoms: C2_2  and  N1_5 
REMARK    3  A    between atoms: N1_5  and  C4_6 
REMARK    4  A    between atoms: N1_5  and  C9_13 
REMARK    5  A    between atoms: C4_6  and  C5_7 
REMARK    6  A    between atoms: C14_20  and  N5_21 
REMARK    7  A    between atoms: N5_21  and  C15_22 
ROOT
HETATM    1  C9  UNL     1      23.558   2.098  51.677  1.00  0.00     0.031 A 
HETATM    2  C10 UNL     1      22.296   1.854  51.151  1.00  0.00     0.031 A 
HETATM    3  C11 UNL     1      21.411   0.898  51.601  1.00  0.00     0.035 A 
HETATM    4  C12 UNL     1      21.771   0.093  52.663  1.00  0.00     0.072 A 
HETATM    5  N3  UNL     1      20.928  -0.833  53.109  1.00  0.00    -0.241 NA
HETATM    6  C13 UNL     1      21.238  -1.635  54.136  1.00  0.00     0.236 A 
HETATM    7  N4  UNL     1      22.436  -1.440  54.674  1.00  0.00    -0.224 NA
HETATM    8  C14 UNL     1      23.343  -0.536  54.292  1.00  0.00     0.142 A 
HETATM    9  C21 UNL     1      23.012   0.278  53.237  1.00  0.00     0.041 A 
HETATM   10  C22 UNL     1      23.826   1.250  52.728  1.00  0.00     0.047 A 
ENDROOT
BRANCH   1  11
HETATM   11  N1  UNL     1      24.443   3.085  51.157  1.00  0.00    -0.372 N 
BRANCH  11  12
HETATM   12  C2  UNL     1      25.868   3.028  51.211  1.00  0.00     0.114 C 
HETATM   13  C1  UNL     1      26.451   1.621  51.100  1.00  0.00     0.035 C 
BRANCH  12  14
HETATM   14  C3  UNL     1      26.512   3.794  50.094  1.00  0.00     0.415 C 
HETATM   15  O1  UNL     1      26.970   4.136  49.003  1.00  0.00    -0.428 OA
ENDBRANCH  12  14
ENDBRANCH  11  12
BRANCH  11  16
HETATM   16  C4  UNL     1      23.877   4.198  50.445  1.00  0.00     0.161 C 
BRANCH  16  17
HETATM   17  C5  UNL     1      23.095   5.203  51.195  1.00  0.00     0.261 C 
HETATM   18  C6  UNL     1      22.065   6.009  50.517  1.00  0.00     0.204 C 
HETATM   19  O2  UNL     1      22.126   7.335  51.060  1.00  0.00    -0.387 OA
HETATM   20  C7  UNL     1      23.211   7.917  50.365  1.00  0.00     0.197 C 
HETATM   21  C8  UNL     1      24.430   7.166  50.876  1.00  0.00     0.296 C 
HETATM   22  N2  UNL     1      24.079   6.119  51.806  1.00  0.00     0.093 N 
HETATM   23  H15 UNL     1      23.536   6.613  52.578  1.00  0.00     0.316 HD
ENDBRANCH  16  17
ENDBRANCH  11  16
ENDBRANCH   1  11
BRANCH   8  24
HETATM   24  N5  UNL     1      24.590  -0.424  54.947  1.00  0.00    -0.340 N 
HETATM   25  H19 UNL     1      24.680  -0.248  55.967  1.00  0.00     0.167 HD
BRANCH  24  26
HETATM   26  C15 UNL     1      25.877  -0.522  54.366  1.00  0.00     0.035 A 
HETATM   27  C16 UNL     1      26.246  -1.450  53.417  1.00  0.00     0.032 A 
HETATM   28  C17 UNL     1      27.498  -1.566  52.855  1.00  0.00     0.046 A 
HETATM   29  C18 UNL     1      28.476  -0.687  53.266  1.00  0.00     0.138 A 
HETATM   30  F1  UNL     1      29.733  -0.734  52.763  1.00  0.00    -0.204 F 
HETATM   31  C19 UNL     1      28.203   0.266  54.202  1.00  0.00     0.074 A 
HETATM   32 CL1  UNL     1      29.424   1.389  54.738  1.00  0.00    -0.081 Cl
HETATM   33  C20 UNL     1      26.928   0.311  54.711  1.00  0.00     0.056 A 
ENDBRANCH  24  26
ENDBRANCH   8  24
TORSDOF 7
ENDMDL
MODEL 7
REMARK VINA RESULT:      -8.6      2.637      4.992
REMARK  7 active torsions:
REMARK  status: ('A' for Active; 'I' for Inactive)
REMARK    1  A    between atoms: C2_2  and  C3_3 
REMARK    2  A    between atoms: C2_2  and  N1_5 
REMARK    3  A    between atoms: N1_5  and  C4_6 
REMARK    4  A    between atoms: N1_5  and  C9_13 
REMARK    5  A    between atoms: C4_6  and  C5_7 
REMARK    6  A    between atoms: C14_20  and  N5_21 
REMARK    7  A    between atoms: N5_21  and  C15_22 
ROOT
HETATM    1  C9  UNL     1      21.212   1.386  52.104  1.00  0.00     0.031 A 
HETATM    2  C10 UNL     1      20.288   0.948  53.043  1.00  0.00     0.031 A 
HETATM    3  C11 UNL     1      20.567   0.149  54.131  1.00  0.00     0.035 A 
HETATM    4  C12 UNL     1      21.865  -0.274  54.341  1.00  0.00     0.072 A 
HETATM    5  N3  UNL     1      22.150  -1.044  55.386  1.00  0.00    -0.241 NA
HETATM    6  C13 UNL     1      23.395  -1.476  55.627  1.00  0.00     0.236 A 
HETATM    7  N4  UNL     1      24.316  -1.083  54.755  1.00  0.00    -0.224 NA
HETATM    8  C14 UNL     1      24.120  -0.312  53.682  1.00  0.00     0.142 A 
HETATM    9  C21 UNL     1      22.839   0.123  53.448  1.00  0.00     0.041 A 
HETATM   10  C22 UNL     1      22.473   0.916  52.396  1.00  0.00     0.047 A 
ENDROOT
BRANCH   1  11
HETATM   11  N1  UNL     1      20.864   2.193  50.983  1.00  0.00    -0.372 N 
BRANCH  11  12
HETATM   12  C2  UNL     1      21.335   3.519  50.743  1.00  0.00     0.114 C 
HETATM   13  C1  UNL     1      21.621   4.330  52.005  1.00  0.00     0.035 C 
BRANCH  12  14
HETATM   14  C3  UNL     1      22.628   3.535  49.982  1.00  0.00     0.415 C 
HETATM   15  O1  UNL     1      23.726   3.847  49.520  1.00  0.00    -0.428 OA
ENDBRANCH  12  14
ENDBRANCH  11  12
BRANCH  11  16
HETATM   16  C4  UNL     1      20.037   1.615  49.959  1.00  0.00     0.161 C 
BRANCH  16  17
HETATM   17  C5  UNL     1      18.650   2.101  49.802  1.00  0.00     0.261 C 
HETATM   18  C6  UNL     1      17.910   2.639  50.957  1.00  0.00     0.204 C 
HETATM   19  O2  UNL     1      16.550   2.201  50.841  1.00  0.00    -0.387 OA
HETATM   20  C7  UNL     1      16.595   0.877  51.332  1.00  0.00     0.197 C 
HETATM   21  C8  UNL     1      17.402   0.117  50.290  1.00  0.00     0.296 C 
HETATM   22  N2  UNL     1      17.880   0.978  49.234  1.00  0.00     0.093 N 
HETATM   23  H15 UNL     1      17.003   1.432  48.837  1.00  0.00     0.316 HD
ENDBRANCH  16  17
ENDBRANCH  11  16
ENDBRANCH   1  11
BRANCH   8  24
HETATM   24  N5  UNL     1      25.186   0.040  52.825  1.00  0.00    -0.340 N 
HETATM   25  H19 UNL     1      25.042   0.472  51.890  1.00  0.00     0.167 HD
BRANCH  24  26
HETATM   26  C15 UNL     1      26.571  -0.123  53.064  1.00  0.00     0.035 A 
HETATM   27  C16 UNL     1      27.281  -1.280  52.831  1.00  0.00     0.032 A 
HETATM   28  C17 UNL     1      28.626  -1.457  53.072  1.00  0.00     0.046 A 
HETATM   29  C18 UNL     1      29.335  -0.396  53.591  1.00  0.00     0.138 A 
HETATM   30  F1  UNL     1      30.660  -0.488  53.858  1.00  0.00    -0.204 F 
HETATM   31  C19 UNL     1      28.717   0.790  53.854  1.00  0.00     0.074 A 
HETATM   32 CL1  UNL     1      29.593   2.146  54.511  1.00  0.00    -0.081 Cl
HETATM   33  C20 UNL     1      27.372   0.881  53.584  1.00  0.00     0.056 A 
ENDBRANCH  24  26
ENDBRANCH   8  24
TORSDOF 7
ENDMDL
MODEL 8
REMARK VINA RESULT:      -8.3      4.321      7.024
REMARK  7 active torsions:
REMARK  status: ('A' for Active; 'I' for Inactive)
REMARK    1  A    between atoms: C2_2  and  C3_3 
REMARK    2  A    between atoms: C2_2  and  N1_5 
REMARK    3  A    between atoms: N1_5  and  C4_6 
REMARK    4  A    between atoms: N1_5  and  C9_13 
REMARK    5  A    between atoms: C4_6  and  C5_7 
REMARK    6  A    between atoms: C14_20  and  N5_21 
REMARK    7  A    between atoms: N5_21  and  C15_22 
ROOT
HETATM    1  C9  UNL     1      25.622   3.452  50.802  1.00  0.00     0.031 A 
HETATM    2  C10 UNL     1      26.717   3.392  49.949  1.00  0.00     0.031 A 
HETATM    3  C11 UNL     1      27.117   4.389  49.087  1.00  0.00     0.035 A 
HETATM    4  C12 UNL     1      26.396   5.565  49.034  1.00  0.00     0.072 A 
HETATM    5  N3  UNL     1      26.771   6.536  48.208  1.00  0.00    -0.241 NA
HETATM    6  C13 UNL     1      26.099   7.693  48.126  1.00  0.00     0.236 A 
HETATM    7  N4  UNL     1      25.043   7.799  48.923  1.00  0.00    -0.224 NA
HETATM    8  C14 UNL     1      24.597   6.878  49.782  1.00  0.00     0.142 A 
HETATM    9  C21 UNL     1      25.294   5.698  49.855  1.00  0.00     0.041 A 
HETATM   10  C22 UNL     1      24.969   4.658  50.680  1.00  0.00     0.047 A 
ENDROOT
BRANCH   1  11
HETATM   11  N1  UNL     1      25.239   2.381  51.658  1.00  0.00    -0.372 N 
BRANCH  11  12
HETATM   12  C2  UNL     1      23.896   1.981  51.930  1.00  0.00     0.114 C 
HETATM   13  C1  UNL     1      23.043   1.732  50.688  1.00  0.00     0.035 C 
BRANCH  12  14
HETATM   14  C3  UNL     1      23.829   0.695  52.699  1.00  0.00     0.415 C 
HETATM   15  O1  UNL     1      23.842  -0.152  53.593  1.00  0.00    -0.428 OA
ENDBRANCH  12  14
ENDBRANCH  11  12
BRANCH  11  16
HETATM   16  C4  UNL     1      26.274   1.572  52.240  1.00  0.00     0.161 C 
BRANCH  16  17
HETATM   17  C5  UNL     1      27.036   2.107  53.389  1.00  0.00     0.261 C 
HETATM   18  C6  UNL     1      28.503   2.231  53.321  1.00  0.00     0.204 C 
HETATM   19  O2  UNL     1      29.026   1.882  54.610  1.00  0.00    -0.387 OA
HETATM   20  C7  UNL     1      29.023   0.469  54.587  1.00  0.00     0.197 C 
HETATM   21  C8  UNL     1      27.549   0.096  54.585  1.00  0.00     0.296 C 
HETATM   22  N2  UNL     1      26.691   1.257  54.545  1.00  0.00     0.093 N 
HETATM   23  H15 UNL     1      26.977   1.835  55.393  1.00  0.00     0.316 HD
ENDBRANCH  16  17
ENDBRANCH  11  16
ENDBRANCH   1  11
BRANCH   8  24
HETATM   24  N5  UNL     1      23.455   7.109  50.580  1.00  0.00    -0.340 N 
HETATM   25  H19 UNL     1      23.476   7.685  51.446  1.00  0.00     0.167 HD
BRANCH  24  26
HETATM   26  C15 UNL     1      22.142   6.625  50.365  1.00  0.00     0.035 A 
HETATM   27  C16 UNL     1      21.209   7.214  49.540  1.00  0.00     0.032 A 
HETATM   28  C17 UNL     1      19.925   6.761  49.332  1.00  0.00     0.046 A 
HETATM   29  C18 UNL     1      19.523   5.624  49.999  1.00  0.00     0.138 A 
HETATM   30  F1  UNL     1      18.277   5.115  49.850  1.00  0.00    -0.204 F 
HETATM   31  C19 UNL     1      20.379   4.973  50.837  1.00  0.00     0.074 A 
HETATM   32 CL1  UNL     1      19.894   3.533  51.692  1.00  0.00    -0.081 Cl
HETATM   33  C20 UNL     1      21.642   5.493  50.987  1.00  0.00     0.056 A 
ENDBRANCH  24  26
ENDBRANCH   8  24
TORSDOF 7
ENDMDL
MODEL 9
REMARK VINA RESULT:      -8.3      3.740      7.281
REMARK  7 active torsions:
REMARK  status: ('A' for Active; 'I' for Inactive)
REMARK    1  A    between atoms: C2_2  and  C3_3 
REMARK    2  A    between atoms: C2_2  and  N1_5 
REMARK    3  A    between atoms: N1_5  and  C4_6 
REMARK    4  A    between atoms: N1_5  and  C9_13 
REMARK    5  A    between atoms: C4_6  and  C5_7 
REMARK    6  A    between atoms: C14_20  and  N5_21 
REMARK    7  A    between atoms: N5_21  and  C15_22 
ROOT
HETATM    1  C9  UNL     1      23.674   0.978  52.723  1.00  0.00     0.031 A 
HETATM    2  C10 UNL     1      23.734  -0.118  53.573  1.00  0.00     0.031 A 
HETATM    3  C11 UNL     1      22.661  -0.887  53.966  1.00  0.00     0.035 A 
HETATM    4  C12 UNL     1      21.400  -0.577  53.496  1.00  0.00     0.072 A 
HETATM    5  N3  UNL     1      20.356  -1.311  53.866  1.00  0.00    -0.241 NA
HETATM    6  C13 UNL     1      19.116  -1.044  53.433  1.00  0.00     0.236 A 
HETATM    7  N4  UNL     1      19.006  -0.004  52.616  1.00  0.00    -0.224 NA
HETATM    8  C14 UNL     1      19.998   0.785  52.194  1.00  0.00     0.142 A 
HETATM    9  C21 UNL     1      21.263   0.500  52.645  1.00  0.00     0.041 A 
HETATM   10  C22 UNL     1      22.382   1.209  52.307  1.00  0.00     0.047 A 
ENDROOT
BRANCH   1  11
HETATM   11  N1  UNL     1      24.814   1.755  52.367  1.00  0.00    -0.372 N 
BRANCH  11  12
HETATM   12  C2  UNL     1      24.777   3.047  51.763  1.00  0.00     0.114 C 
HETATM   13  C1  UNL     1      24.414   3.044  50.279  1.00  0.00     0.035 C 
BRANCH  12  14
HETATM   14  C3  UNL     1      23.757   3.945  52.400  1.00  0.00     0.415 C 
HETATM   15  O1  UNL     1      22.792   4.682  52.604  1.00  0.00    -0.428 OA
ENDBRANCH  12  14
ENDBRANCH  11  12
BRANCH  11  16
HETATM   16  C4  UNL     1      26.115   1.249  52.710  1.00  0.00     0.161 C 
BRANCH  16  17
HETATM   17  C5  UNL     1      26.913   1.963  53.729  1.00  0.00     0.261 C 
HETATM   18  C6  UNL     1      28.263   2.459  53.409  1.00  0.00     0.204 C 
HETATM   19  O2  UNL     1      29.082   2.260  54.568  1.00  0.00    -0.387 OA
HETATM   20  C7  UNL     1      29.432   0.893  54.483  1.00  0.00     0.197 C 
HETATM   21  C8  UNL     1      28.125   0.154  54.725  1.00  0.00     0.296 C 
HETATM   22  N2  UNL     1      27.009   1.056  54.889  1.00  0.00     0.093 N 
HETATM   23  H15 UNL     1      27.290   1.689  55.697  1.00  0.00     0.316 HD
ENDBRANCH  16  17
ENDBRANCH  11  16
ENDBRANCH   1  11
BRANCH   8  24
HETATM   24  N5  UNL     1      19.755   1.868  51.319  1.00  0.00    -0.340 N 
HETATM   25  H19 UNL     1      19.029   2.590  51.500  1.00  0.00     0.167 HD
BRANCH  24  26
HETATM   26  C15 UNL     1      20.415   2.154  50.101  1.00  0.00     0.035 A 
HETATM   27  C16 UNL     1      20.926   1.208  49.238  1.00  0.00     0.032 A 
HETATM   28  C17 UNL     1      21.583   1.472  48.057  1.00  0.00     0.046 A 
HETATM   29  C18 UNL     1      21.753   2.790  47.692  1.00  0.00     0.138 A 
HETATM   30  F1  UNL     1      22.389   3.134  46.547  1.00  0.00    -0.204 F 
HETATM   31  C19 UNL     1      21.281   3.795  48.483  1.00  0.00     0.074 A 
HETATM   32 CL1  UNL     1      21.485   5.469  48.042  1.00  0.00    -0.081 Cl
HETATM   33  C20 UNL     1      20.637   3.443  49.645  1.00  0.00     0.056 A 
ENDBRANCH  24  26
ENDBRANCH   8  24
TORSDOF 7
ENDMDL
