MODEL 1
REMARK VINA RESULT:      -8.6      0.000      0.000
REMARK  5 active torsions:
REMARK  status: ('A' for Active; 'I' for Inactive)
REMARK    1  A    between atoms: C7_7  and  C8_8 
REMARK    2  A    between atoms: C8_8  and  C10_10 
REMARK    3  A    between atoms: C11_11  and  C12_12 
REMARK    4  A    between atoms: C12_12  and  C13_14 
REMARK    5  A    between atoms: C20_23  and  N3_24 
ROOT
HETATM    1  C10 UNL     1      22.668   1.470  50.642  1.00  0.00     0.099 A 
HETATM    2  C11 UNL     1      23.871   2.318  50.748  1.00  0.00     0.001 A 
HETATM    3  C19 UNL     1      23.878   3.220  49.779  1.00  0.00     0.129 A 
HETATM    4  N2  UNL     1      22.713   3.061  48.942  1.00  0.00    -0.247 NA
HETATM    5  C20 UNL     1      22.018   2.077  49.407  1.00  0.00     0.106 A 
ENDROOT
BRANCH   2   6
HETATM    6  C12 UNL     1      25.033   2.371  51.614  1.00  0.00     0.067 C 
HETATM    7  N1  UNL     1      25.009   3.591  51.959  1.00  0.00    -0.299 NA
HETATM    8  H13 UNL     1      25.612   4.107  52.554  1.00  0.00     0.187 HD
BRANCH   6   9
HETATM    9  C13 UNL     1      26.070   1.522  52.120  1.00  0.00    -0.007 A 
HETATM   10  C14 UNL     1      27.178   2.214  52.566  1.00  0.00     0.015 A 
HETATM   11  C15 UNL     1      28.269   1.503  53.082  1.00  0.00     0.020 A 
HETATM   12  C16 UNL     1      28.221   0.128  53.139  1.00  0.00     0.011 A 
HETATM   13 BR1  UNL     1      29.678  -0.893  53.832  1.00  0.00    -0.051 Br
HETATM   14  C17 UNL     1      27.141  -0.606  52.707  1.00  0.00     0.020 A 
HETATM   15  C18 UNL     1      26.109   0.155  52.213  1.00  0.00     0.015 A 
ENDBRANCH   6   9
ENDBRANCH   2   6
BRANCH   1  16
HETATM   16  C8  UNL     1      21.639   1.614  51.696  1.00  0.00     0.031 C 
HETATM   17  C9  UNL     1      21.327   2.938  52.290  1.00  0.00     0.016 C 
BRANCH  16  18
HETATM   18  C7  UNL     1      21.569   0.495  52.681  1.00  0.00    -0.047 A 
HETATM   19  C2  UNL     1      20.440  -0.259  52.901  1.00  0.00    -0.055 A 
HETATM   20  C1  UNL     1      19.183  -0.070  52.189  1.00  0.00     0.049 C 
HETATM   21  C3  UNL     1      20.417  -1.293  53.837  1.00  0.00     0.007 A 
HETATM   22  C4  UNL     1      21.518  -1.607  54.584  1.00  0.00     0.001 A 
HETATM   23  C5  UNL     1      22.669  -0.904  54.420  1.00  0.00     0.001 A 
HETATM   24  C6  UNL     1      22.651   0.107  53.487  1.00  0.00     0.008 A 
ENDBRANCH  16  18
ENDBRANCH   1  16
BRANCH   5  25
HETATM   25  N3  UNL     1      20.787   1.446  49.005  1.00  0.00    -0.387 N 
HETATM   26  H19 UNL     1      21.057   0.860  48.185  1.00  0.00     0.157 HD
HETATM   27  H20 UNL     1      19.883   1.581  49.462  1.00  0.00     0.157 HD
ENDBRANCH   5  25
TORSDOF 5
ENDMDL
MODEL 2
REMARK VINA RESULT:      -8.5      3.115      5.485
REMARK  5 active torsions:
REMARK  status: ('A' for Active; 'I' for Inactive)
REMARK    1  A    between atoms: C7_7  and  C8_8 
REMARK    2  A    between atoms: C8_8  and  C10_10 
REMARK    3  A    between atoms: C11_11  and  C12_12 
REMARK    4  A    between atoms: C12_12  and  C13_14 
REMARK    5  A    between atoms: C20_23  and  N3_24 
ROOT
HETATM    1  C10 UNL     1      26.343   1.022  53.815  1.00  0.00     0.099 A 
HETATM    2  C11 UNL     1      26.685   1.931  52.704  1.00  0.00     0.001 A 
HETATM    3  C19 UNL     1      28.000   2.054  52.605  1.00  0.00     0.129 A 
HETATM    4  N2  UNL     1      28.651   1.267  53.624  1.00  0.00    -0.247 NA
HETATM    5  C20 UNL     1      27.737   0.679  54.322  1.00  0.00     0.106 A 
ENDROOT
BRANCH   2   6
HETATM    6  C12 UNL     1      25.943   2.727  51.746  1.00  0.00     0.067 C 
HETATM    7  N1  UNL     1      26.895   3.230  51.075  1.00  0.00    -0.299 NA
HETATM    8  H13 UNL     1      26.883   3.850  50.301  1.00  0.00     0.187 HD
BRANCH   6   9
HETATM    9  C13 UNL     1      24.593   3.058  51.400  1.00  0.00    -0.007 A 
HETATM   10  C14 UNL     1      23.883   3.630  52.438  1.00  0.00     0.015 A 
HETATM   11  C15 UNL     1      22.547   3.998  52.234  1.00  0.00     0.020 A 
HETATM   12  C16 UNL     1      21.962   3.787  51.006  1.00  0.00     0.011 A 
HETATM   13 BR1  UNL     1      20.145   4.270  50.671  1.00  0.00    -0.051 Br
HETATM   14  C17 UNL     1      22.626   3.223  49.943  1.00  0.00     0.020 A 
HETATM   15  C18 UNL     1      23.930   2.886  50.212  1.00  0.00     0.015 A 
ENDBRANCH   6   9
ENDBRANCH   2   6
BRANCH   1  16
HETATM   16  C8  UNL     1      25.756  -0.291  53.465  1.00  0.00     0.031 C 
HETATM   17  C9  UNL     1      26.300  -1.102  52.347  1.00  0.00     0.016 C 
BRANCH  16  18
HETATM   18  C7  UNL     1      24.273  -0.385  53.595  1.00  0.00    -0.047 A 
HETATM   19  C2  UNL     1      23.633  -0.892  54.702  1.00  0.00    -0.055 A 
HETATM   20  C1  UNL     1      24.324  -1.381  55.887  1.00  0.00     0.049 C 
HETATM   21  C3  UNL     1      22.242  -0.967  54.777  1.00  0.00     0.007 A 
HETATM   22  C4  UNL     1      21.446  -0.541  53.752  1.00  0.00     0.001 A 
HETATM   23  C5  UNL     1      22.008  -0.028  52.627  1.00  0.00     0.001 A 
HETATM   24  C6  UNL     1      23.382   0.029  52.591  1.00  0.00     0.008 A 
ENDBRANCH  16  18
ENDBRANCH   1  16
BRANCH   5  25
HETATM   25  N3  UNL     1      27.762  -0.207  55.457  1.00  0.00    -0.387 N 
HETATM   26  H19 UNL     1      28.739  -0.134  55.816  1.00  0.00     0.157 HD
HETATM   27  H20 UNL     1      26.966  -0.756  55.789  1.00  0.00     0.157 HD
ENDBRANCH   5  25
TORSDOF 5
ENDMDL
MODEL 3
REMARK VINA RESULT:      -8.5      2.025      4.596
REMARK  5 active torsions:
REMARK  status: ('A' for Active; 'I' for Inactive)
REMARK    1  A    between atoms: C7_7  and  C8_8 
REMARK    2  A    between atoms: C8_8  and  C10_10 
REMARK    3  A    between atoms: C11_11  and  C12_12 
REMARK    4  A    between atoms: C12_12  and  C13_14 
REMARK    5  A    between atoms: C20_23  and  N3_24 
ROOT
HETATM    1  C10 UNL     1      22.541   2.404  52.321  1.00  0.00     0.099 A 
HETATM    2  C11 UNL     1      22.617   1.094  52.998  1.00  0.00     0.001 A 
HETATM    3  C19 UNL     1      21.415   0.729  53.416  1.00  0.00     0.129 A 
HETATM    4  N2  UNL     1      20.442   1.740  53.079  1.00  0.00    -0.247 NA
HETATM    5  C20 UNL     1      21.055   2.696  52.465  1.00  0.00     0.106 A 
ENDROOT
BRANCH   2   6
HETATM    6  C12 UNL     1      23.671   0.158  53.336  1.00  0.00     0.067 C 
HETATM    7  N1  UNL     1      22.988  -0.882  53.581  1.00  0.00    -0.299 NA
HETATM    8  H13 UNL     1      23.271  -1.792  53.857  1.00  0.00     0.187 HD
BRANCH   6   9
HETATM    9  C13 UNL     1      25.097   0.101  53.453  1.00  0.00    -0.007 A 
HETATM   10  C14 UNL     1      25.668  -0.929  52.731  1.00  0.00     0.015 A 
HETATM   11  C15 UNL     1      27.057  -1.102  52.763  1.00  0.00     0.020 A 
HETATM   12  C16 UNL     1      27.834  -0.244  53.510  1.00  0.00     0.011 A 
HETATM   13 BR1  UNL     1      29.732  -0.432  53.589  1.00  0.00    -0.051 Br
HETATM   14  C17 UNL     1      27.314   0.795  54.244  1.00  0.00     0.020 A 
HETATM   15  C18 UNL     1      25.946   0.905  54.169  1.00  0.00     0.015 A 
ENDBRANCH   6   9
ENDBRANCH   2   6
BRANCH   1  16
HETATM   16  C8  UNL     1      22.772   2.430  50.860  1.00  0.00     0.031 C 
HETATM   17  C9  UNL     1      22.267   1.344  49.983  1.00  0.00     0.016 C 
BRANCH  16  18
HETATM   18  C7  UNL     1      24.095   2.967  50.429  1.00  0.00    -0.047 A 
HETATM   19  C2  UNL     1      24.245   4.051  49.595  1.00  0.00    -0.055 A 
HETATM   20  C1  UNL     1      23.133   4.814  49.045  1.00  0.00     0.049 C 
HETATM   21  C3  UNL     1      25.503   4.516  49.212  1.00  0.00     0.007 A 
HETATM   22  C4  UNL     1      26.651   3.917  49.648  1.00  0.00     0.001 A 
HETATM   23  C5  UNL     1      26.580   2.841  50.475  1.00  0.00     0.001 A 
HETATM   24  C6  UNL     1      25.322   2.413  50.829  1.00  0.00     0.008 A 
ENDBRANCH  16  18
ENDBRANCH   1  16
BRANCH   5  25
HETATM   25  N3  UNL     1      20.634   3.956  51.906  1.00  0.00    -0.387 N 
HETATM   26  H19 UNL     1      19.596   3.948  52.012  1.00  0.00     0.157 HD
HETATM   27  H20 UNL     1      21.261   4.660  51.511  1.00  0.00     0.157 HD
ENDBRANCH   5  25
TORSDOF 5
ENDMDL
MODEL 4
REMARK VINA RESULT:      -8.3      3.191      6.048
REMARK  5 active torsions:
REMARK  status: ('A' for Active; 'I' for Inactive)
REMARK    1  A    between atoms: C7_7  and  C8_8 
REMARK    2  A    between atoms: C8_8  and  C10_10 
REMARK    3  A    between atoms: C11_11  and  C12_12 
REMARK    4  A    between atoms: C12_12  and  C13_14 
REMARK    5  A    between atoms: C20_23  and  N3_24 
ROOT
HETATM    1  C10 UNL     1      25.063   1.717  51.691  1.00  0.00     0.099 A 
HETATM    2  C11 UNL     1      24.865   0.989  52.959  1.00  0.00     0.001 A 
HETATM    3  C19 UNL     1      25.854   1.258  53.798  1.00  0.00     0.129 A 
HETATM    4  N2  UNL     1      26.795   2.162  53.182  1.00  0.00    -0.247 NA
HETATM    5  C20 UNL     1      26.372   2.432  51.992  1.00  0.00     0.106 A 
ENDROOT
BRANCH   2   6
HETATM    6  C12 UNL     1      23.891   0.047  53.476  1.00  0.00     0.067 C 
HETATM    7  N1  UNL     1      24.639  -0.698  54.179  1.00  0.00    -0.299 NA
HETATM    8  H13 UNL     1      24.425  -1.492  54.732  1.00  0.00     0.187 HD
BRANCH   6   9
HETATM    9  C13 UNL     1      22.488  -0.233  53.414  1.00  0.00    -0.007 A 
HETATM   10  C14 UNL     1      22.097  -1.275  54.232  1.00  0.00     0.015 A 
HETATM   11  C15 UNL     1      20.750  -1.655  54.263  1.00  0.00     0.020 A 
HETATM   12  C16 UNL     1      19.835  -0.987  53.480  1.00  0.00     0.011 A 
HETATM   13 BR1  UNL     1      17.986  -1.463  53.481  1.00  0.00    -0.051 Br
HETATM   14  C17 UNL     1      20.174   0.055  52.650  1.00  0.00     0.020 A 
HETATM   15  C18 UNL     1      21.510   0.374  52.669  1.00  0.00     0.015 A 
ENDBRANCH   6   9
ENDBRANCH   2   6
BRANCH   1  16
HETATM   16  C8  UNL     1      24.119   2.814  51.381  1.00  0.00     0.031 C 
HETATM   17  C9  UNL     1      23.380   3.520  52.458  1.00  0.00     0.016 C 
BRANCH  16  18
HETATM   18  C7  UNL     1      23.317   2.638  50.135  1.00  0.00    -0.047 A 
HETATM   19  C2  UNL     1      23.349   3.513  49.075  1.00  0.00    -0.055 A 
HETATM   20  C1  UNL     1      24.180   4.709  49.032  1.00  0.00     0.049 C 
HETATM   21  C3  UNL     1      22.577   3.312  47.931  1.00  0.00     0.007 A 
HETATM   22  C4  UNL     1      21.749   2.232  47.808  1.00  0.00     0.001 A 
HETATM   23  C5  UNL     1      21.666   1.324  48.815  1.00  0.00     0.001 A 
HETATM   24  C6  UNL     1      22.442   1.559  49.926  1.00  0.00     0.008 A 
ENDBRANCH  16  18
ENDBRANCH   1  16
BRANCH   5  25
HETATM   25  N3  UNL     1      26.874   3.244  50.914  1.00  0.00    -0.387 N 
HETATM   26  H19 UNL     1      26.293   4.110  50.954  1.00  0.00     0.157 HD
HETATM   27  H20 UNL     1      27.635   2.977  50.285  1.00  0.00     0.157 HD
ENDBRANCH   5  25
TORSDOF 5
ENDMDL
MODEL 5
REMARK VINA RESULT:      -8.3      2.574      5.630
REMARK  5 active torsions:
REMARK  status: ('A' for Active; 'I' for Inactive)
REMARK    1  A    between atoms: C7_7  and  C8_8 
REMARK    2  A    between atoms: C8_8  and  C10_10 
REMARK    3  A    between atoms: C11_11  and  C12_12 
REMARK    4  A    between atoms: C12_12  and  C13_14 
REMARK    5  A    between atoms: C20_23  and  N3_24 
ROOT
HETATM    1  C10 UNL     1      23.677   4.421  51.321  1.00  0.00     0.099 A 
HETATM    2  C11 UNL     1      23.432   3.056  51.824  1.00  0.00     0.001 A 
HETATM    3  C19 UNL     1      22.218   2.974  52.347  1.00  0.00     0.129 A 
HETATM    4  N2  UNL     1      21.551   4.250  52.257  1.00  0.00    -0.247 NA
HETATM    5  C20 UNL     1      22.356   5.083  51.685  1.00  0.00     0.106 A 
ENDROOT
BRANCH   2   6
HETATM    6  C12 UNL     1      24.199   1.828  51.913  1.00  0.00     0.067 C 
HETATM    7  N1  UNL     1      23.353   0.994  51.468  1.00  0.00    -0.299 NA
HETATM    8  H13 UNL     1      23.420   0.013  51.336  1.00  0.00     0.187 HD
BRANCH   6   9
HETATM    9  C13 UNL     1      25.491   1.363  52.320  1.00  0.00    -0.007 A 
HETATM   10  C14 UNL     1      25.516   0.019  52.640  1.00  0.00     0.015 A 
HETATM   11  C15 UNL     1      26.720  -0.563  53.058  1.00  0.00     0.020 A 
HETATM   12  C16 UNL     1      27.857   0.208  53.143  1.00  0.00     0.011 A 
HETATM   13 BR1  UNL     1      29.524  -0.533  53.707  1.00  0.00    -0.051 Br
HETATM   14  C17 UNL     1      27.883   1.548  52.836  1.00  0.00     0.020 A 
HETATM   15  C18 UNL     1      26.670   2.053  52.434  1.00  0.00     0.015 A 
ENDBRANCH   6   9
ENDBRANCH   2   6
BRANCH   1  16
HETATM   16  C8  UNL     1      23.774   4.599  49.855  1.00  0.00     0.031 C 
HETATM   17  C9  UNL     1      23.042   3.706  48.922  1.00  0.00     0.016 C 
BRANCH  16  18
HETATM   18  C7  UNL     1      25.115   5.010  49.346  1.00  0.00    -0.047 A 
HETATM   19  C2  UNL     1      25.377   6.240  48.790  1.00  0.00    -0.055 A 
HETATM   20  C1  UNL     1      24.384   7.296  48.646  1.00  0.00     0.049 C 
HETATM   21  C3  UNL     1      26.646   6.580  48.321  1.00  0.00     0.007 A 
HETATM   22  C4  UNL     1      27.693   5.704  48.391  1.00  0.00     0.001 A 
HETATM   23  C5  UNL     1      27.508   4.471  48.928  1.00  0.00     0.001 A 
HETATM   24  C6  UNL     1      26.243   4.174  49.379  1.00  0.00     0.008 A 
ENDBRANCH  16  18
ENDBRANCH   1  16
BRANCH   5  25
HETATM   25  N3  UNL     1      22.267   6.478  51.336  1.00  0.00    -0.387 N 
HETATM   26  H19 UNL     1      21.346   6.562  50.853  1.00  0.00     0.157 HD
HETATM   27  H20 UNL     1      22.980   7.180  51.545  1.00  0.00     0.157 HD
ENDBRANCH   5  25
TORSDOF 5
ENDMDL
MODEL 6
REMARK VINA RESULT:      -8.1      2.597      5.555
REMARK  5 active torsions:
REMARK  status: ('A' for Active; 'I' for Inactive)
REMARK    1  A    between atoms: C7_7  and  C8_8 
REMARK    2  A    between atoms: C8_8  and  C10_10 
REMARK    3  A    between atoms: C11_11  and  C12_12 
REMARK    4  A    between atoms: C12_12  and  C13_14 
REMARK    5  A    between atoms: C20_23  and  N3_24 
ROOT
HETATM    1  C10 UNL     1      23.006   4.881  50.802  1.00  0.00     0.099 A 
HETATM    2  C11 UNL     1      23.013   3.831  51.840  1.00  0.00     0.001 A 
HETATM    3  C19 UNL     1      21.772   3.495  52.156  1.00  0.00     0.129 A 
HETATM    4  N2  UNL     1      20.834   4.277  51.387  1.00  0.00    -0.247 NA
HETATM    5  C20 UNL     1      21.507   5.069  50.620  1.00  0.00     0.106 A 
ENDROOT
BRANCH   2   6
HETATM    6  C12 UNL     1      24.028   3.127  52.600  1.00  0.00     0.067 C 
HETATM    7  N1  UNL     1      24.351   4.021  53.440  1.00  0.00    -0.299 NA
HETATM    8  H13 UNL     1      25.015   4.007  54.176  1.00  0.00     0.187 HD
BRANCH   6   9
HETATM    9  C13 UNL     1      24.682   1.854  52.649  1.00  0.00    -0.007 A 
HETATM   10  C14 UNL     1      25.865   1.814  51.936  1.00  0.00     0.015 A 
HETATM   11  C15 UNL     1      26.603   0.625  51.899  1.00  0.00     0.020 A 
HETATM   12  C16 UNL     1      26.144  -0.485  52.571  1.00  0.00     0.011 A 
HETATM   13 BR1  UNL     1      27.109  -2.132  52.555  1.00  0.00    -0.051 Br
HETATM   14  C17 UNL     1      24.974  -0.496  53.294  1.00  0.00     0.020 A 
HETATM   15  C18 UNL     1      24.301   0.702  53.288  1.00  0.00     0.015 A 
ENDBRANCH   6   9
ENDBRANCH   2   6
BRANCH   1  16
HETATM   16  C8  UNL     1      23.488   4.508  49.454  1.00  0.00     0.031 C 
HETATM   17  C9  UNL     1      23.127   3.205  48.842  1.00  0.00     0.016 C 
BRANCH  16  18
HETATM   18  C7  UNL     1      24.873   4.951  49.122  1.00  0.00    -0.047 A 
HETATM   19  C2  UNL     1      25.179   6.195  48.621  1.00  0.00    -0.055 A 
HETATM   20  C1  UNL     1      24.192   7.235  48.370  1.00  0.00     0.049 C 
HETATM   21  C3  UNL     1      26.490   6.564  48.319  1.00  0.00     0.007 A 
HETATM   22  C4  UNL     1      27.537   5.706  48.507  1.00  0.00     0.001 A 
HETATM   23  C5  UNL     1      27.310   4.460  48.999  1.00  0.00     0.001 A 
HETATM   24  C6  UNL     1      26.005   4.134  49.283  1.00  0.00     0.008 A 
ENDBRANCH  16  18
ENDBRANCH   1  16
BRANCH   5  25
HETATM   25  N3  UNL     1      21.142   6.074  49.655  1.00  0.00    -0.387 N 
HETATM   26  H19 UNL     1      21.105   6.957  50.208  1.00  0.00     0.157 HD
HETATM   27  H20 UNL     1      20.972   5.898  48.662  1.00  0.00     0.157 HD
ENDBRANCH   5  25
TORSDOF 5
ENDMDL
MODEL 7
REMARK VINA RESULT:      -8.1      2.875      4.770
REMARK  5 active torsions:
REMARK  status: ('A' for Active; 'I' for Inactive)
REMARK    1  A    between atoms: C7_7  and  C8_8 
REMARK    2  A    between atoms: C8_8  and  C10_10 
REMARK    3  A    between atoms: C11_11  and  C12_12 
REMARK    4  A    between atoms: C12_12  and  C13_14 
REMARK    5  A    between atoms: C20_23  and  N3_24 
ROOT
HETATM    1  C10 UNL     1      22.688   1.772  51.653  1.00  0.00     0.099 A 
HETATM    2  C11 UNL     1      22.669   2.812  50.606  1.00  0.00     0.001 A 
HETATM    3  C19 UNL     1      21.561   3.531  50.699  1.00  0.00     0.129 A 
HETATM    4  N2  UNL     1      20.743   3.046  51.784  1.00  0.00    -0.247 NA
HETATM    5  C20 UNL     1      21.356   2.052  52.335  1.00  0.00     0.106 A 
ENDROOT
BRANCH   2   6
HETATM    6  C12 UNL     1      23.534   3.198  49.508  1.00  0.00     0.067 C 
HETATM    7  N1  UNL     1      22.954   2.618  48.540  1.00  0.00    -0.299 NA
HETATM    8  H13 UNL     1      23.178   2.590  47.575  1.00  0.00     0.187 HD
BRANCH   6   9
HETATM    9  C13 UNL     1      24.720   3.961  49.255  1.00  0.00    -0.007 A 
HETATM   10  C14 UNL     1      24.464   5.259  48.858  1.00  0.00     0.015 A 
HETATM   11  C15 UNL     1      25.538   6.113  48.574  1.00  0.00     0.020 A 
HETATM   12  C16 UNL     1      26.828   5.650  48.695  1.00  0.00     0.011 A 
HETATM   13 BR1  UNL     1      28.329   6.769  48.322  1.00  0.00    -0.051 Br
HETATM   14  C17 UNL     1      27.134   4.368  49.087  1.00  0.00     0.020 A 
HETATM   15  C18 UNL     1      26.035   3.585  49.348  1.00  0.00     0.015 A 
ENDBRANCH   6   9
ENDBRANCH   2   6
BRANCH   1  16
HETATM   16  C8  UNL     1      23.683   1.916  52.738  1.00  0.00     0.031 C 
HETATM   17  C9  UNL     1      24.078   3.254  53.246  1.00  0.00     0.016 C 
BRANCH  16  18
HETATM   18  C7  UNL     1      24.812   0.942  52.707  1.00  0.00    -0.047 A 
HETATM   19  C2  UNL     1      24.813  -0.250  53.393  1.00  0.00    -0.055 A 
HETATM   20  C1  UNL     1      23.706  -0.713  54.218  1.00  0.00     0.049 C 
HETATM   21  C3  UNL     1      25.894  -1.129  53.339  1.00  0.00     0.007 A 
HETATM   22  C4  UNL     1      27.009  -0.848  52.601  1.00  0.00     0.001 A 
HETATM   23  C5  UNL     1      27.080   0.311  51.897  1.00  0.00     0.001 A 
HETATM   24  C6  UNL     1      25.994   1.152  51.975  1.00  0.00     0.008 A 
ENDBRANCH  16  18
ENDBRANCH   1  16
BRANCH   5  25
HETATM   25  N3  UNL     1      21.045   1.169  53.429  1.00  0.00    -0.387 N 
HETATM   26  H19 UNL     1      21.973   0.953  53.855  1.00  0.00     0.157 HD
HETATM   27  H20 UNL     1      20.104   0.861  53.684  1.00  0.00     0.157 HD
ENDBRANCH   5  25
TORSDOF 5
ENDMDL
MODEL 8
REMARK VINA RESULT:      -7.9      3.850      7.131
REMARK  5 active torsions:
REMARK  status: ('A' for Active; 'I' for Inactive)
REMARK    1  A    between atoms: C7_7  and  C8_8 
REMARK    2  A    between atoms: C8_8  and  C10_10 
REMARK    3  A    between atoms: C11_11  and  C12_12 
REMARK    4  A    between atoms: C12_12  and  C13_14 
REMARK    5  A    between atoms: C20_23  and  N3_24 
ROOT
HETATM    1  C10 UNL     1      23.188  -0.059  52.492  1.00  0.00     0.099 A 
HETATM    2  C11 UNL     1      22.389  -0.608  53.606  1.00  0.00     0.001 A 
HETATM    3  C19 UNL     1      23.171  -0.865  54.643  1.00  0.00     0.129 A 
HETATM    4  N2  UNL     1      24.539  -0.533  54.329  1.00  0.00    -0.247 NA
HETATM    5  C20 UNL     1      24.574  -0.080  53.120  1.00  0.00     0.106 A 
ENDROOT
BRANCH   2   6
HETATM    6  C12 UNL     1      20.997  -0.956  53.813  1.00  0.00     0.067 C 
HETATM    7  N1  UNL     1      21.075  -1.577  54.916  1.00  0.00    -0.299 NA
HETATM    8  H13 UNL     1      20.372  -2.008  55.467  1.00  0.00     0.187 HD
BRANCH   6   9
HETATM    9  C13 UNL     1      19.718  -0.807  53.184  1.00  0.00    -0.007 A 
HETATM   10  C14 UNL     1      18.770  -1.698  53.649  1.00  0.00     0.015 A 
HETATM   11  C15 UNL     1      17.476  -1.663  53.113  1.00  0.00     0.020 A 
HETATM   12  C16 UNL     1      17.167  -0.744  52.136  1.00  0.00     0.011 A 
HETATM   13 BR1  UNL     1      15.421  -0.651  51.371  1.00  0.00    -0.051 Br
HETATM   14  C17 UNL     1      18.075   0.162  51.641  1.00  0.00     0.020 A 
HETATM   15  C18 UNL     1      19.323   0.072  52.209  1.00  0.00     0.015 A 
ENDBRANCH   6   9
ENDBRANCH   2   6
BRANCH   1  16
HETATM   16  C8  UNL     1      22.976   1.362  52.139  1.00  0.00     0.031 C 
HETATM   17  C9  UNL     1      22.241   2.279  53.046  1.00  0.00     0.016 C 
BRANCH  16  18
HETATM   18  C7  UNL     1      22.720   1.632  50.694  1.00  0.00    -0.047 A 
HETATM   19  C2  UNL     1      23.428   2.548  49.951  1.00  0.00    -0.055 A 
HETATM   20  C1  UNL     1      24.522   3.352  50.477  1.00  0.00     0.049 C 
HETATM   21  C3  UNL     1      23.149   2.773  48.602  1.00  0.00     0.007 A 
HETATM   22  C4  UNL     1      22.158   2.093  47.953  1.00  0.00     0.001 A 
HETATM   23  C5  UNL     1      21.418   1.173  48.624  1.00  0.00     0.001 A 
HETATM   24  C6  UNL     1      21.722   0.980  49.951  1.00  0.00     0.008 A 
ENDBRANCH  16  18
ENDBRANCH   1  16
BRANCH   5  25
HETATM   25  N3  UNL     1      25.630   0.391  52.260  1.00  0.00    -0.387 N 
HETATM   26  H19 UNL     1      26.402   0.637  52.916  1.00  0.00     0.157 HD
HETATM   27  H20 UNL     1      25.574   0.446  51.241  1.00  0.00     0.157 HD
ENDBRANCH   5  25
TORSDOF 5
ENDMDL
MODEL 9
REMARK VINA RESULT:      -7.5      2.773      4.664
REMARK  5 active torsions:
REMARK  status: ('A' for Active; 'I' for Inactive)
REMARK    1  A    between atoms: C7_7  and  C8_8 
REMARK    2  A    between atoms: C8_8  and  C10_10 
REMARK    3  A    between atoms: C11_11  and  C12_12 
REMARK    4  A    between atoms: C12_12  and  C13_14 
REMARK    5  A    between atoms: C20_23  and  N3_24 
ROOT
HETATM    1  C10 UNL     1      20.993   0.578  50.971  1.00  0.00     0.099 A 
HETATM    2  C11 UNL     1      21.000   1.454  49.782  1.00  0.00     0.001 A 
HETATM    3  C19 UNL     1      19.759   1.722  49.407  1.00  0.00     0.129 A 
HETATM    4  N2  UNL     1      18.821   1.058  50.280  1.00  0.00    -0.247 NA
HETATM    5  C20 UNL     1      19.494   0.404  51.167  1.00  0.00     0.106 A 
ENDROOT
BRANCH   2   6
HETATM    6  C12 UNL     1      22.016   2.042  48.931  1.00  0.00     0.067 C 
HETATM    7  N1  UNL     1      22.004   1.227  47.959  1.00  0.00    -0.299 NA
HETATM    8  H13 UNL     1      22.534   1.212  47.121  1.00  0.00     0.187 HD
BRANCH   6   9
HETATM    9  C13 UNL     1      22.917   3.155  48.898  1.00  0.00    -0.007 A 
HETATM   10  C14 UNL     1      24.126   2.902  49.515  1.00  0.00     0.015 A 
HETATM   11  C15 UNL     1      25.098   3.909  49.558  1.00  0.00     0.020 A 
HETATM   12  C16 UNL     1      24.837   5.134  48.985  1.00  0.00     0.011 A 
HETATM   13 BR1  UNL     1      26.124   6.543  49.014  1.00  0.00    -0.051 Br
HETATM   14  C17 UNL     1      23.650   5.433  48.360  1.00  0.00     0.020 A 
HETATM   15  C18 UNL     1      22.743   4.401  48.355  1.00  0.00     0.015 A 
ENDBRANCH   6   9
ENDBRANCH   2   6
BRANCH   1  16
HETATM   16  C8  UNL     1      21.457   1.162  52.249  1.00  0.00     0.031 C 
HETATM   17  C9  UNL     1      21.288   2.608  52.539  1.00  0.00     0.016 C 
BRANCH  16  18
HETATM   18  C7  UNL     1      22.727   0.597  52.789  1.00  0.00    -0.047 A 
HETATM   19  C2  UNL     1      22.788  -0.258  53.865  1.00  0.00    -0.055 A 
HETATM   20  C1  UNL     1      21.620  -0.727  54.597  1.00  0.00     0.049 C 
HETATM   21  C3  UNL     1      24.001  -0.757  54.340  1.00  0.00     0.007 A 
HETATM   22  C4  UNL     1      25.190  -0.421  53.758  1.00  0.00     0.001 A 
HETATM   23  C5  UNL     1      25.208   0.418  52.690  1.00  0.00     0.001 A 
HETATM   24  C6  UNL     1      23.992   0.890  52.252  1.00  0.00     0.008 A 
ENDBRANCH  16  18
ENDBRANCH   1  16
BRANCH   5  25
HETATM   25  N3  UNL     1      19.128  -0.443  52.274  1.00  0.00    -0.387 N 
HETATM   26  H19 UNL     1      20.037  -0.669  52.733  1.00  0.00     0.157 HD
HETATM   27  H20 UNL     1      18.172  -0.722  52.507  1.00  0.00     0.157 HD
ENDBRANCH   5  25
TORSDOF 5
ENDMDL
