MODEL 1
REMARK VINA RESULT:      -7.9      0.000      0.000
REMARK  4 active torsions:
REMARK  status: ('A' for Active; 'I' for Inactive)
REMARK    1  A    between atoms: C3_3  and  C4_4 
REMARK       I    between atoms: C4_4  and  N1_6 
REMARK    2  A    between atoms: N1_6  and  C5_7 
REMARK    3  A    between atoms: C8_13  and  C9_14 
REMARK    4  A    between atoms: C16_23  and  N5_24 
ROOT
HETATM    1  C1  UNL     1      17.159  -0.801  52.324  1.00  0.00     0.112 C 
HETATM    2  C2  UNL     1      18.385  -0.176  51.767  1.00  0.00    -0.101 C 
HETATM    3  C3  UNL     1      19.384   0.338  51.329  1.00  0.00    -0.006 C 
ENDROOT
BRANCH   3   4
HETATM    4  C4  UNL     1      20.590   0.944  50.826  1.00  0.00     0.302 C 
HETATM    5  O1  UNL     1      21.027   0.586  49.703  1.00  0.00    -0.258 OA
HETATM    6  N1  UNL     1      21.237   1.927  51.629  1.00  0.00    -0.299 N 
HETATM    7  H4  UNL     1      20.910   2.255  52.565  1.00  0.00     0.171 HD
BRANCH   6   8
HETATM    8  C5  UNL     1      22.424   2.490  51.078  1.00  0.00     0.161 A 
HETATM    9  N2  UNL     1      22.347   3.472  50.157  1.00  0.00    -0.223 NA
HETATM   10  C6  UNL     1      23.448   4.044  49.600  1.00  0.00     0.218 A 
HETATM   11  N3  UNL     1      24.700   3.670  49.927  1.00  0.00    -0.296 N 
HETATM   12  C7  UNL     1      25.961   3.987  49.599  1.00  0.00     0.216 A 
HETATM   13  C15 UNL     1      24.783   2.692  50.846  1.00  0.00     0.101 A 
HETATM   14  N4  UNL     1      26.798   3.213  50.307  1.00  0.00    -0.240 NA
HETATM   15  C8  UNL     1      26.084   2.373  51.116  1.00  0.00     0.098 A 
HETATM   16  C16 UNL     1      23.694   2.084  51.436  1.00  0.00     0.102 A 
BRANCH  15  17
HETATM   17  C9  UNL     1      26.835   1.453  51.954  1.00  0.00    -0.003 A 
HETATM   18  C10 UNL     1      26.797   0.077  52.003  1.00  0.00     0.017 A 
HETATM   19  C11 UNL     1      27.582  -0.661  52.837  1.00  0.00     0.045 A 
HETATM   20  C12 UNL     1      28.466  -0.047  53.685  1.00  0.00     0.138 A 
HETATM   21  F1  UNL     1      29.246  -0.777  54.513  1.00  0.00    -0.204 F 
HETATM   22  C13 UNL     1      28.580   1.309  53.713  1.00  0.00     0.073 A 
HETATM   23 CL1  UNL     1      29.686   2.157  54.769  1.00  0.00    -0.081 Cl
HETATM   24  C14 UNL     1      27.763   2.006  52.850  1.00  0.00     0.041 A 
ENDBRANCH  15  17
BRANCH  16  25
HETATM   25  N5  UNL     1      23.777   1.043  52.393  1.00  0.00    -0.394 N 
HETATM   26  H10 UNL     1      24.700   0.614  52.595  1.00  0.00     0.156 HD
HETATM   27  H11 UNL     1      23.108   0.547  53.003  1.00  0.00     0.156 HD
ENDBRANCH  16  25
ENDBRANCH   6   8
ENDBRANCH   3   4
TORSDOF 4
ENDMDL
MODEL 2
REMARK VINA RESULT:      -7.9      2.390      4.993
REMARK  4 active torsions:
REMARK  status: ('A' for Active; 'I' for Inactive)
REMARK    1  A    between atoms: C3_3  and  C4_4 
REMARK       I    between atoms: C4_4  and  N1_6 
REMARK    2  A    between atoms: N1_6  and  C5_7 
REMARK    3  A    between atoms: C8_13  and  C9_14 
REMARK    4  A    between atoms: C16_23  and  N5_24 
ROOT
HETATM    1  C1  UNL     1      26.021   7.990  47.274  1.00  0.00     0.112 C 
HETATM    2  C2  UNL     1      25.567   6.959  48.242  1.00  0.00    -0.101 C 
HETATM    3  C3  UNL     1      25.190   6.133  49.035  1.00  0.00    -0.006 C 
ENDROOT
BRANCH   3   4
HETATM    4  C4  UNL     1      24.717   5.155  49.980  1.00  0.00     0.302 C 
HETATM    5  O1  UNL     1      24.425   5.527  51.145  1.00  0.00    -0.258 OA
HETATM    6  N1  UNL     1      24.599   3.802  49.549  1.00  0.00    -0.299 N 
HETATM    7  H4  UNL     1      24.829   3.449  48.593  1.00  0.00     0.171 HD
BRANCH   6   8
HETATM    8  C5  UNL     1      24.126   2.881  50.527  1.00  0.00     0.161 A 
HETATM    9  N2  UNL     1      22.808   2.795  50.798  1.00  0.00    -0.223 NA
HETATM   10  C6  UNL     1      22.302   1.935  51.722  1.00  0.00     0.218 A 
HETATM   11  N3  UNL     1      23.083   1.101  52.436  1.00  0.00    -0.296 N 
HETATM   12  C7  UNL     1      22.948   0.167  53.388  1.00  0.00     0.216 A 
HETATM   13  C15 UNL     1      24.399   1.182  52.169  1.00  0.00     0.101 A 
HETATM   14  N4  UNL     1      24.163  -0.314  53.695  1.00  0.00    -0.240 NA
HETATM   15  C8  UNL     1      25.116   0.307  52.937  1.00  0.00     0.098 A 
HETATM   16  C16 UNL     1      24.954   2.039  51.242  1.00  0.00     0.102 A 
BRANCH  15  17
HETATM   17  C9  UNL     1      26.499  -0.088  53.145  1.00  0.00    -0.003 A 
HETATM   18  C10 UNL     1      27.135  -1.266  52.819  1.00  0.00     0.017 A 
HETATM   19  C11 UNL     1      28.457  -1.490  53.060  1.00  0.00     0.045 A 
HETATM   20  C12 UNL     1      29.230  -0.526  53.652  1.00  0.00     0.138 A 
HETATM   21  F1  UNL     1      30.542  -0.745  53.892  1.00  0.00    -0.204 F 
HETATM   22  C13 UNL     1      28.696   0.674  54.012  1.00  0.00     0.073 A 
HETATM   23 CL1  UNL     1      29.623   1.947  54.770  1.00  0.00    -0.081 Cl
HETATM   24  C14 UNL     1      27.355   0.847  53.746  1.00  0.00     0.041 A 
ENDBRANCH  15  17
BRANCH  16  25
HETATM   25  N5  UNL     1      26.340   2.137  50.969  1.00  0.00    -0.394 N 
HETATM   26  H10 UNL     1      27.011   1.605  51.556  1.00  0.00     0.156 HD
HETATM   27  H11 UNL     1      26.922   2.640  50.280  1.00  0.00     0.156 HD
ENDBRANCH  16  25
ENDBRANCH   6   8
ENDBRANCH   3   4
TORSDOF 4
ENDMDL
MODEL 3
REMARK VINA RESULT:      -7.8      2.936      5.737
REMARK  4 active torsions:
REMARK  status: ('A' for Active; 'I' for Inactive)
REMARK    1  A    between atoms: C3_3  and  C4_4 
REMARK       I    between atoms: C4_4  and  N1_6 
REMARK    2  A    between atoms: N1_6  and  C5_7 
REMARK    3  A    between atoms: C8_13  and  C9_14 
REMARK    4  A    between atoms: C16_23  and  N5_24 
ROOT
HETATM    1  C1  UNL     1      27.745   8.677  46.665  1.00  0.00     0.112 C 
HETATM    2  C2  UNL     1      27.056   7.780  47.627  1.00  0.00    -0.101 C 
HETATM    3  C3  UNL     1      26.496   7.063  48.419  1.00  0.00    -0.006 C 
ENDROOT
BRANCH   3   4
HETATM    4  C4  UNL     1      25.810   6.225  49.367  1.00  0.00     0.302 C 
HETATM    5  O1  UNL     1      25.484   6.708  50.481  1.00  0.00    -0.258 OA
HETATM    6  N1  UNL     1      25.529   4.878  48.997  1.00  0.00    -0.299 N 
HETATM    7  H4  UNL     1      25.780   4.436  48.085  1.00  0.00     0.171 HD
BRANCH   6   8
HETATM    8  C5  UNL     1      24.848   4.098  49.976  1.00  0.00     0.161 A 
HETATM    9  N2  UNL     1      23.506   4.168  50.088  1.00  0.00    -0.223 NA
HETATM   10  C6  UNL     1      22.806   3.447  51.004  1.00  0.00     0.218 A 
HETATM   11  N3  UNL     1      23.405   2.605  51.870  1.00  0.00    -0.296 N 
HETATM   12  C7  UNL     1      23.059   1.777  52.865  1.00  0.00     0.216 A 
HETATM   13  C15 UNL     1      24.743   2.531  51.762  1.00  0.00     0.101 A 
HETATM   14  N4  UNL     1      24.170   1.206  53.355  1.00  0.00    -0.240 NA
HETATM   15  C8  UNL     1      25.266   1.661  52.677  1.00  0.00     0.098 A 
HETATM   16  C16 UNL     1      25.491   3.244  50.850  1.00  0.00     0.102 A 
BRANCH  15  17
HETATM   17  C9  UNL     1      26.565   1.149  53.083  1.00  0.00    -0.003 A 
HETATM   18  C10 UNL     1      27.621   1.803  53.679  1.00  0.00     0.017 A 
HETATM   19  C11 UNL     1      28.784   1.182  54.024  1.00  0.00     0.045 A 
HETATM   20  C12 UNL     1      28.955  -0.156  53.785  1.00  0.00     0.138 A 
HETATM   21  F1  UNL     1      30.107  -0.776  54.126  1.00  0.00    -0.204 F 
HETATM   22  C13 UNL     1      27.970  -0.893  53.200  1.00  0.00     0.073 A 
HETATM   23 CL1  UNL     1      28.121  -2.603  52.867  1.00  0.00    -0.081 Cl
HETATM   24  C14 UNL     1      26.816  -0.215  52.872  1.00  0.00     0.041 A 
ENDBRANCH  15  17
BRANCH  16  25
HETATM   25  N5  UNL     1      26.902   3.179  50.743  1.00  0.00    -0.394 N 
HETATM   26  H10 UNL     1      27.479   3.912  51.199  1.00  0.00     0.156 HD
HETATM   27  H11 UNL     1      27.579   2.541  50.294  1.00  0.00     0.156 HD
ENDBRANCH  16  25
ENDBRANCH   6   8
ENDBRANCH   3   4
TORSDOF 4
ENDMDL
MODEL 4
REMARK VINA RESULT:      -7.7      2.212      4.149
REMARK  4 active torsions:
REMARK  status: ('A' for Active; 'I' for Inactive)
REMARK    1  A    between atoms: C3_3  and  C4_4 
REMARK       I    between atoms: C4_4  and  N1_6 
REMARK    2  A    between atoms: N1_6  and  C5_7 
REMARK    3  A    between atoms: C8_13  and  C9_14 
REMARK    4  A    between atoms: C16_23  and  N5_24 
ROOT
HETATM    1  C1  UNL     1      21.851   4.458  45.571  1.00  0.00     0.112 C 
HETATM    2  C2  UNL     1      21.817   3.600  46.783  1.00  0.00    -0.101 C 
HETATM    3  C3  UNL     1      21.803   2.899  47.764  1.00  0.00    -0.006 C 
ENDROOT
BRANCH   3   4
HETATM    4  C4  UNL     1      21.809   2.073  48.943  1.00  0.00     0.302 C 
HETATM    5  O1  UNL     1      21.576   0.843  48.825  1.00  0.00    -0.258 OA
HETATM    6  N1  UNL     1      22.081   2.690  50.198  1.00  0.00    -0.299 N 
HETATM    7  H4  UNL     1      22.280   3.705  50.343  1.00  0.00     0.171 HD
BRANCH   6   8
HETATM    8  C5  UNL     1      22.074   1.822  51.328  1.00  0.00     0.161 A 
HETATM    9  N2  UNL     1      20.914   1.517  51.943  1.00  0.00    -0.223 NA
HETATM   10  C6  UNL     1      20.850   0.695  53.025  1.00  0.00     0.218 A 
HETATM   11  N3  UNL     1      21.945   0.124  53.563  1.00  0.00    -0.296 N 
HETATM   12  C7  UNL     1      22.254  -0.694  54.579  1.00  0.00     0.216 A 
HETATM   13  C15 UNL     1      23.105   0.425  52.953  1.00  0.00     0.101 A 
HETATM   14  N4  UNL     1      23.582  -0.889  54.587  1.00  0.00    -0.240 NA
HETATM   15  C8  UNL     1      24.161  -0.192  53.564  1.00  0.00     0.098 A 
HETATM   16  C16 UNL     1      23.215   1.253  51.856  1.00  0.00     0.102 A 
BRANCH  15  17
HETATM   17  C9  UNL     1      25.606  -0.283  53.425  1.00  0.00    -0.003 A 
HETATM   18  C10 UNL     1      26.389  -1.356  53.063  1.00  0.00     0.017 A 
HETATM   19  C11 UNL     1      27.745  -1.287  52.955  1.00  0.00     0.045 A 
HETATM   20  C12 UNL     1      28.403  -0.114  53.210  1.00  0.00     0.138 A 
HETATM   21  F1  UNL     1      29.750  -0.041  53.105  1.00  0.00    -0.204 F 
HETATM   22  C13 UNL     1      27.720   1.006  53.576  1.00  0.00     0.073 A 
HETATM   23 CL1  UNL     1      28.497   2.535  53.916  1.00  0.00    -0.081 Cl
HETATM   24  C14 UNL     1      26.351   0.880  53.669  1.00  0.00     0.041 A 
ENDBRANCH  15  17
BRANCH  16  25
HETATM   25  N5  UNL     1      24.437   1.583  51.220  1.00  0.00    -0.394 N 
HETATM   26  H10 UNL     1      24.724   1.060  50.371  1.00  0.00     0.156 HD
HETATM   27  H11 UNL     1      25.192   2.268  51.386  1.00  0.00     0.156 HD
ENDBRANCH  16  25
ENDBRANCH   6   8
ENDBRANCH   3   4
TORSDOF 4
ENDMDL
MODEL 5
REMARK VINA RESULT:      -7.4      4.198      7.193
REMARK  4 active torsions:
REMARK  status: ('A' for Active; 'I' for Inactive)
REMARK    1  A    between atoms: C3_3  and  C4_4 
REMARK       I    between atoms: C4_4  and  N1_6 
REMARK    2  A    between atoms: N1_6  and  C5_7 
REMARK    3  A    between atoms: C8_13  and  C9_14 
REMARK    4  A    between atoms: C16_23  and  N5_24 
ROOT
HETATM    1  C1  UNL     1      30.088  -0.874  53.657  1.00  0.00     0.112 C 
HETATM    2  C2  UNL     1      28.926   0.039  53.513  1.00  0.00    -0.101 C 
HETATM    3  C3  UNL     1      27.982   0.778  53.381  1.00  0.00    -0.006 C 
ENDROOT
BRANCH   3   4
HETATM    4  C4  UNL     1      26.844   1.643  53.209  1.00  0.00     0.302 C 
HETATM    5  O1  UNL     1      26.484   2.371  54.168  1.00  0.00    -0.258 OA
HETATM    6  N1  UNL     1      26.175   1.635  51.951  1.00  0.00    -0.299 N 
HETATM    7  H4  UNL     1      26.439   1.048  51.128  1.00  0.00     0.171 HD
BRANCH   6   8
HETATM    8  C5  UNL     1      25.056   2.511  51.841  1.00  0.00     0.161 A 
HETATM    9  N2  UNL     1      23.892   2.208  52.449  1.00  0.00    -0.223 NA
HETATM   10  C6  UNL     1      22.795   3.007  52.376  1.00  0.00     0.218 A 
HETATM   11  N3  UNL     1      22.790   4.165  51.688  1.00  0.00    -0.296 N 
HETATM   12  C7  UNL     1      21.938   5.160  51.402  1.00  0.00     0.216 A 
HETATM   13  C15 UNL     1      23.949   4.473  51.079  1.00  0.00     0.101 A 
HETATM   14  N4  UNL     1      22.568   6.060  50.632  1.00  0.00    -0.240 NA
HETATM   15  C8  UNL     1      23.855   5.658  50.404  1.00  0.00     0.098 A 
HETATM   16  C16 UNL     1      25.084   3.692  51.127  1.00  0.00     0.102 A 
BRANCH  15  17
HETATM   17  C9  UNL     1      24.688   6.516  49.577  1.00  0.00    -0.003 A 
HETATM   18  C10 UNL     1      24.740   6.633  48.205  1.00  0.00     0.017 A 
HETATM   19  C11 UNL     1      25.567   7.504  47.562  1.00  0.00     0.045 A 
HETATM   20  C12 UNL     1      26.404   8.322  48.275  1.00  0.00     0.138 A 
HETATM   21  F1  UNL     1      27.226   9.188  47.640  1.00  0.00    -0.204 F 
HETATM   22  C13 UNL     1      26.428   8.283  49.636  1.00  0.00     0.073 A 
HETATM   23 CL1  UNL     1      27.470   9.298  50.606  1.00  0.00    -0.081 Cl
HETATM   24  C14 UNL     1      25.572   7.385  50.233  1.00  0.00     0.041 A 
ENDBRANCH  15  17
BRANCH  16  25
HETATM   25  N5  UNL     1      26.302   4.006  50.475  1.00  0.00    -0.394 N 
HETATM   26  H10 UNL     1      26.429   3.735  49.481  1.00  0.00     0.156 HD
HETATM   27  H11 UNL     1      27.181   4.477  50.743  1.00  0.00     0.156 HD
ENDBRANCH  16  25
ENDBRANCH   6   8
ENDBRANCH   3   4
TORSDOF 4
ENDMDL
MODEL 6
REMARK VINA RESULT:      -7.4      4.296      7.618
REMARK  4 active torsions:
REMARK  status: ('A' for Active; 'I' for Inactive)
REMARK    1  A    between atoms: C3_3  and  C4_4 
REMARK       I    between atoms: C4_4  and  N1_6 
REMARK    2  A    between atoms: N1_6  and  C5_7 
REMARK    3  A    between atoms: C8_13  and  C9_14 
REMARK    4  A    between atoms: C16_23  and  N5_24 
ROOT
HETATM    1  C1  UNL     1      30.153  -1.476  53.831  1.00  0.00     0.112 C 
HETATM    2  C2  UNL     1      28.979  -0.579  53.675  1.00  0.00    -0.101 C 
HETATM    3  C3  UNL     1      28.018   0.138  53.556  1.00  0.00    -0.006 C 
ENDROOT
BRANCH   3   4
HETATM    4  C4  UNL     1      26.865   0.992  53.438  1.00  0.00     0.302 C 
HETATM    5  O1  UNL     1      26.682   1.890  54.299  1.00  0.00    -0.258 OA
HETATM    6  N1  UNL     1      25.977   0.780  52.343  1.00  0.00    -0.299 N 
HETATM    7  H4  UNL     1      26.089   0.049  51.606  1.00  0.00     0.171 HD
BRANCH   6   8
HETATM    8  C5  UNL     1      24.855   1.655  52.279  1.00  0.00     0.161 A 
HETATM    9  N2  UNL     1      25.030   2.967  52.019  1.00  0.00    -0.223 NA
HETATM   10  C6  UNL     1      23.995   3.846  51.947  1.00  0.00     0.218 A 
HETATM   11  N3  UNL     1      22.714   3.470  52.131  1.00  0.00    -0.296 N 
HETATM   12  C7  UNL     1      21.496   4.029  52.141  1.00  0.00     0.216 A 
HETATM   13  C15 UNL     1      22.534   2.163  52.390  1.00  0.00     0.101 A 
HETATM   14  N4  UNL     1      20.587   3.076  52.401  1.00  0.00    -0.240 NA
HETATM   15  C8  UNL     1      21.210   1.870  52.566  1.00  0.00     0.098 A 
HETATM   16  C16 UNL     1      23.553   1.238  52.473  1.00  0.00     0.102 A 
BRANCH  15  17
HETATM   17  C9  UNL     1      20.373   0.719  52.863  1.00  0.00    -0.003 A 
HETATM   18  C10 UNL     1      20.517  -0.245  53.837  1.00  0.00     0.017 A 
HETATM   19  C11 UNL     1      19.633  -1.266  54.011  1.00  0.00     0.045 A 
HETATM   20  C12 UNL     1      18.534  -1.380  53.201  1.00  0.00     0.138 A 
HETATM   21  F1  UNL     1      17.655  -2.393  53.371  1.00  0.00    -0.204 F 
HETATM   22  C13 UNL     1      18.301  -0.478  52.208  1.00  0.00     0.073 A 
HETATM   23 CL1  UNL     1      16.920  -0.564  51.139  1.00  0.00    -0.081 Cl
HETATM   24  C14 UNL     1      19.227   0.534  52.077  1.00  0.00     0.041 A 
ENDBRANCH  15  17
BRANCH  16  25
HETATM   25  N5  UNL     1      23.368  -0.137  52.760  1.00  0.00    -0.394 N 
HETATM   26  H10 UNL     1      23.114  -0.785  51.990  1.00  0.00     0.156 HD
HETATM   27  H11 UNL     1      23.422  -0.727  53.606  1.00  0.00     0.156 HD
ENDBRANCH  16  25
ENDBRANCH   6   8
ENDBRANCH   3   4
TORSDOF 4
ENDMDL
MODEL 7
REMARK VINA RESULT:      -7.2      4.122      7.612
REMARK  4 active torsions:
REMARK  status: ('A' for Active; 'I' for Inactive)
REMARK    1  A    between atoms: C3_3  and  C4_4 
REMARK       I    between atoms: C4_4  and  N1_6 
REMARK    2  A    between atoms: N1_6  and  C5_7 
REMARK    3  A    between atoms: C8_13  and  C9_14 
REMARK    4  A    between atoms: C16_23  and  N5_24 
ROOT
HETATM    1  C1  UNL     1      30.529  -0.525  53.744  1.00  0.00     0.112 C 
HETATM    2  C2  UNL     1      29.056  -0.648  53.607  1.00  0.00    -0.101 C 
HETATM    3  C3  UNL     1      27.858  -0.734  53.502  1.00  0.00    -0.006 C 
ENDROOT
BRANCH   3   4
HETATM    4  C4  UNL     1      26.426  -0.813  53.369  1.00  0.00     0.302 C 
HETATM    5  O1  UNL     1      25.940  -1.399  52.368  1.00  0.00    -0.258 OA
HETATM    6  N1  UNL     1      25.621  -0.221  54.384  1.00  0.00    -0.299 N 
HETATM    7  H4  UNL     1      25.980   0.274  55.230  1.00  0.00     0.171 HD
BRANCH   6   8
HETATM    8  C5  UNL     1      24.212  -0.331  54.198  1.00  0.00     0.161 A 
HETATM    9  N2  UNL     1      23.503  -1.241  54.897  1.00  0.00    -0.223 NA
HETATM   10  C6  UNL     1      22.159  -1.390  54.758  1.00  0.00     0.218 A 
HETATM   11  N3  UNL     1      21.433  -0.636  53.909  1.00  0.00    -0.296 N 
HETATM   12  C7  UNL     1      20.157  -0.508  53.520  1.00  0.00     0.216 A 
HETATM   13  C15 UNL     1      22.135   0.274  53.210  1.00  0.00     0.101 A 
HETATM   14  N4  UNL     1      20.083   0.465  52.598  1.00  0.00    -0.240 NA
HETATM   15  C8  UNL     1      21.324   0.990  52.373  1.00  0.00     0.098 A 
HETATM   16  C16 UNL     1      23.497   0.457  53.319  1.00  0.00     0.102 A 
BRANCH  15  17
HETATM   17  C9  UNL     1      21.433   2.058  51.393  1.00  0.00    -0.003 A 
HETATM   18  C10 UNL     1      21.201   3.408  51.534  1.00  0.00     0.017 A 
HETATM   19  C11 UNL     1      21.364   4.303  50.519  1.00  0.00     0.045 A 
HETATM   20  C12 UNL     1      21.777   3.883  49.283  1.00  0.00     0.138 A 
HETATM   21  F1  UNL     1      21.941   4.768  48.273  1.00  0.00    -0.204 F 
HETATM   22  C13 UNL     1      22.034   2.568  49.040  1.00  0.00     0.073 A 
HETATM   23 CL1  UNL     1      22.564   1.965  47.487  1.00  0.00    -0.081 Cl
HETATM   24  C14 UNL     1      21.852   1.708  50.101  1.00  0.00     0.041 A 
ENDBRANCH  15  17
BRANCH  16  25
HETATM   25  N5  UNL     1      24.242   1.404  52.573  1.00  0.00    -0.394 N 
HETATM   26  H10 UNL     1      23.754   2.227  52.169  1.00  0.00     0.156 HD
HETATM   27  H11 UNL     1      25.231   1.511  52.295  1.00  0.00     0.156 HD
ENDBRANCH  16  25
ENDBRANCH   6   8
ENDBRANCH   3   4
TORSDOF 4
ENDMDL
MODEL 8
REMARK VINA RESULT:      -7.1      7.986     10.075
REMARK  4 active torsions:
REMARK  status: ('A' for Active; 'I' for Inactive)
REMARK    1  A    between atoms: C3_3  and  C4_4 
REMARK       I    between atoms: C4_4  and  N1_6 
REMARK    2  A    between atoms: N1_6  and  C5_7 
REMARK    3  A    between atoms: C8_13  and  C9_14 
REMARK    4  A    between atoms: C16_23  and  N5_24 
ROOT
HETATM    1  C1  UNL     1      24.221   6.937  51.195  1.00  0.00     0.112 C 
HETATM    2  C2  UNL     1      25.382   7.502  50.462  1.00  0.00    -0.101 C 
HETATM    3  C3  UNL     1      26.334   7.955  49.877  1.00  0.00    -0.006 C 
ENDROOT
BRANCH   3   4
HETATM    4  C4  UNL     1      27.483   8.474  49.181  1.00  0.00     0.302 C 
HETATM    5  O1  UNL     1      27.454   8.543  47.927  1.00  0.00    -0.258 OA
HETATM    6  N1  UNL     1      28.608   8.888  49.952  1.00  0.00    -0.299 N 
HETATM    7  H4  UNL     1      28.676   8.849  50.993  1.00  0.00     0.171 HD
BRANCH   6   8
HETATM    8  C5  UNL     1      29.714   9.393  49.209  1.00  0.00     0.161 A 
HETATM    9  N2  UNL     1      29.716  10.669  48.775  1.00  0.00    -0.223 NA
HETATM   10  C6  UNL     1      30.743  11.202  48.062  1.00  0.00     0.218 A 
HETATM   11  N3  UNL     1      31.840  10.490  47.735  1.00  0.00    -0.296 N 
HETATM   12  C7  UNL     1      32.991  10.668  47.071  1.00  0.00     0.216 A 
HETATM   13  C15 UNL     1      31.844   9.216  48.165  1.00  0.00     0.101 A 
HETATM   14  N4  UNL     1      33.686   9.519  47.098  1.00  0.00    -0.240 NA
HETATM   15  C8  UNL     1      32.987   8.568  47.788  1.00  0.00     0.098 A 
HETATM   16  C16 UNL     1      30.824   8.636  48.890  1.00  0.00     0.102 A 
BRANCH  15  17
HETATM   17  C9  UNL     1      33.591   7.252  47.912  1.00  0.00    -0.003 A 
HETATM   18  C10 UNL     1      34.454   6.766  48.869  1.00  0.00     0.017 A 
HETATM   19  C11 UNL     1      34.928   5.489  48.867  1.00  0.00     0.045 A 
HETATM   20  C12 UNL     1      34.556   4.611  47.883  1.00  0.00     0.138 A 
HETATM   21  F1  UNL     1      35.025   3.343  47.878  1.00  0.00    -0.204 F 
HETATM   22  C13 UNL     1      33.706   4.993  46.890  1.00  0.00     0.073 A 
HETATM   23 CL1  UNL     1      33.191   3.926  45.606  1.00  0.00    -0.081 Cl
HETATM   24  C14 UNL     1      33.258   6.295  46.941  1.00  0.00     0.041 A 
ENDBRANCH  15  17
BRANCH  16  25
HETATM   25  N5  UNL     1      30.818   7.291  49.332  1.00  0.00    -0.394 N 
HETATM   26  H10 UNL     1      30.897   6.527  48.633  1.00  0.00     0.156 HD
HETATM   27  H11 UNL     1      30.751   6.816  50.247  1.00  0.00     0.156 HD
ENDBRANCH  16  25
ENDBRANCH   6   8
ENDBRANCH   3   4
TORSDOF 4
ENDMDL
MODEL 9
REMARK VINA RESULT:      -7.1      3.891      6.957
REMARK  4 active torsions:
REMARK  status: ('A' for Active; 'I' for Inactive)
REMARK    1  A    between atoms: C3_3  and  C4_4 
REMARK       I    between atoms: C4_4  and  N1_6 
REMARK    2  A    between atoms: N1_6  and  C5_7 
REMARK    3  A    between atoms: C8_13  and  C9_14 
REMARK    4  A    between atoms: C16_23  and  N5_24 
ROOT
HETATM    1  C1  UNL     1      31.092   7.158  46.523  1.00  0.00     0.112 C 
HETATM    2  C2  UNL     1      29.843   7.053  47.320  1.00  0.00    -0.101 C 
HETATM    3  C3  UNL     1      28.821   6.973  47.955  1.00  0.00    -0.006 C 
ENDROOT
BRANCH   3   4
HETATM    4  C4  UNL     1      27.589   6.868  48.693  1.00  0.00     0.302 C 
HETATM    5  O1  UNL     1      27.213   7.844  49.390  1.00  0.00    -0.258 OA
HETATM    6  N1  UNL     1      26.849   5.654  48.599  1.00  0.00    -0.299 N 
HETATM    7  H4  UNL     1      27.122   4.820  48.034  1.00  0.00     0.171 HD
BRANCH   6   8
HETATM    8  C5  UNL     1      25.639   5.609  49.351  1.00  0.00     0.161 A 
HETATM    9  N2  UNL     1      24.675   6.529  49.143  1.00  0.00    -0.223 NA
HETATM   10  C6  UNL     1      23.503   6.533  49.833  1.00  0.00     0.218 A 
HETATM   11  N3  UNL     1      23.217   5.615  50.777  1.00  0.00    -0.296 N 
HETATM   12  C7  UNL     1      22.220   5.322  51.623  1.00  0.00     0.216 A 
HETATM   13  C15 UNL     1      24.175   4.695  50.988  1.00  0.00     0.101 A 
HETATM   14  N4  UNL     1      22.564   4.239  52.337  1.00  0.00    -0.240 NA
HETATM   15  C8  UNL     1      23.806   3.809  51.961  1.00  0.00     0.098 A 
HETATM   16  C16 UNL     1      25.377   4.655  50.313  1.00  0.00     0.102 A 
BRANCH  15  17
HETATM   17  C9  UNL     1      24.345   2.642  52.641  1.00  0.00    -0.003 A 
HETATM   18  C10 UNL     1      25.520   2.499  53.345  1.00  0.00     0.017 A 
HETATM   19  C11 UNL     1      25.889   1.337  53.952  1.00  0.00     0.045 A 
HETATM   20  C12 UNL     1      25.083   0.231  53.885  1.00  0.00     0.138 A 
HETATM   21  F1  UNL     1      25.446  -0.924  54.486  1.00  0.00    -0.204 F 
HETATM   22  C13 UNL     1      23.899   0.269  53.212  1.00  0.00     0.073 A 
HETATM   23 CL1  UNL     1      22.823  -1.103  53.088  1.00  0.00    -0.081 Cl
HETATM   24  C14 UNL     1      23.576   1.469  52.618  1.00  0.00     0.041 A 
ENDBRANCH  15  17
BRANCH  16  25
HETATM   25  N5  UNL     1      26.394   3.696  50.543  1.00  0.00    -0.394 N 
HETATM   26  H10 UNL     1      27.272   3.746  49.991  1.00  0.00     0.156 HD
HETATM   27  H11 UNL     1      26.513   2.884  51.170  1.00  0.00     0.156 HD
ENDBRANCH  16  25
ENDBRANCH   6   8
ENDBRANCH   3   4
TORSDOF 4
ENDMDL
