MODEL 1
REMARK VINA RESULT:      -7.6      0.000      0.000
REMARK  7 active torsions:
REMARK  status: ('A' for Active; 'I' for Inactive)
REMARK    1  A    between atoms: O1_2  and  C2_3 
REMARK    2  A    between atoms: C2_3  and  C3_4 
REMARK    3  A    between atoms: C3_4  and  C4_5 
REMARK    4  A    between atoms: C3_4  and  C5_7 
REMARK    5  A    between atoms: C5_7  and  C6_8 
REMARK    6  A    between atoms: N1_12  and  C10_13 
REMARK    7  A    between atoms: C16_21  and  N3_22 
ROOT
HETATM    1  C6  UNL     1      24.232  -0.416  53.984  1.00  0.00    -0.077 C 
HETATM    2  C7  UNL     1      23.177  -0.964  54.645  1.00  0.00     0.012 C 
HETATM    3  C8  UNL     1      21.924  -0.574  53.980  1.00  0.00    -0.029 A 
HETATM    4  C9  UNL     1      20.759  -1.165  53.841  1.00  0.00     0.126 A 
HETATM    5  N1  UNL     1      19.816  -0.408  53.098  1.00  0.00    -0.243 N 
HETATM    6  N2  UNL     1      20.136   0.846  52.576  1.00  0.00    -0.154 NA
HETATM    7  C16 UNL     1      21.303   1.382  52.744  1.00  0.00     0.127 A 
HETATM    8  C17 UNL     1      22.367   0.794  53.503  1.00  0.00     0.095 A 
HETATM    9  C18 UNL     1      23.645   0.402  52.842  1.00  0.00     0.051 C 
ENDROOT
BRANCH   1  10
HETATM   10  C5  UNL     1      25.624  -0.626  54.411  1.00  0.00     0.048 C 
BRANCH  10  11
HETATM   11  C3  UNL     1      26.570  -0.309  53.321  1.00  0.00     0.014 C 
BRANCH  11  12
HETATM   12  C2  UNL     1      26.689  -1.560  52.515  1.00  0.00     0.179 C 
BRANCH  12  13
HETATM   13  O1  UNL     1      27.488  -2.532  53.088  1.00  0.00    -0.395 OA
HETATM   14  C1  UNL     1      28.836  -2.218  53.110  1.00  0.00     0.201 C 
ENDBRANCH  12  13
ENDBRANCH  11  12
BRANCH  11  15
HETATM   15  C4  UNL     1      27.040   0.935  53.348  1.00  0.00     0.245 C 
HETATM   16 CL1  UNL     1      28.109   2.338  53.497  1.00  0.00    -0.254 Cl
ENDBRANCH  11  15
ENDBRANCH  10  11
ENDBRANCH   1  10
BRANCH   7  17
HETATM   17  N3  UNL     1      21.639   2.657  52.212  1.00  0.00    -0.385 N 
HETATM   18  H15 UNL     1      21.840   3.026  51.242  1.00  0.00     0.157 HD
HETATM   19  H16 UNL     1      21.645   3.227  53.088  1.00  0.00     0.157 HD
ENDBRANCH   7  17
BRANCH   5  20
HETATM   20  C10 UNL     1      18.516  -0.930  52.876  1.00  0.00     0.059 A 
HETATM   21  C11 UNL     1      17.496  -0.276  52.225  1.00  0.00     0.031 A 
HETATM   22  C12 UNL     1      16.246  -0.825  52.032  1.00  0.00     0.004 A 
HETATM   23  C13 UNL     1      15.968  -2.073  52.492  1.00  0.00     0.019 A 
HETATM   24  C14 UNL     1      16.933  -2.801  53.156  1.00  0.00     0.013 A 
HETATM   25 BR1  UNL     1      16.646  -4.557  53.840  1.00  0.00    -0.051 Br
HETATM   26  C15 UNL     1      18.170  -2.191  53.318  1.00  0.00     0.050 A 
ENDBRANCH   5  20
TORSDOF 7
ENDMDL
MODEL 2
REMARK VINA RESULT:      -7.6      5.976      8.575
REMARK  7 active torsions:
REMARK  status: ('A' for Active; 'I' for Inactive)
REMARK    1  A    between atoms: O1_2  and  C2_3 
REMARK    2  A    between atoms: C2_3  and  C3_4 
REMARK    3  A    between atoms: C3_4  and  C4_5 
REMARK    4  A    between atoms: C3_4  and  C5_7 
REMARK    5  A    between atoms: C5_7  and  C6_8 
REMARK    6  A    between atoms: N1_12  and  C10_13 
REMARK    7  A    between atoms: C16_21  and  N3_22 
ROOT
HETATM    1  C6  UNL     1      25.620   0.545  52.435  1.00  0.00    -0.077 C 
HETATM    2  C7  UNL     1      26.369   0.836  51.338  1.00  0.00     0.012 C 
HETATM    3  C8  UNL     1      25.949   2.134  50.786  1.00  0.00    -0.029 A 
HETATM    4  C9  UNL     1      26.587   3.086  50.144  1.00  0.00     0.126 A 
HETATM    5  N1  UNL     1      25.769   4.193  49.799  1.00  0.00    -0.243 N 
HETATM    6  N2  UNL     1      24.415   4.233  50.134  1.00  0.00    -0.154 NA
HETATM    7  C16 UNL     1      23.837   3.265  50.770  1.00  0.00     0.127 A 
HETATM    8  C17 UNL     1      24.483   2.046  51.160  1.00  0.00     0.095 A 
HETATM    9  C18 UNL     1      24.636   1.694  52.601  1.00  0.00     0.051 C 
ENDROOT
BRANCH   1  10
HETATM   10  C5  UNL     1      25.806  -0.693  53.209  1.00  0.00     0.048 C 
BRANCH  10  11
HETATM   11  C3  UNL     1      25.631  -0.449  54.656  1.00  0.00     0.014 C 
BRANCH  11  12
HETATM   12  C2  UNL     1      26.838   0.318  55.083  1.00  0.00     0.179 C 
BRANCH  12  13
HETATM   13  O1  UNL     1      28.028  -0.370  54.942  1.00  0.00    -0.395 OA
HETATM   14  C1  UNL     1      29.065   0.388  54.422  1.00  0.00     0.201 C 
ENDBRANCH  12  13
ENDBRANCH  11  12
BRANCH  11  15
HETATM   15  C4  UNL     1      24.509  -0.952  55.164  1.00  0.00     0.245 C 
HETATM   16 CL1  UNL     1      22.817  -1.414  55.405  1.00  0.00    -0.254 Cl
ENDBRANCH  11  15
ENDBRANCH  10  11
ENDBRANCH   1  10
BRANCH   7  17
HETATM   17  N3  UNL     1      22.459   3.298  51.119  1.00  0.00    -0.385 N 
HETATM   18  H15 UNL     1      21.835   3.996  51.611  1.00  0.00     0.157 HD
HETATM   19  H16 UNL     1      22.150   2.374  50.739  1.00  0.00     0.157 HD
ENDBRANCH   7  17
BRANCH   5  20
HETATM   20  C10 UNL     1      26.333   5.290  49.099  1.00  0.00     0.059 A 
HETATM   21  C11 UNL     1      25.646   6.407  48.683  1.00  0.00     0.031 A 
HETATM   22  C12 UNL     1      26.237   7.452  48.004  1.00  0.00     0.004 A 
HETATM   23  C13 UNL     1      27.564   7.414  47.713  1.00  0.00     0.019 A 
HETATM   24  C14 UNL     1      28.331   6.332  48.094  1.00  0.00     0.013 A 
HETATM   25 BR1  UNL     1      30.196   6.182  47.735  1.00  0.00    -0.051 Br
HETATM   26  C15 UNL     1      27.674   5.315  48.774  1.00  0.00     0.050 A 
ENDBRANCH   5  20
TORSDOF 7
ENDMDL
MODEL 3
REMARK VINA RESULT:      -7.4      6.247      9.135
REMARK  7 active torsions:
REMARK  status: ('A' for Active; 'I' for Inactive)
REMARK    1  A    between atoms: O1_2  and  C2_3 
REMARK    2  A    between atoms: C2_3  and  C3_4 
REMARK    3  A    between atoms: C3_4  and  C4_5 
REMARK    4  A    between atoms: C3_4  and  C5_7 
REMARK    5  A    between atoms: C5_7  and  C6_8 
REMARK    6  A    between atoms: N1_12  and  C10_13 
REMARK    7  A    between atoms: C16_21  and  N3_22 
ROOT
HETATM    1  C6  UNL     1      24.995   1.641  52.304  1.00  0.00    -0.077 C 
HETATM    2  C7  UNL     1      25.754   1.638  51.175  1.00  0.00     0.012 C 
HETATM    3  C8  UNL     1      25.733   2.977  50.565  1.00  0.00    -0.029 A 
HETATM    4  C9  UNL     1      26.607   3.655  49.857  1.00  0.00     0.126 A 
HETATM    5  N1  UNL     1      26.156   4.945  49.473  1.00  0.00    -0.243 N 
HETATM    6  N2  UNL     1      24.895   5.416  49.838  1.00  0.00    -0.154 NA
HETATM    7  C16 UNL     1      24.072   4.704  50.539  1.00  0.00     0.127 A 
HETATM    8  C17 UNL     1      24.327   3.363  50.978  1.00  0.00     0.095 A 
HETATM    9  C18 UNL     1      24.420   3.045  52.432  1.00  0.00     0.051 C 
ENDROOT
BRANCH   1  10
HETATM   10  C5  UNL     1      24.821   0.441  53.139  1.00  0.00     0.048 C 
BRANCH  10  11
HETATM   11  C3  UNL     1      26.123  -0.071  53.614  1.00  0.00     0.014 C 
BRANCH  11  12
HETATM   12  C2  UNL     1      26.601   0.918  54.625  1.00  0.00     0.179 C 
BRANCH  12  13
HETATM   13  O1  UNL     1      27.965   1.139  54.603  1.00  0.00    -0.395 OA
HETATM   14  C1  UNL     1      28.367   2.125  53.719  1.00  0.00     0.201 C 
ENDBRANCH  12  13
ENDBRANCH  11  12
BRANCH  11  15
HETATM   15  C4  UNL     1      26.503  -1.211  53.043  1.00  0.00     0.245 C 
HETATM   16 CL1  UNL     1      27.441  -2.633  52.561  1.00  0.00    -0.254 Cl
ENDBRANCH  11  15
ENDBRANCH  10  11
ENDBRANCH   1  10
BRANCH   7  17
HETATM   17  N3  UNL     1      22.786   5.177  50.918  1.00  0.00    -0.385 N 
HETATM   18  H15 UNL     1      21.884   4.714  51.218  1.00  0.00     0.157 HD
HETATM   19  H16 UNL     1      22.935   6.208  50.830  1.00  0.00     0.157 HD
ENDBRANCH   7  17
BRANCH   5  20
HETATM   20  C10 UNL     1      27.003   5.782  48.702  1.00  0.00     0.059 A 
HETATM   21  C11 UNL     1      26.618   6.946  48.079  1.00  0.00     0.031 A 
HETATM   22  C12 UNL     1      27.478   7.730  47.338  1.00  0.00     0.004 A 
HETATM   23  C13 UNL     1      28.779   7.368  47.193  1.00  0.00     0.019 A 
HETATM   24  C14 UNL     1      29.252   6.214  47.784  1.00  0.00     0.013 A 
HETATM   25 BR1  UNL     1      31.056   5.617  47.640  1.00  0.00    -0.051 Br
HETATM   26  C15 UNL     1      28.335   5.471  48.516  1.00  0.00     0.050 A 
ENDBRANCH   5  20
TORSDOF 7
ENDMDL
MODEL 4
REMARK VINA RESULT:      -7.3      6.208      7.802
REMARK  7 active torsions:
REMARK  status: ('A' for Active; 'I' for Inactive)
REMARK    1  A    between atoms: O1_2  and  C2_3 
REMARK    2  A    between atoms: C2_3  and  C3_4 
REMARK    3  A    between atoms: C3_4  and  C4_5 
REMARK    4  A    between atoms: C3_4  and  C5_7 
REMARK    5  A    between atoms: C5_7  and  C6_8 
REMARK    6  A    between atoms: N1_12  and  C10_13 
REMARK    7  A    between atoms: C16_21  and  N3_22 
ROOT
HETATM    1  C6  UNL     1      27.045   6.280  48.308  1.00  0.00    -0.077 C 
HETATM    2  C7  UNL     1      27.109   4.989  48.731  1.00  0.00     0.012 C 
HETATM    3  C8  UNL     1      25.882   4.653  49.471  1.00  0.00    -0.029 A 
HETATM    4  C9  UNL     1      25.204   3.539  49.626  1.00  0.00     0.126 A 
HETATM    5  N1  UNL     1      24.048   3.680  50.437  1.00  0.00    -0.243 N 
HETATM    6  N2  UNL     1      23.695   4.908  50.999  1.00  0.00    -0.154 NA
HETATM    7  C16 UNL     1      24.402   5.976  50.812  1.00  0.00     0.127 A 
HETATM    8  C17 UNL     1      25.624   6.023  50.065  1.00  0.00     0.095 A 
HETATM    9  C18 UNL     1      25.722   6.835  48.818  1.00  0.00     0.051 C 
ENDROOT
BRANCH   1  10
HETATM   10  C5  UNL     1      28.128   6.911  47.536  1.00  0.00     0.048 C 
BRANCH  10  11
HETATM   11  C3  UNL     1      29.130   7.527  48.430  1.00  0.00     0.014 C 
BRANCH  11  12
HETATM   12  C2  UNL     1      30.404   6.790  48.176  1.00  0.00     0.179 C 
BRANCH  12  13
HETATM   13  O1  UNL     1      30.657   5.767  49.071  1.00  0.00    -0.395 OA
HETATM   14  C1  UNL     1      31.843   5.905  49.771  1.00  0.00     0.201 C 
ENDBRANCH  12  13
ENDBRANCH  11  12
BRANCH  11  15
HETATM   15  C4  UNL     1      28.657   8.516  49.184  1.00  0.00     0.245 C 
HETATM   16 CL1  UNL     1      27.688   9.459  50.325  1.00  0.00    -0.254 Cl
ENDBRANCH  11  15
ENDBRANCH  10  11
ENDBRANCH   1  10
BRANCH   7  17
HETATM   17  N3  UNL     1      24.048   7.232  51.377  1.00  0.00    -0.385 N 
HETATM   18  H15 UNL     1      23.136   7.742  51.538  1.00  0.00     0.157 HD
HETATM   19  H16 UNL     1      24.995   7.593  51.634  1.00  0.00     0.157 HD
ENDBRANCH   7  17
BRANCH   5  20
HETATM   20  C10 UNL     1      23.226   2.552  50.688  1.00  0.00     0.059 A 
HETATM   21  C11 UNL     1      22.196   2.123  49.883  1.00  0.00     0.031 A 
HETATM   22  C12 UNL     1      21.421   1.018  50.168  1.00  0.00     0.004 A 
HETATM   23  C13 UNL     1      21.657   0.288  51.289  1.00  0.00     0.019 A 
HETATM   24  C14 UNL     1      22.671   0.646  52.153  1.00  0.00     0.013 A 
HETATM   25 BR1  UNL     1      23.082  -0.308  53.751  1.00  0.00    -0.051 Br
HETATM   26  C15 UNL     1      23.413   1.768  51.809  1.00  0.00     0.050 A 
ENDBRANCH   5  20
TORSDOF 7
ENDMDL
MODEL 5
REMARK VINA RESULT:      -7.2      2.236      2.654
REMARK  7 active torsions:
REMARK  status: ('A' for Active; 'I' for Inactive)
REMARK    1  A    between atoms: O1_2  and  C2_3 
REMARK    2  A    between atoms: C2_3  and  C3_4 
REMARK    3  A    between atoms: C3_4  and  C4_5 
REMARK    4  A    between atoms: C3_4  and  C5_7 
REMARK    5  A    between atoms: C5_7  and  C6_8 
REMARK    6  A    between atoms: N1_12  and  C10_13 
REMARK    7  A    between atoms: C16_21  and  N3_22 
ROOT
HETATM    1  C6  UNL     1      24.631   0.686  52.326  1.00  0.00    -0.077 C 
HETATM    2  C7  UNL     1      23.888  -0.173  53.074  1.00  0.00     0.012 C 
HETATM    3  C8  UNL     1      22.460   0.143  52.913  1.00  0.00    -0.029 A 
HETATM    4  C9  UNL     1      21.369  -0.588  52.942  1.00  0.00     0.126 A 
HETATM    5  N1  UNL     1      20.177   0.151  52.724  1.00  0.00    -0.243 N 
HETATM    6  N2  UNL     1      20.203   1.528  52.499  1.00  0.00    -0.154 NA
HETATM    7  C16 UNL     1      21.309   2.200  52.481  1.00  0.00     0.127 A 
HETATM    8  C17 UNL     1      22.605   1.640  52.726  1.00  0.00     0.095 A 
HETATM    9  C18 UNL     1      23.647   1.636  51.658  1.00  0.00     0.051 C 
ENDROOT
BRANCH   1  10
HETATM   10  C5  UNL     1      26.101   0.621  52.279  1.00  0.00     0.048 C 
BRANCH  10  11
HETATM   11  C3  UNL     1      26.698   1.967  52.402  1.00  0.00     0.014 C 
BRANCH  11  12
HETATM   12  C2  UNL     1      26.986   2.148  53.856  1.00  0.00     0.179 C 
BRANCH  12  13
HETATM   13  O1  UNL     1      28.307   2.438  54.141  1.00  0.00    -0.395 OA
HETATM   14  C1  UNL     1      29.101   1.323  54.352  1.00  0.00     0.201 C 
ENDBRANCH  12  13
ENDBRANCH  11  12
BRANCH  11  15
HETATM   15  C4  UNL     1      26.809   2.624  51.251  1.00  0.00     0.245 C 
HETATM   16 CL1  UNL     1      26.446   3.386  49.695  1.00  0.00    -0.254 Cl
ENDBRANCH  11  15
ENDBRANCH  10  11
ENDBRANCH   1  10
BRANCH   7  17
HETATM   17  N3  UNL     1      21.345   3.602  52.248  1.00  0.00    -0.385 N 
HETATM   18  H15 UNL     1      21.677   4.213  51.452  1.00  0.00     0.157 HD
HETATM   19  H16 UNL     1      20.921   3.948  53.139  1.00  0.00     0.157 HD
ENDBRANCH   7  17
BRANCH   5  20
HETATM   20  C10 UNL     1      18.926  -0.518  52.733  1.00  0.00     0.059 A 
HETATM   21  C11 UNL     1      18.619  -1.620  53.496  1.00  0.00     0.031 A 
HETATM   22  C12 UNL     1      17.386  -2.239  53.471  1.00  0.00     0.004 A 
HETATM   23  C13 UNL     1      16.399  -1.765  52.667  1.00  0.00     0.019 A 
HETATM   24  C14 UNL     1      16.620  -0.662  51.868  1.00  0.00     0.013 A 
HETATM   25 BR1  UNL     1      15.305   0.080  50.706  1.00  0.00    -0.051 Br
HETATM   26  C15 UNL     1      17.882  -0.087  51.940  1.00  0.00     0.050 A 
ENDBRANCH   5  20
TORSDOF 7
ENDMDL
MODEL 6
REMARK VINA RESULT:      -7.0      6.652      8.299
REMARK  7 active torsions:
REMARK  status: ('A' for Active; 'I' for Inactive)
REMARK    1  A    between atoms: O1_2  and  C2_3 
REMARK    2  A    between atoms: C2_3  and  C3_4 
REMARK    3  A    between atoms: C3_4  and  C4_5 
REMARK    4  A    between atoms: C3_4  and  C5_7 
REMARK    5  A    between atoms: C5_7  and  C6_8 
REMARK    6  A    between atoms: N1_12  and  C10_13 
REMARK    7  A    between atoms: C16_21  and  N3_22 
ROOT
HETATM    1  C6  UNL     1      27.169   6.402  48.303  1.00  0.00    -0.077 C 
HETATM    2  C7  UNL     1      27.196   5.090  48.663  1.00  0.00     0.012 C 
HETATM    3  C8  UNL     1      25.948   4.747  49.364  1.00  0.00    -0.029 A 
HETATM    4  C9  UNL     1      25.242   3.643  49.452  1.00  0.00     0.126 A 
HETATM    5  N1  UNL     1      24.075   3.771  50.249  1.00  0.00    -0.243 N 
HETATM    6  N2  UNL     1      23.739   4.978  50.864  1.00  0.00    -0.154 NA
HETATM    7  C16 UNL     1      24.473   6.038  50.743  1.00  0.00     0.127 A 
HETATM    8  C17 UNL     1      25.710   6.092  50.020  1.00  0.00     0.095 A 
HETATM    9  C18 UNL     1      25.849   6.961  48.816  1.00  0.00     0.051 C 
ENDROOT
BRANCH   1  10
HETATM   10  C5  UNL     1      28.280   7.043  47.583  1.00  0.00     0.048 C 
BRANCH  10  11
HETATM   11  C3  UNL     1      29.328   7.502  48.519  1.00  0.00     0.014 C 
BRANCH  11  12
HETATM   12  C2  UNL     1      28.803   8.762  49.124  1.00  0.00     0.179 C 
BRANCH  12  13
HETATM   13  O1  UNL     1      29.783   9.628  49.573  1.00  0.00    -0.395 OA
HETATM   14  C1  UNL     1      29.927  10.770  48.804  1.00  0.00     0.201 C 
ENDBRANCH  12  13
ENDBRANCH  11  12
BRANCH  11  15
HETATM   15  C4  UNL     1      30.400   6.717  48.567  1.00  0.00     0.245 C 
HETATM   16 CL1  UNL     1      31.726   5.695  49.143  1.00  0.00    -0.254 Cl
ENDBRANCH  11  15
ENDBRANCH  10  11
ENDBRANCH   1  10
BRANCH   7  17
HETATM   17  N3  UNL     1      24.137   7.273  51.362  1.00  0.00    -0.385 N 
HETATM   18  H15 UNL     1      24.370   8.286  51.170  1.00  0.00     0.157 HD
HETATM   19  H16 UNL     1      23.534   6.929  52.144  1.00  0.00     0.157 HD
ENDBRANCH   7  17
BRANCH   5  20
HETATM   20  C10 UNL     1      23.223   2.651  50.430  1.00  0.00     0.059 A 
HETATM   21  C11 UNL     1      22.344   2.161  49.492  1.00  0.00     0.031 A 
HETATM   22  C12 UNL     1      21.534   1.067  49.712  1.00  0.00     0.004 A 
HETATM   23  C13 UNL     1      21.577   0.412  50.901  1.00  0.00     0.019 A 
HETATM   24  C14 UNL     1      22.430   0.836  51.900  1.00  0.00     0.013 A 
HETATM   25 BR1  UNL     1      22.566  -0.011  53.602  1.00  0.00    -0.051 Br
HETATM   26  C15 UNL     1      23.218   1.943  51.614  1.00  0.00     0.050 A 
ENDBRANCH   5  20
TORSDOF 7
ENDMDL
MODEL 7
REMARK VINA RESULT:      -7.0      4.367      8.350
REMARK  7 active torsions:
REMARK  status: ('A' for Active; 'I' for Inactive)
REMARK    1  A    between atoms: O1_2  and  C2_3 
REMARK    2  A    between atoms: C2_3  and  C3_4 
REMARK    3  A    between atoms: C3_4  and  C4_5 
REMARK    4  A    between atoms: C3_4  and  C5_7 
REMARK    5  A    between atoms: C5_7  and  C6_8 
REMARK    6  A    between atoms: N1_12  and  C10_13 
REMARK    7  A    between atoms: C16_21  and  N3_22 
ROOT
HETATM    1  C6  UNL     1      20.833   1.724  51.876  1.00  0.00    -0.077 C 
HETATM    2  C7  UNL     1      21.827   2.563  52.272  1.00  0.00     0.012 C 
HETATM    3  C8  UNL     1      22.965   1.775  52.772  1.00  0.00    -0.029 A 
HETATM    4  C9  UNL     1      24.263   1.974  52.776  1.00  0.00     0.126 A 
HETATM    5  N1  UNL     1      25.004   0.920  53.372  1.00  0.00    -0.243 N 
HETATM    6  N2  UNL     1      24.374  -0.211  53.892  1.00  0.00    -0.154 NA
HETATM    7  C16 UNL     1      23.088  -0.356  53.861  1.00  0.00     0.127 A 
HETATM    8  C17 UNL     1      22.172   0.618  53.345  1.00  0.00     0.095 A 
HETATM    9  C18 UNL     1      21.325   0.311  52.156  1.00  0.00     0.051 C 
ENDROOT
BRANCH   1  10
HETATM   10  C5  UNL     1      19.559   2.216  51.326  1.00  0.00     0.048 C 
BRANCH  10  11
HETATM   11  C3  UNL     1      19.210   1.509  50.076  1.00  0.00     0.014 C 
BRANCH  11  12
HETATM   12  C2  UNL     1      17.767   1.147  50.209  1.00  0.00     0.179 C 
BRANCH  12  13
HETATM   13  O1  UNL     1      17.531  -0.209  50.329  1.00  0.00    -0.395 OA
HETATM   14  C1  UNL     1      17.201  -0.617  51.610  1.00  0.00     0.201 C 
ENDBRANCH  12  13
ENDBRANCH  11  12
BRANCH  11  15
HETATM   15  C4  UNL     1      20.218   1.387  49.217  1.00  0.00     0.245 C 
HETATM   16 CL1  UNL     1      21.780   1.563  48.403  1.00  0.00    -0.254 Cl
ENDBRANCH  11  15
ENDBRANCH  10  11
ENDBRANCH   1  10
BRANCH   7  17
HETATM   17  N3  UNL     1      22.438  -1.507  54.385  1.00  0.00    -0.385 N 
HETATM   18  H15 UNL     1      22.599  -2.549  54.308  1.00  0.00     0.157 HD
HETATM   19  H16 UNL     1      21.672  -1.053  54.933  1.00  0.00     0.157 HD
ENDBRANCH   7  17
BRANCH   5  20
HETATM   20  C10 UNL     1      26.418   1.010  53.444  1.00  0.00     0.059 A 
HETATM   21  C11 UNL     1      27.136   2.179  53.550  1.00  0.00     0.031 A 
HETATM   22  C12 UNL     1      28.513   2.218  53.616  1.00  0.00     0.004 A 
HETATM   23  C13 UNL     1      29.233   1.066  53.580  1.00  0.00     0.019 A 
HETATM   24  C14 UNL     1      28.593  -0.152  53.475  1.00  0.00     0.013 A 
HETATM   25 BR1  UNL     1      29.508  -1.823  53.416  1.00  0.00    -0.051 Br
HETATM   26  C15 UNL     1      27.206  -0.122  53.412  1.00  0.00     0.050 A 
ENDBRANCH   5  20
TORSDOF 7
ENDMDL
MODEL 8
REMARK VINA RESULT:      -7.0      6.311      9.572
REMARK  7 active torsions:
REMARK  status: ('A' for Active; 'I' for Inactive)
REMARK    1  A    between atoms: O1_2  and  C2_3 
REMARK    2  A    between atoms: C2_3  and  C3_4 
REMARK    3  A    between atoms: C3_4  and  C4_5 
REMARK    4  A    between atoms: C3_4  and  C5_7 
REMARK    5  A    between atoms: C5_7  and  C6_8 
REMARK    6  A    between atoms: N1_12  and  C10_13 
REMARK    7  A    between atoms: C16_21  and  N3_22 
ROOT
HETATM    1  C6  UNL     1      22.141   1.491  50.874  1.00  0.00    -0.077 C 
HETATM    2  C7  UNL     1      22.591   1.913  49.662  1.00  0.00     0.012 C 
HETATM    3  C8  UNL     1      23.471   3.078  49.843  1.00  0.00    -0.029 A 
HETATM    4  C9  UNL     1      24.514   3.528  49.182  1.00  0.00     0.126 A 
HETATM    5  N1  UNL     1      25.072   4.712  49.730  1.00  0.00    -0.243 N 
HETATM    6  N2  UNL     1      24.537   5.313  50.870  1.00  0.00    -0.154 NA
HETATM    7  C16 UNL     1      23.506   4.825  51.483  1.00  0.00     0.127 A 
HETATM    8  C17 UNL     1      22.778   3.667  51.055  1.00  0.00     0.095 A 
HETATM    9  C18 UNL     1      22.729   2.443  51.906  1.00  0.00     0.051 C 
ENDROOT
BRANCH   1  10
HETATM   10  C5  UNL     1      21.237   0.339  51.020  1.00  0.00     0.048 C 
BRANCH  10  11
HETATM   11  C3  UNL     1      20.354   0.499  52.194  1.00  0.00     0.014 C 
BRANCH  11  12
HETATM   12  C2  UNL     1      19.222   1.357  51.732  1.00  0.00     0.179 C 
BRANCH  12  13
HETATM   13  O1  UNL     1      19.239   2.642  52.238  1.00  0.00    -0.395 OA
HETATM   14  C1  UNL     1      18.421   3.530  51.561  1.00  0.00     0.201 C 
ENDBRANCH  12  13
ENDBRANCH  11  12
BRANCH  11  15
HETATM   15  C4  UNL     1      20.781  -0.123  53.289  1.00  0.00     0.245 C 
HETATM   16 CL1  UNL     1      21.257  -0.482  54.956  1.00  0.00    -0.254 Cl
ENDBRANCH  11  15
ENDBRANCH  10  11
ENDBRANCH   1  10
BRANCH   7  17
HETATM   17  N3  UNL     1      22.957   5.427  52.648  1.00  0.00    -0.385 N 
HETATM   18  H15 UNL     1      23.267   5.514  53.655  1.00  0.00     0.157 HD
HETATM   19  H16 UNL     1      22.071   5.818  52.253  1.00  0.00     0.157 HD
ENDBRANCH   7  17
BRANCH   5  20
HETATM   20  C10 UNL     1      26.202   5.305  49.110  1.00  0.00     0.059 A 
HETATM   21  C11 UNL     1      27.409   4.682  48.891  1.00  0.00     0.031 A 
HETATM   22  C12 UNL     1      28.482   5.300  48.284  1.00  0.00     0.004 A 
HETATM   23  C13 UNL     1      28.382   6.588  47.865  1.00  0.00     0.019 A 
HETATM   24  C14 UNL     1      27.208   7.290  48.045  1.00  0.00     0.013 A 
HETATM   25 BR1  UNL     1      26.965   9.099  47.496  1.00  0.00    -0.051 Br
HETATM   26  C15 UNL     1      26.167   6.611  48.663  1.00  0.00     0.050 A 
ENDBRANCH   5  20
TORSDOF 7
ENDMDL
MODEL 9
REMARK VINA RESULT:      -6.9      4.806      8.265
REMARK  7 active torsions:
REMARK  status: ('A' for Active; 'I' for Inactive)
REMARK    1  A    between atoms: O1_2  and  C2_3 
REMARK    2  A    between atoms: C2_3  and  C3_4 
REMARK    3  A    between atoms: C3_4  and  C4_5 
REMARK    4  A    between atoms: C3_4  and  C5_7 
REMARK    5  A    between atoms: C5_7  and  C6_8 
REMARK    6  A    between atoms: N1_12  and  C10_13 
REMARK    7  A    between atoms: C16_21  and  N3_22 
ROOT
HETATM    1  C6  UNL     1      20.818   1.666  51.816  1.00  0.00    -0.077 C 
HETATM    2  C7  UNL     1      22.012   2.274  52.053  1.00  0.00     0.012 C 
HETATM    3  C8  UNL     1      22.953   1.302  52.631  1.00  0.00    -0.029 A 
HETATM    4  C9  UNL     1      24.258   1.167  52.567  1.00  0.00     0.126 A 
HETATM    5  N1  UNL     1      24.756   0.053  53.291  1.00  0.00    -0.243 N 
HETATM    6  N2  UNL     1      23.905  -0.802  53.992  1.00  0.00    -0.154 NA
HETATM    7  C16 UNL     1      22.623  -0.622  54.021  1.00  0.00     0.127 A 
HETATM    8  C17 UNL     1      21.941   0.471  53.393  1.00  0.00     0.095 A 
HETATM    9  C18 UNL     1      20.968   0.226  52.289  1.00  0.00     0.051 C 
ENDROOT
BRANCH   1  10
HETATM   10  C5  UNL     1      19.670   2.382  51.237  1.00  0.00     0.048 C 
BRANCH  10  11
HETATM   11  C3  UNL     1      19.168   1.695  50.030  1.00  0.00     0.014 C 
BRANCH  11  12
HETATM   12  C2  UNL     1      19.924   2.286  48.886  1.00  0.00     0.179 C 
BRANCH  12  13
HETATM   13  O1  UNL     1      20.916   1.470  48.378  1.00  0.00    -0.395 OA
HETATM   14  C1  UNL     1      22.064   2.142  47.995  1.00  0.00     0.201 C 
ENDBRANCH  12  13
ENDBRANCH  11  12
BRANCH  11  15
HETATM   15  C4  UNL     1      18.225   0.787  50.269  1.00  0.00     0.245 C 
HETATM   16 CL1  UNL     1      17.149  -0.364  51.076  1.00  0.00    -0.254 Cl
ENDBRANCH  11  15
ENDBRANCH  10  11
ENDBRANCH   1  10
BRANCH   7  17
HETATM   17  N3  UNL     1      21.748  -1.490  54.729  1.00  0.00    -0.385 N 
HETATM   18  H15 UNL     1      21.809  -2.023  55.641  1.00  0.00     0.157 HD
HETATM   19  H16 UNL     1      20.926  -1.491  54.083  1.00  0.00     0.157 HD
ENDBRANCH   7  17
BRANCH   5  20
HETATM   20  C10 UNL     1      26.151  -0.206  53.306  1.00  0.00     0.059 A 
HETATM   21  C11 UNL     1      26.743  -1.393  52.943  1.00  0.00     0.031 A 
HETATM   22  C12 UNL     1      28.107  -1.600  52.974  1.00  0.00     0.004 A 
HETATM   23  C13 UNL     1      28.940  -0.605  53.376  1.00  0.00     0.019 A 
HETATM   24  C14 UNL     1      28.431   0.619  53.758  1.00  0.00     0.013 A 
HETATM   25 BR1  UNL     1      29.512   2.077  54.339  1.00  0.00    -0.051 Br
HETATM   26  C15 UNL     1      27.051   0.761  53.704  1.00  0.00     0.050 A 
ENDBRANCH   5  20
TORSDOF 7
ENDMDL
