MODEL 1
REMARK VINA RESULT:      -9.2      0.000      0.000
REMARK  3 active torsions:
REMARK  status: ('A' for Active; 'I' for Inactive)
REMARK    1  A    between atoms: C5_5  and  O1_6 
REMARK    2  A    between atoms: C16_22  and  C17_23 
REMARK    3  A    between atoms: C17_23  and  O4_24 
ROOT
HETATM    1  C1  UNL     1      27.352   5.495  48.505  1.00  0.00     0.012 C 
HETATM    2  C2  UNL     1      26.666   4.755  49.156  1.00  0.00    -0.111 C 
HETATM    3  C3  UNL     1      25.843   3.888  49.928  1.00  0.00     0.023 C 
HETATM    4  C4  UNL     1      24.633   4.322  49.602  1.00  0.00     0.124 C 
HETATM    5  C5  UNL     1      23.198   4.561  49.451  1.00  0.00     0.364 C 
HETATM    6  N1  UNL     1      22.478   4.019  50.601  1.00  0.00     0.135 N 
HETATM    7  C7  UNL     1      21.087   4.394  50.651  1.00  0.00     0.443 C 
HETATM    8  O2  UNL     1      20.472   4.119  51.828  1.00  0.00    -0.337 OA
HETATM    9  C8  UNL     1      20.405   2.856  52.311  1.00  0.00     0.347 C 
HETATM   10  O3  UNL     1      21.430   2.106  52.624  1.00  0.00    -0.326 OA
HETATM   11  C9  UNL     1      22.434   1.374  52.932  1.00  0.00     0.081 A 
HETATM   12  C10 UNL     1      23.773   1.410  52.638  1.00  0.00     0.053 A 
HETATM   13  C11 UNL     1      24.810   0.597  52.987  1.00  0.00     0.021 A 
HETATM   14  C12 UNL     1      26.056   0.934  52.471  1.00  0.00     0.053 A 
HETATM   15  N2  UNL     1      27.057   0.117  52.808  1.00  0.00    -0.245 NA
HETATM   16  C13 UNL     1      26.848  -0.972  53.606  1.00  0.00     0.234 A 
HETATM   17  N3  UNL     1      25.615  -1.288  54.104  1.00  0.00    -0.241 NA
HETATM   18  C14 UNL     1      24.601  -0.483  53.777  1.00  0.00     0.071 A 
HETATM   19  C15 UNL     1      23.284  -0.615  54.137  1.00  0.00     0.044 A 
HETATM   20  C16 UNL     1      22.246   0.245  53.752  1.00  0.00     0.001 A 
HETATM   21  C19 UNL     1      26.762   1.900  51.612  1.00  0.00     0.055 C 
HETATM   22  C20 UNL     1      26.596   2.897  50.756  1.00  0.00     0.019 C 
HETATM   23  H7  UNL     1      22.509   2.935  50.500  1.00  0.00     0.322 HD
ENDROOT
BRANCH   5  24
HETATM   24  O1  UNL     1      22.661   4.065  48.281  1.00  0.00    -0.362 OA
HETATM   25  C6  UNL     1      22.777   2.687  48.176  1.00  0.00     0.204 C 
ENDBRANCH   5  24
BRANCH  20  26
HETATM   26  C17 UNL     1      20.875  -0.070  54.247  1.00  0.00     0.208 C 
BRANCH  26  27
HETATM   27  O4  UNL     1      20.244  -0.880  53.322  1.00  0.00    -0.391 OA
HETATM   28  C18 UNL     1      18.952  -0.498  53.031  1.00  0.00     0.201 C 
ENDBRANCH  26  27
ENDBRANCH  20  26
TORSDOF 3
ENDMDL
MODEL 2
REMARK VINA RESULT:      -9.1      2.739      5.104
REMARK  3 active torsions:
REMARK  status: ('A' for Active; 'I' for Inactive)
REMARK    1  A    between atoms: C5_5  and  O1_6 
REMARK    2  A    between atoms: C16_22  and  C17_23 
REMARK    3  A    between atoms: C17_23  and  O4_24 
ROOT
HETATM    1  C1  UNL     1      19.951   2.884  47.809  1.00  0.00     0.012 C 
HETATM    2  C2  UNL     1      20.676   2.558  48.708  1.00  0.00    -0.111 C 
HETATM    3  C3  UNL     1      21.546   2.175  49.768  1.00  0.00     0.023 C 
HETATM    4  C4  UNL     1      22.572   2.991  49.566  1.00  0.00     0.124 C 
HETATM    5  C5  UNL     1      23.830   3.735  49.611  1.00  0.00     0.364 C 
HETATM    6  N1  UNL     1      24.833   2.976  50.355  1.00  0.00     0.135 N 
HETATM    7  C7  UNL     1      26.163   3.525  50.270  1.00  0.00     0.443 C 
HETATM    8  O2  UNL     1      27.141   2.706  50.732  1.00  0.00    -0.337 OA
HETATM    9  C8  UNL     1      27.139   2.258  52.009  1.00  0.00     0.347 C 
HETATM   10  O3  UNL     1      26.206   1.521  52.556  1.00  0.00    -0.326 OA
HETATM   11  C9  UNL     1      25.293   0.800  53.089  1.00  0.00     0.081 A 
HETATM   12  C10 UNL     1      23.993   0.507  52.768  1.00  0.00     0.053 A 
HETATM   13  C11 UNL     1      23.051  -0.269  53.376  1.00  0.00     0.021 A 
HETATM   14  C12 UNL     1      21.803  -0.312  52.766  1.00  0.00     0.053 A 
HETATM   15  N2  UNL     1      20.887  -1.062  53.384  1.00  0.00    -0.245 NA
HETATM   16  C13 UNL     1      21.179  -1.731  54.539  1.00  0.00     0.234 A 
HETATM   17  N3  UNL     1      22.412  -1.676  55.125  1.00  0.00    -0.241 NA
HETATM   18  C14 UNL     1      23.341  -0.931  54.521  1.00  0.00     0.071 A 
HETATM   19  C15 UNL     1      24.629  -0.710  54.936  1.00  0.00     0.044 A 
HETATM   20  C16 UNL     1      25.567   0.100  54.280  1.00  0.00     0.001 A 
HETATM   21  C19 UNL     1      21.021   0.201  51.629  1.00  0.00     0.055 C 
HETATM   22  C20 UNL     1      21.018   1.079  50.635  1.00  0.00     0.019 C 
HETATM   23  H7  UNL     1      24.540   3.023  51.402  1.00  0.00     0.322 HD
ENDROOT
BRANCH   5  24
HETATM   24  O1  UNL     1      23.717   5.008  50.134  1.00  0.00    -0.362 OA
HETATM   25  C6  UNL     1      22.991   5.043  51.314  1.00  0.00     0.204 C 
ENDBRANCH   5  24
BRANCH  20  26
HETATM   26  C17 UNL     1      26.922   0.216  54.892  1.00  0.00     0.208 C 
BRANCH  26  27
HETATM   27  O4  UNL     1      27.732  -0.774  54.369  1.00  0.00    -0.391 OA
HETATM   28  C18 UNL     1      29.016  -0.358  54.089  1.00  0.00     0.201 C 
ENDBRANCH  26  27
ENDBRANCH  20  26
TORSDOF 3
ENDMDL
MODEL 3
REMARK VINA RESULT:      -8.9      2.446      5.914
REMARK  3 active torsions:
REMARK  status: ('A' for Active; 'I' for Inactive)
REMARK    1  A    between atoms: C5_5  and  O1_6 
REMARK    2  A    between atoms: C16_22  and  C17_23 
REMARK    3  A    between atoms: C17_23  and  O4_24 
ROOT
HETATM    1  C1  UNL     1      17.955   3.975  51.410  1.00  0.00     0.012 C 
HETATM    2  C2  UNL     1      19.031   3.461  51.552  1.00  0.00    -0.111 C 
HETATM    3  C3  UNL     1      20.302   2.846  51.731  1.00  0.00     0.023 C 
HETATM    4  C4  UNL     1      19.967   1.752  52.401  1.00  0.00     0.124 C 
HETATM    5  C5  UNL     1      19.926   0.486  53.131  1.00  0.00     0.364 C 
HETATM    6  N1  UNL     1      21.239   0.194  53.701  1.00  0.00     0.135 N 
HETATM    7  C7  UNL     1      21.246  -0.919  54.616  1.00  0.00     0.443 C 
HETATM    8  O2  UNL     1      22.384  -1.043  55.344  1.00  0.00    -0.337 OA
HETATM    9  C8  UNL     1      23.588  -1.207  54.746  1.00  0.00     0.347 C 
HETATM   10  O3  UNL     1      24.153  -0.356  53.928  1.00  0.00    -0.326 OA
HETATM   11  C9  UNL     1      24.706   0.478  53.130  1.00  0.00     0.081 A 
HETATM   12  C10 UNL     1      24.256   1.543  52.394  1.00  0.00     0.053 A 
HETATM   13  C11 UNL     1      24.887   2.404  51.547  1.00  0.00     0.021 A 
HETATM   14  C12 UNL     1      24.089   3.369  50.944  1.00  0.00     0.053 A 
HETATM   15  N2  UNL     1      24.721   4.192  50.102  1.00  0.00    -0.245 NA
HETATM   16  C13 UNL     1      26.061   4.074  49.864  1.00  0.00     0.234 A 
HETATM   17  N3  UNL     1      26.829   3.118  50.467  1.00  0.00    -0.241 NA
HETATM   18  C14 UNL     1      26.216   2.285  51.310  1.00  0.00     0.071 A 
HETATM   19  C15 UNL     1      26.775   1.243  52.005  1.00  0.00     0.044 A 
HETATM   20  C16 UNL     1      26.086   0.378  52.866  1.00  0.00     0.001 A 
HETATM   21  C19 UNL     1      22.709   3.869  50.838  1.00  0.00     0.055 C 
HETATM   22  C20 UNL     1      21.446   3.611  51.148  1.00  0.00     0.019 C 
HETATM   23  H7  UNL     1      21.882  -0.081  52.866  1.00  0.00     0.322 HD
ENDROOT
BRANCH   5  24
HETATM   24  O1  UNL     1      19.488  -0.587  52.380  1.00  0.00    -0.362 OA
HETATM   25  C6  UNL     1      18.220  -0.394  51.853  1.00  0.00     0.204 C 
ENDBRANCH   5  24
BRANCH  20  26
HETATM   26  C17 UNL     1      26.873  -0.701  53.530  1.00  0.00     0.208 C 
BRANCH  26  27
HETATM   27  O4  UNL     1      27.326  -0.234  54.749  1.00  0.00    -0.391 OA
HETATM   28  C18 UNL     1      28.681   0.018  54.785  1.00  0.00     0.201 C 
ENDBRANCH  26  27
ENDBRANCH  20  26
TORSDOF 3
ENDMDL
MODEL 4
REMARK VINA RESULT:      -8.4      2.514      5.440
REMARK  3 active torsions:
REMARK  status: ('A' for Active; 'I' for Inactive)
REMARK    1  A    between atoms: C5_5  and  O1_6 
REMARK    2  A    between atoms: C16_22  and  C17_23 
REMARK    3  A    between atoms: C17_23  and  O4_24 
ROOT
HETATM    1  C1  UNL     1      18.293   1.337  50.350  1.00  0.00     0.012 C 
HETATM    2  C2  UNL     1      19.414   1.353  50.778  1.00  0.00    -0.111 C 
HETATM    3  C3  UNL     1      20.748   1.377  51.275  1.00  0.00     0.023 C 
HETATM    4  C4  UNL     1      21.274   2.358  50.556  1.00  0.00     0.124 C 
HETATM    5  C5  UNL     1      22.129   3.370  49.937  1.00  0.00     0.364 C 
HETATM    6  N1  UNL     1      23.534   3.009  50.108  1.00  0.00     0.135 N 
HETATM    7  C7  UNL     1      24.446   3.827  49.348  1.00  0.00     0.443 C 
HETATM    8  O2  UNL     1      25.715   3.352  49.291  1.00  0.00    -0.337 OA
HETATM    9  C8  UNL     1      26.443   3.149  50.415  1.00  0.00     0.347 C 
HETATM   10  O3  UNL     1      26.133   2.325  51.383  1.00  0.00    -0.326 OA
HETATM   11  C9  UNL     1      25.831   1.518  52.329  1.00  0.00     0.081 A 
HETATM   12  C10 UNL     1      24.680   0.880  52.713  1.00  0.00     0.053 A 
HETATM   13  C11 UNL     1      24.403   0.027  53.740  1.00  0.00     0.021 A 
HETATM   14  C12 UNL     1      23.088  -0.412  53.837  1.00  0.00     0.053 A 
HETATM   15  N2  UNL     1      22.831  -1.232  54.860  1.00  0.00    -0.245 NA
HETATM   16  C13 UNL     1      23.809  -1.600  55.739  1.00  0.00     0.234 A 
HETATM   17  N3  UNL     1      25.097  -1.157  55.627  1.00  0.00    -0.241 NA
HETATM   18  C14 UNL     1      25.374  -0.336  54.612  1.00  0.00     0.071 A 
HETATM   19  C15 UNL     1      26.580   0.247  54.318  1.00  0.00     0.044 A 
HETATM   20  C16 UNL     1      26.820   1.123  53.250  1.00  0.00     0.001 A 
HETATM   21  C19 UNL     1      21.753  -0.304  53.225  1.00  0.00     0.055 C 
HETATM   22  C20 UNL     1      21.031   0.359  52.332  1.00  0.00     0.019 C 
HETATM   23  H7  UNL     1      23.768   3.171  51.160  1.00  0.00     0.322 HD
ENDROOT
BRANCH   5  24
HETATM   24  O1  UNL     1      21.912   4.654  50.396  1.00  0.00    -0.362 OA
HETATM   25  C6  UNL     1      21.894   4.736  51.780  1.00  0.00     0.204 C 
ENDBRANCH   5  24
BRANCH  20  26
HETATM   26  C17 UNL     1      28.204   1.656  53.098  1.00  0.00     0.208 C 
BRANCH  26  27
HETATM   27  O4  UNL     1      28.510   2.422  54.206  1.00  0.00    -0.391 OA
HETATM   28  C18 UNL     1      29.754   2.164  54.741  1.00  0.00     0.201 C 
ENDBRANCH  26  27
ENDBRANCH  20  26
TORSDOF 3
ENDMDL
MODEL 5
REMARK VINA RESULT:      -8.1      1.592      5.768
REMARK  3 active torsions:
REMARK  status: ('A' for Active; 'I' for Inactive)
REMARK    1  A    between atoms: C5_5  and  O1_6 
REMARK    2  A    between atoms: C16_22  and  C17_23 
REMARK    3  A    between atoms: C17_23  and  O4_24 
ROOT
HETATM    1  C1  UNL     1      18.427  -1.264  53.451  1.00  0.00     0.012 C 
HETATM    2  C2  UNL     1      19.399  -0.651  53.103  1.00  0.00    -0.111 C 
HETATM    3  C3  UNL     1      20.545   0.078  52.679  1.00  0.00     0.023 C 
HETATM    4  C4  UNL     1      19.995   0.980  51.877  1.00  0.00     0.124 C 
HETATM    5  C5  UNL     1      19.704   2.076  50.955  1.00  0.00     0.364 C 
HETATM    6  N1  UNL     1      20.904   2.424  50.198  1.00  0.00     0.135 N 
HETATM    7  C7  UNL     1      20.665   3.344  49.113  1.00  0.00     0.443 C 
HETATM    8  O2  UNL     1      21.703   3.478  48.250  1.00  0.00    -0.337 OA
HETATM    9  C8  UNL     1      22.919   3.900  48.670  1.00  0.00     0.347 C 
HETATM   10  O3  UNL     1      23.674   3.292  49.549  1.00  0.00    -0.326 OA
HETATM   11  C9  UNL     1      24.413   2.695  50.408  1.00  0.00     0.081 A 
HETATM   12  C10 UNL     1      24.191   1.733  51.359  1.00  0.00     0.053 A 
HETATM   13  C11 UNL     1      25.015   1.129  52.261  1.00  0.00     0.021 A 
HETATM   14  C12 UNL     1      24.424   0.196  53.105  1.00  0.00     0.053 A 
HETATM   15  N2  UNL     1      25.242  -0.372  53.995  1.00  0.00    -0.245 NA
HETATM   16  C13 UNL     1      26.566  -0.043  54.055  1.00  0.00     0.234 A 
HETATM   17  N3  UNL     1      27.129   0.878  53.217  1.00  0.00    -0.241 NA
HETATM   18  C14 UNL     1      26.327   1.457  52.321  1.00  0.00     0.071 A 
HETATM   19  C15 UNL     1      26.663   2.419  51.402  1.00  0.00     0.044 A 
HETATM   20  C16 UNL     1      25.781   3.016  50.492  1.00  0.00     0.001 A 
HETATM   21  C19 UNL     1      23.146  -0.449  53.450  1.00  0.00     0.055 C 
HETATM   22  C20 UNL     1      21.836  -0.415  53.248  1.00  0.00     0.019 C 
HETATM   23  H7  UNL     1      21.572   2.927  50.895  1.00  0.00     0.322 HD
ENDROOT
BRANCH   5  24
HETATM   24  O1  UNL     1      19.183   3.202  51.560  1.00  0.00    -0.362 OA
HETATM   25  C6  UNL     1      17.797   3.232  51.542  1.00  0.00     0.204 C 
ENDBRANCH   5  24
BRANCH  20  26
HETATM   26  C17 UNL     1      26.339   4.048  49.571  1.00  0.00     0.208 C 
BRANCH  26  27
HETATM   27  O4  UNL     1      25.928   5.296  49.999  1.00  0.00    -0.391 OA
HETATM   28  C18 UNL     1      25.899   6.249  49.004  1.00  0.00     0.201 C 
ENDBRANCH  26  27
ENDBRANCH  20  26
TORSDOF 3
ENDMDL
MODEL 6
REMARK VINA RESULT:      -8.0      2.480      6.414
REMARK  3 active torsions:
REMARK  status: ('A' for Active; 'I' for Inactive)
REMARK    1  A    between atoms: C5_5  and  O1_6 
REMARK    2  A    between atoms: C16_22  and  C17_23 
REMARK    3  A    between atoms: C17_23  and  O4_24 
ROOT
HETATM    1  C1  UNL     1      15.361  -1.601  52.391  1.00  0.00     0.012 C 
HETATM    2  C2  UNL     1      16.476  -1.158  52.352  1.00  0.00    -0.111 C 
HETATM    3  C3  UNL     1      17.796  -0.629  52.293  1.00  0.00     0.023 C 
HETATM    4  C4  UNL     1      17.660   0.302  51.358  1.00  0.00     0.124 C 
HETATM    5  C5  UNL     1      17.834   1.381  50.387  1.00  0.00     0.364 C 
HETATM    6  N1  UNL     1      19.244   1.508  50.028  1.00  0.00     0.135 N 
HETATM    7  C7  UNL     1      19.489   2.396  48.919  1.00  0.00     0.443 C 
HETATM    8  O2  UNL     1      20.745   2.330  48.411  1.00  0.00    -0.337 OA
HETATM    9  C8  UNL     1      21.830   2.588  49.179  1.00  0.00     0.347 C 
HETATM   10  O3  UNL     1      22.182   1.921  50.248  1.00  0.00    -0.326 OA
HETATM   11  C9  UNL     1      22.526   1.266  51.293  1.00  0.00     0.081 A 
HETATM   12  C10 UNL     1      21.882   0.398  52.135  1.00  0.00     0.053 A 
HETATM   13  C11 UNL     1      22.293  -0.275  53.247  1.00  0.00     0.021 A 
HETATM   14  C12 UNL     1      21.338  -1.065  53.876  1.00  0.00     0.053 A 
HETATM   15  N2  UNL     1      21.752  -1.702  54.974  1.00  0.00    -0.245 NA
HETATM   16  C13 UNL     1      23.033  -1.569  55.433  1.00  0.00     0.234 A 
HETATM   17  N3  UNL     1      23.958  -0.786  54.801  1.00  0.00    -0.241 NA
HETATM   18  C14 UNL     1      23.562  -0.141  53.702  1.00  0.00     0.071 A 
HETATM   19  C15 UNL     1      24.304   0.711  52.924  1.00  0.00     0.044 A 
HETATM   20  C16 UNL     1      23.839   1.386  51.787  1.00  0.00     0.001 A 
HETATM   21  C19 UNL     1      19.931  -1.495  53.819  1.00  0.00     0.055 C 
HETATM   22  C20 UNL     1      18.764  -1.278  53.229  1.00  0.00     0.019 C 
HETATM   23  H7  UNL     1      19.744   1.941  50.894  1.00  0.00     0.322 HD
ENDROOT
BRANCH   5  24
HETATM   24  O1  UNL     1      17.339   2.601  50.801  1.00  0.00    -0.362 OA
HETATM   25  C6  UNL     1      16.062   2.513  51.332  1.00  0.00     0.204 C 
ENDBRANCH   5  24
BRANCH  20  26
HETATM   26  C17 UNL     1      24.802   2.274  51.075  1.00  0.00     0.208 C 
BRANCH  26  27
HETATM   27  O4  UNL     1      24.553   3.583  51.440  1.00  0.00    -0.391 OA
HETATM   28  C18 UNL     1      24.957   4.513  50.506  1.00  0.00     0.201 C 
ENDBRANCH  26  27
ENDBRANCH  20  26
TORSDOF 3
ENDMDL
MODEL 7
REMARK VINA RESULT:      -7.8      1.715      2.205
REMARK  3 active torsions:
REMARK  status: ('A' for Active; 'I' for Inactive)
REMARK    1  A    between atoms: C5_5  and  O1_6 
REMARK    2  A    between atoms: C16_22  and  C17_23 
REMARK    3  A    between atoms: C17_23  and  O4_24 
ROOT
HETATM    1  C1  UNL     1      24.332   6.999  47.535  1.00  0.00     0.012 C 
HETATM    2  C2  UNL     1      24.201   6.001  48.189  1.00  0.00    -0.111 C 
HETATM    3  C3  UNL     1      24.032   4.820  48.965  1.00  0.00     0.023 C 
HETATM    4  C4  UNL     1      22.793   4.476  48.644  1.00  0.00     0.124 C 
HETATM    5  C5  UNL     1      21.483   3.842  48.499  1.00  0.00     0.364 C 
HETATM    6  N1  UNL     1      21.211   2.987  49.653  1.00  0.00     0.135 N 
HETATM    7  C7  UNL     1      19.859   2.491  49.708  1.00  0.00     0.443 C 
HETATM    8  O2  UNL     1      19.518   1.915  50.888  1.00  0.00    -0.337 OA
HETATM    9  C8  UNL     1      20.194   0.846  51.372  1.00  0.00     0.347 C 
HETATM   10  O3  UNL     1      21.465   0.827  51.682  1.00  0.00    -0.326 OA
HETATM   11  C9  UNL     1      22.709   0.809  51.986  1.00  0.00     0.081 A 
HETATM   12  C10 UNL     1      23.780   1.610  51.686  1.00  0.00     0.053 A 
HETATM   13  C11 UNL     1      25.097   1.547  52.032  1.00  0.00     0.021 A 
HETATM   14  C12 UNL     1      25.918   2.539  51.510  1.00  0.00     0.053 A 
HETATM   15  N2  UNL     1      27.209   2.451  51.844  1.00  0.00    -0.245 NA
HETATM   16  C13 UNL     1      27.669   1.443  52.644  1.00  0.00     0.234 A 
HETATM   17  N3  UNL     1      26.846   0.475  53.146  1.00  0.00    -0.241 NA
HETATM   18  C14 UNL     1      25.552   0.546  52.823  1.00  0.00     0.071 A 
HETATM   19  C15 UNL     1      24.554  -0.321  53.189  1.00  0.00     0.044 A 
HETATM   20  C16 UNL     1      23.209  -0.218  52.808  1.00  0.00     0.001 A 
HETATM   21  C19 UNL     1      25.935   3.732  50.648  1.00  0.00     0.055 C 
HETATM   22  C20 UNL     1      25.221   4.448  49.791  1.00  0.00     0.019 C 
HETATM   23  H7  UNL     1      21.861   2.119  49.552  1.00  0.00     0.322 HD
ENDROOT
BRANCH   5  24
HETATM   24  O1  UNL     1      21.327   3.123  47.331  1.00  0.00    -0.362 OA
HETATM   25  C6  UNL     1      21.770   3.811  46.212  1.00  0.00     0.204 C 
ENDBRANCH   5  24
BRANCH  20  26
HETATM   26  C17 UNL     1      22.272  -1.265  53.308  1.00  0.00     0.208 C 
BRANCH  26  27
HETATM   27  O4  UNL     1      22.093  -1.088  54.667  1.00  0.00    -0.391 OA
HETATM   28  C18 UNL     1      21.176  -0.111  54.989  1.00  0.00     0.201 C 
ENDBRANCH  26  27
ENDBRANCH  20  26
TORSDOF 3
ENDMDL
MODEL 8
REMARK VINA RESULT:      -7.4      5.669     10.174
REMARK  3 active torsions:
REMARK  status: ('A' for Active; 'I' for Inactive)
REMARK    1  A    between atoms: C5_5  and  O1_6 
REMARK    2  A    between atoms: C16_22  and  C17_23 
REMARK    3  A    between atoms: C17_23  and  O4_24 
ROOT
HETATM    1  C1  UNL     1      24.268   3.701  49.308  1.00  0.00     0.012 C 
HETATM    2  C2  UNL     1      25.114   4.534  49.127  1.00  0.00    -0.111 C 
HETATM    3  C3  UNL     1      26.107   5.529  48.907  1.00  0.00     0.023 C 
HETATM    4  C4  UNL     1      25.386   6.638  48.994  1.00  0.00     0.124 C 
HETATM    5  C5  UNL     1      24.882   8.010  49.030  1.00  0.00     0.364 C 
HETATM    6  N1  UNL     1      25.799   8.897  48.318  1.00  0.00     0.135 N 
HETATM    7  C7  UNL     1      25.284  10.228  48.112  1.00  0.00     0.443 C 
HETATM    8  O2  UNL     1      26.001  10.981  47.241  1.00  0.00    -0.337 OA
HETATM    9  C8  UNL     1      27.310  11.253  47.456  1.00  0.00     0.347 C 
HETATM   10  O3  UNL     1      28.267  10.365  47.542  1.00  0.00    -0.326 OA
HETATM   11  C9  UNL     1      29.203   9.496  47.624  1.00  0.00     0.081 A 
HETATM   12  C10 UNL     1      29.238   8.142  47.836  1.00  0.00     0.053 A 
HETATM   13  C11 UNL     1      30.268   7.254  47.922  1.00  0.00     0.021 A 
HETATM   14  C12 UNL     1      29.922   5.932  48.178  1.00  0.00     0.053 A 
HETATM   15  N2  UNL     1      30.944   5.079  48.278  1.00  0.00    -0.245 NA
HETATM   16  C13 UNL     1      32.237   5.499  48.135  1.00  0.00     0.234 A 
HETATM   17  N3  UNL     1      32.558   6.804  47.884  1.00  0.00    -0.241 NA
HETATM   18  C14 UNL     1      31.549   7.672  47.782  1.00  0.00     0.071 A 
HETATM   19  C15 UNL     1      31.633   9.022  47.560  1.00  0.00     0.044 A 
HETATM   20  C16 UNL     1      30.544   9.902  47.482  1.00  0.00     0.001 A 
HETATM   21  C19 UNL     1      28.783   5.032  48.427  1.00  0.00     0.055 C 
HETATM   22  C20 UNL     1      27.482   4.989  48.673  1.00  0.00     0.019 C 
HETATM   23  H7  UNL     1      26.682   8.996  48.947  1.00  0.00     0.322 HD
ENDROOT
BRANCH   5  24
HETATM   24  O1  UNL     1      24.647   8.494  50.301  1.00  0.00    -0.362 OA
HETATM   25  C6  UNL     1      23.880   7.634  51.071  1.00  0.00     0.204 C 
ENDBRANCH   5  24
BRANCH  20  26
HETATM   26  C17 UNL     1      30.841  11.342  47.235  1.00  0.00     0.208 C 
BRANCH  26  27
HETATM   27  O4  UNL     1      31.360  11.894  48.391  1.00  0.00    -0.391 OA
HETATM   28  C18 UNL     1      30.468  12.683  49.085  1.00  0.00     0.201 C 
ENDBRANCH  26  27
ENDBRANCH  20  26
TORSDOF 3
ENDMDL
MODEL 9
REMARK VINA RESULT:      -7.3      2.680      4.973
REMARK  3 active torsions:
REMARK  status: ('A' for Active; 'I' for Inactive)
REMARK    1  A    between atoms: C5_5  and  O1_6 
REMARK    2  A    between atoms: C16_22  and  C17_23 
REMARK    3  A    between atoms: C17_23  and  O4_24 
ROOT
HETATM    1  C1  UNL     1      22.606   6.626  46.223  1.00  0.00     0.012 C 
HETATM    2  C2  UNL     1      22.621   5.809  47.103  1.00  0.00    -0.111 C 
HETATM    3  C3  UNL     1      22.652   4.839  48.144  1.00  0.00     0.023 C 
HETATM    4  C4  UNL     1      23.884   4.998  48.607  1.00  0.00     0.124 C 
HETATM    5  C5  UNL     1      25.153   4.930  49.330  1.00  0.00     0.364 C 
HETATM    6  N1  UNL     1      25.283   3.634  49.992  1.00  0.00     0.135 N 
HETATM    7  C7  UNL     1      26.590   3.389  50.548  1.00  0.00     0.443 C 
HETATM    8  O2  UNL     1      26.806   2.107  50.935  1.00  0.00    -0.337 OA
HETATM    9  C8  UNL     1      26.025   1.511  51.867  1.00  0.00     0.347 C 
HETATM   10  O3  UNL     1      24.737   1.307  51.762  1.00  0.00    -0.326 OA
HETATM   11  C9  UNL     1      23.477   1.106  51.658  1.00  0.00     0.081 A 
HETATM   12  C10 UNL     1      22.487   1.619  50.859  1.00  0.00     0.053 A 
HETATM   13  C11 UNL     1      21.148   1.376  50.789  1.00  0.00     0.021 A 
HETATM   14  C12 UNL     1      20.436   2.118  49.854  1.00  0.00     0.053 A 
HETATM   15  N2  UNL     1      19.123   1.880  49.812  1.00  0.00    -0.245 NA
HETATM   16  C13 UNL     1      18.538   0.967  50.643  1.00  0.00     0.234 A 
HETATM   17  N3  UNL     1      19.255   0.247  51.557  1.00  0.00    -0.241 NA
HETATM   18  C14 UNL     1      20.570   0.471  51.615  1.00  0.00     0.071 A 
HETATM   19  C15 UNL     1      21.476  -0.111  52.463  1.00  0.00     0.044 A 
HETATM   20  C16 UNL     1      22.849   0.171  52.503  1.00  0.00     0.001 A 
HETATM   21  C19 UNL     1      20.564   3.162  48.824  1.00  0.00     0.055 C 
HETATM   22  C20 UNL     1      21.384   4.064  48.304  1.00  0.00     0.019 C 
HETATM   23  H7  UNL     1      24.583   3.644  50.826  1.00  0.00     0.322 HD
ENDROOT
BRANCH   5  24
HETATM   24  O1  UNL     1      25.342   5.948  50.242  1.00  0.00    -0.362 OA
HETATM   25  C6  UNL     1      24.167   6.335  50.868  1.00  0.00     0.204 C 
ENDBRANCH   5  24
BRANCH  20  26
HETATM   26  C17 UNL     1      23.673  -0.568  53.502  1.00  0.00     0.208 C 
BRANCH  26  27
HETATM   27  O4  UNL     1      22.833  -1.128  54.445  1.00  0.00    -0.391 OA
HETATM   28  C18 UNL     1      23.446  -1.412  55.646  1.00  0.00     0.201 C 
ENDBRANCH  26  27
ENDBRANCH  20  26
TORSDOF 3
ENDMDL
