MODEL 1
REMARK VINA RESULT:      -8.3      0.000      0.000
REMARK  3 active torsions:
REMARK  status: ('A' for Active; 'I' for Inactive)
REMARK    1  A    between atoms: O1_1  and  C1_2 
REMARK    2  A    between atoms: C6_8  and  C7_9 
REMARK    3  A    between atoms: C8_10  and  C9_11 
ROOT
HETATM    1  C9  UNL     1      22.937   2.223  51.370  1.00  0.00     0.047 C 
HETATM    2  C10 UNL     1      22.729   3.318  52.343  1.00  0.00     0.038 C 
HETATM    3  C11 UNL     1      22.953   4.721  51.758  1.00  0.00     0.045 C 
HETATM    4  C12 UNL     1      21.928   4.765  50.659  1.00  0.00     0.104 A 
HETATM    5  C13 UNL     1      22.416   3.848  49.598  1.00  0.00     0.155 C 
HETATM    6  N1  UNL     1      22.864   2.588  49.990  1.00  0.00    -0.406 N 
HETATM    7  O2  UNL     1      21.091   5.794  50.418  1.00  0.00    -0.366 OA
HETATM    8  C14 UNL     1      20.617   4.705  51.124  1.00  0.00     0.176 A 
HETATM    9  C15 UNL     1      19.685   3.717  50.468  1.00  0.00     0.151 C 
HETATM   10  N2  UNL     1      20.063   2.429  50.829  1.00  0.00    -0.410 N 
HETATM   11  C16 UNL     1      20.143   1.388  49.897  1.00  0.00     0.117 C 
HETATM   12  C17 UNL     1      21.387   0.583  50.237  1.00  0.00     0.027 C 
HETATM   13  C18 UNL     1      22.028   1.029  51.552  1.00  0.00     0.020 C 
HETATM   14  C19 UNL     1      20.960   1.188  52.598  1.00  0.00     0.027 C 
HETATM   15  C20 UNL     1      19.762   1.984  52.155  1.00  0.00     0.117 C 
HETATM   16  H13 UNL     1      23.549   2.157  49.362  1.00  0.00     0.154 HD
ENDROOT
BRANCH   1  17
HETATM   17  C8  UNL     1      24.355   1.774  51.546  1.00  0.00     0.005 C 
HETATM   18  C7  UNL     1      24.771   1.071  52.600  1.00  0.00     0.012 C 
BRANCH  18  19
HETATM   19  C6  UNL     1      26.104   0.563  52.915  1.00  0.00    -0.002 A 
HETATM   20  C1  UNL     1      27.069   1.362  53.540  1.00  0.00     0.093 A 
HETATM   21  C2  UNL     1      28.287   0.773  53.786  1.00  0.00     0.044 A 
HETATM   22 BR1  UNL     1      29.584   1.861  54.631  1.00  0.00    -0.048 Br
HETATM   23  C3  UNL     1      28.601  -0.525  53.460  1.00  0.00     0.022 A 
HETATM   24  C4  UNL     1      27.640  -1.307  52.841  1.00  0.00     0.002 A 
HETATM   25  C5  UNL     1      26.408  -0.741  52.582  1.00  0.00     0.014 A 
BRANCH  20  26
HETATM   26  O1  UNL     1      26.770   2.675  53.876  1.00  0.00    -0.358 OA
HETATM   27  H1  UNL     1      27.077   3.069  54.777  1.00  0.00     0.217 HD
ENDBRANCH  20  26
ENDBRANCH  18  19
ENDBRANCH   1  17
TORSDOF 3
ENDMDL
MODEL 2
REMARK VINA RESULT:      -8.3      1.342      2.280
REMARK  3 active torsions:
REMARK  status: ('A' for Active; 'I' for Inactive)
REMARK    1  A    between atoms: O1_1  and  C1_2 
REMARK    2  A    between atoms: C6_8  and  C7_9 
REMARK    3  A    between atoms: C8_10  and  C9_11 
ROOT
HETATM    1  C9  UNL     1      22.463   1.933  51.299  1.00  0.00     0.047 C 
HETATM    2  C10 UNL     1      21.250   1.130  51.563  1.00  0.00     0.038 C 
HETATM    3  C11 UNL     1      20.376   1.678  52.701  1.00  0.00     0.045 C 
HETATM    4  C12 UNL     1      20.024   3.047  52.190  1.00  0.00     0.104 A 
HETATM    5  C13 UNL     1      21.268   3.853  52.267  1.00  0.00     0.155 C 
HETATM    6  N1  UNL     1      22.440   3.280  51.776  1.00  0.00    -0.406 N 
HETATM    7  O2  UNL     1      18.790   3.590  52.209  1.00  0.00    -0.366 OA
HETATM    8  C14 UNL     1      19.246   3.021  51.035  1.00  0.00     0.176 A 
HETATM    9  C15 UNL     1      19.676   3.893  49.881  1.00  0.00     0.151 C 
HETATM   10  N2  UNL     1      20.838   3.371  49.327  1.00  0.00    -0.410 N 
HETATM   11  C16 UNL     1      21.929   4.179  48.987  1.00  0.00     0.117 C 
HETATM   12  C17 UNL     1      23.185   3.423  49.392  1.00  0.00     0.027 C 
HETATM   13  C18 UNL     1      22.883   1.995  49.848  1.00  0.00     0.020 C 
HETATM   14  C19 UNL     1      21.932   1.352  48.877  1.00  0.00     0.027 C 
HETATM   15  C20 UNL     1      20.733   2.190  48.525  1.00  0.00     0.117 C 
HETATM   16  H13 UNL     1      23.304   3.636  52.194  1.00  0.00     0.154 HD
ENDROOT
BRANCH   1  17
HETATM   17  C8  UNL     1      23.565   1.294  52.087  1.00  0.00     0.005 C 
HETATM   18  C7  UNL     1      24.825   1.230  51.657  1.00  0.00     0.012 C 
BRANCH  18  19
HETATM   19  C6  UNL     1      26.001   0.648  52.299  1.00  0.00    -0.002 A 
HETATM   20  C1  UNL     1      26.965   1.440  52.933  1.00  0.00     0.093 A 
HETATM   21  C2  UNL     1      28.027   0.778  53.502  1.00  0.00     0.044 A 
HETATM   22 BR1  UNL     1      29.324   1.858  54.355  1.00  0.00    -0.048 Br
HETATM   23  C3  UNL     1      28.191  -0.587  53.482  1.00  0.00     0.022 A 
HETATM   24  C4  UNL     1      27.232  -1.363  52.851  1.00  0.00     0.002 A 
HETATM   25  C5  UNL     1      26.155  -0.724  52.272  1.00  0.00     0.014 A 
BRANCH  20  26
HETATM   26  O1  UNL     1      26.817   2.820  52.963  1.00  0.00    -0.358 OA
HETATM   27  H1  UNL     1      26.948   3.343  53.841  1.00  0.00     0.217 HD
ENDBRANCH  20  26
ENDBRANCH  18  19
ENDBRANCH   1  17
TORSDOF 3
ENDMDL
MODEL 3
REMARK VINA RESULT:      -8.1      3.911      5.944
REMARK  3 active torsions:
REMARK  status: ('A' for Active; 'I' for Inactive)
REMARK    1  A    between atoms: O1_1  and  C1_2 
REMARK    2  A    between atoms: C6_8  and  C7_9 
REMARK    3  A    between atoms: C8_10  and  C9_11 
ROOT
HETATM    1  C9  UNL     1      24.357   3.658  50.994  1.00  0.00     0.047 C 
HETATM    2  C10 UNL     1      25.206   2.490  50.671  1.00  0.00     0.038 C 
HETATM    3  C11 UNL     1      26.169   2.090  51.798  1.00  0.00     0.045 C 
HETATM    4  C12 UNL     1      25.220   1.781  52.923  1.00  0.00     0.104 A 
HETATM    5  C13 UNL     1      24.663   3.084  53.367  1.00  0.00     0.155 C 
HETATM    6  N1  UNL     1      24.210   3.961  52.383  1.00  0.00    -0.406 N 
HETATM    7  O2  UNL     1      25.287   0.697  53.720  1.00  0.00    -0.366 OA
HETATM    8  C14 UNL     1      24.395   0.689  52.665  1.00  0.00     0.176 A 
HETATM    9  C15 UNL     1      22.917   0.855  52.914  1.00  0.00     0.151 C 
HETATM   10  N2  UNL     1      22.388   1.710  51.954  1.00  0.00    -0.410 N 
HETATM   11  C16 UNL     1      21.499   2.740  52.283  1.00  0.00     0.117 C 
HETATM   12  C17 UNL     1      21.890   3.948  51.446  1.00  0.00     0.027 C 
HETATM   13  C18 UNL     1      22.964   3.615  50.410  1.00  0.00     0.020 C 
HETATM   14  C19 UNL     1      22.601   2.335  49.709  1.00  0.00     0.027 C 
HETATM   15  C20 UNL     1      22.210   1.208  50.626  1.00  0.00     0.117 C 
HETATM   16  H13 UNL     1      24.229   4.952  52.644  1.00  0.00     0.154 HD
ENDROOT
BRANCH   1  17
HETATM   17  C8  UNL     1      25.069   4.854  50.442  1.00  0.00     0.005 C 
HETATM   18  C7  UNL     1      25.640   4.870  49.237  1.00  0.00     0.012 C 
BRANCH  18  19
HETATM   19  C6  UNL     1      26.364   5.944  48.561  1.00  0.00    -0.002 A 
HETATM   20  C1  UNL     1      27.762   5.970  48.502  1.00  0.00     0.093 A 
HETATM   21  C2  UNL     1      28.329   7.031  47.838  1.00  0.00     0.044 A 
HETATM   22 BR1  UNL     1      30.219   7.055  47.765  1.00  0.00    -0.048 Br
HETATM   23  C3  UNL     1      27.616   8.045  47.244  1.00  0.00     0.022 A 
HETATM   24  C4  UNL     1      26.233   8.012  47.308  1.00  0.00     0.002 A 
HETATM   25  C5  UNL     1      25.636   6.957  47.968  1.00  0.00     0.014 A 
BRANCH  20  26
HETATM   26  O1  UNL     1      28.499   4.955  49.097  1.00  0.00    -0.358 OA
HETATM   27  H1  UNL     1      28.134   3.992  49.130  1.00  0.00     0.217 HD
ENDBRANCH  20  26
ENDBRANCH  18  19
ENDBRANCH   1  17
TORSDOF 3
ENDMDL
MODEL 4
REMARK VINA RESULT:      -8.1      1.917      3.052
REMARK  3 active torsions:
REMARK  status: ('A' for Active; 'I' for Inactive)
REMARK    1  A    between atoms: O1_1  and  C1_2 
REMARK    2  A    between atoms: C6_8  and  C7_9 
REMARK    3  A    between atoms: C8_10  and  C9_11 
ROOT
HETATM    1  C9  UNL     1      24.006   2.805  50.740  1.00  0.00     0.047 C 
HETATM    2  C10 UNL     1      23.025   1.729  50.998  1.00  0.00     0.038 C 
HETATM    3  C11 UNL     1      22.366   1.806  52.384  1.00  0.00     0.045 C 
HETATM    4  C12 UNL     1      21.699   3.152  52.335  1.00  0.00     0.104 A 
HETATM    5  C13 UNL     1      22.788   4.159  52.394  1.00  0.00     0.155 C 
HETATM    6  N1  UNL     1      23.888   3.971  51.558  1.00  0.00    -0.406 N 
HETATM    7  O2  UNL     1      20.435   3.408  52.728  1.00  0.00    -0.366 OA
HETATM    8  C14 UNL     1      20.687   3.232  51.380  1.00  0.00     0.176 A 
HETATM    9  C15 UNL     1      20.698   4.416  50.446  1.00  0.00     0.151 C 
HETATM   10  N2  UNL     1      21.766   4.289  49.565  1.00  0.00    -0.410 N 
HETATM   11  C16 UNL     1      22.611   5.362  49.259  1.00  0.00     0.117 C 
HETATM   12  C17 UNL     1      24.027   4.811  49.206  1.00  0.00     0.027 C 
HETATM   13  C18 UNL     1      24.062   3.285  49.308  1.00  0.00     0.020 C 
HETATM   14  C19 UNL     1      23.022   2.701  48.393  1.00  0.00     0.027 C 
HETATM   15  C20 UNL     1      21.660   3.329  48.509  1.00  0.00     0.117 C 
HETATM   16  H13 UNL     1      24.760   4.393  51.889  1.00  0.00     0.154 HD
ENDROOT
BRANCH   1  17
HETATM   17  C8  UNL     1      25.345   2.245  51.108  1.00  0.00     0.005 C 
HETATM   18  C7  UNL     1      25.723   2.029  52.368  1.00  0.00     0.012 C 
BRANCH  18  19
HETATM   19  C6  UNL     1      26.980   1.495  52.886  1.00  0.00    -0.002 A 
HETATM   20  C1  UNL     1      27.299   0.135  52.792  1.00  0.00     0.093 A 
HETATM   21  C2  UNL     1      28.511  -0.248  53.315  1.00  0.00     0.044 A 
HETATM   22 BR1  UNL     1      28.933  -2.088  53.182  1.00  0.00    -0.048 Br
HETATM   23  C3  UNL     1      29.405   0.608  53.912  1.00  0.00     0.022 A 
HETATM   24  C4  UNL     1      29.079   1.952  54.002  1.00  0.00     0.002 A 
HETATM   25  C5  UNL     1      27.869   2.365  53.484  1.00  0.00     0.014 A 
BRANCH  20  26
HETATM   26  O1  UNL     1      26.410  -0.746  52.192  1.00  0.00    -0.358 OA
HETATM   27  H1  UNL     1      25.688  -1.224  52.751  1.00  0.00     0.217 HD
ENDBRANCH  20  26
ENDBRANCH  18  19
ENDBRANCH   1  17
TORSDOF 3
ENDMDL
MODEL 5
REMARK VINA RESULT:      -7.9      6.309      8.259
REMARK  3 active torsions:
REMARK  status: ('A' for Active; 'I' for Inactive)
REMARK    1  A    between atoms: O1_1  and  C1_2 
REMARK    2  A    between atoms: C6_8  and  C7_9 
REMARK    3  A    between atoms: C8_10  and  C9_11 
ROOT
HETATM    1  C9  UNL     1      27.372   7.279  48.292  1.00  0.00     0.047 C 
HETATM    2  C10 UNL     1      26.455   8.069  47.442  1.00  0.00     0.038 C 
HETATM    3  C11 UNL     1      25.533   9.012  48.229  1.00  0.00     0.045 C 
HETATM    4  C12 UNL     1      26.524   9.897  48.933  1.00  0.00     0.104 A 
HETATM    5  C13 UNL     1      27.162   9.058  49.978  1.00  0.00     0.155 C 
HETATM    6  N1  UNL     1      27.604   7.790  49.607  1.00  0.00    -0.406 N 
HETATM    7  O2  UNL     1      26.448  11.241  49.009  1.00  0.00    -0.366 OA
HETATM    8  C14 UNL     1      27.283  10.677  48.063  1.00  0.00     0.176 A 
HETATM    9  C15 UNL     1      28.778  10.691  48.260  1.00  0.00     0.151 C 
HETATM   10  N2  UNL     1      29.296   9.454  47.892  1.00  0.00    -0.410 N 
HETATM   11  C16 UNL     1      30.247   8.783  48.669  1.00  0.00     0.117 C 
HETATM   12  C17 UNL     1      29.870   7.311  48.659  1.00  0.00     0.027 C 
HETATM   13  C18 UNL     1      28.730   7.009  47.686  1.00  0.00     0.020 C 
HETATM   14  C19 UNL     1      28.997   7.697  46.376  1.00  0.00     0.027 C 
HETATM   15  C20 UNL     1      29.382   9.146  46.497  1.00  0.00     0.117 C 
HETATM   16  H13 UNL     1      27.645   7.105  50.367  1.00  0.00     0.154 HD
ENDROOT
BRANCH   1  17
HETATM   17  C8  UNL     1      26.689   5.968  48.535  1.00  0.00     0.005 C 
HETATM   18  C7  UNL     1      26.016   5.693  49.652  1.00  0.00     0.012 C 
BRANCH  18  19
HETATM   19  C6  UNL     1      25.303   4.477  50.037  1.00  0.00    -0.002 A 
HETATM   20  C1  UNL     1      25.946   3.420  50.692  1.00  0.00     0.093 A 
HETATM   21  C2  UNL     1      25.171   2.329  51.004  1.00  0.00     0.044 A 
HETATM   22 BR1  UNL     1      26.050   0.907  51.889  1.00  0.00    -0.048 Br
HETATM   23  C3  UNL     1      23.832   2.220  50.714  1.00  0.00     0.022 A 
HETATM   24  C4  UNL     1      23.204   3.271  50.064  1.00  0.00     0.002 A 
HETATM   25  C5  UNL     1      23.959   4.380  49.740  1.00  0.00     0.014 A 
BRANCH  20  26
HETATM   26  O1  UNL     1      27.298   3.512  50.993  1.00  0.00    -0.358 OA
HETATM   27  H1  UNL     1      27.951   2.768  50.708  1.00  0.00     0.217 HD
ENDBRANCH  20  26
ENDBRANCH  18  19
ENDBRANCH   1  17
TORSDOF 3
ENDMDL
MODEL 6
REMARK VINA RESULT:      -7.8      3.871      6.058
REMARK  3 active torsions:
REMARK  status: ('A' for Active; 'I' for Inactive)
REMARK    1  A    between atoms: O1_1  and  C1_2 
REMARK    2  A    between atoms: C6_8  and  C7_9 
REMARK    3  A    between atoms: C8_10  and  C9_11 
ROOT
HETATM    1  C9  UNL     1      24.820   2.896  51.646  1.00  0.00     0.047 C 
HETATM    2  C10 UNL     1      23.923   3.266  52.763  1.00  0.00     0.038 C 
HETATM    3  C11 UNL     1      22.450   2.905  52.523  1.00  0.00     0.045 C 
HETATM    4  C12 UNL     1      22.520   1.414  52.350  1.00  0.00     0.104 A 
HETATM    5  C13 UNL     1      23.170   1.177  51.035  1.00  0.00     0.155 C 
HETATM    6  N1  UNL     1      24.327   1.900  50.749  1.00  0.00    -0.406 N 
HETATM    7  O2  UNL     1      21.694   0.524  52.935  1.00  0.00    -0.366 OA
HETATM    8  C14 UNL     1      22.938   0.744  53.497  1.00  0.00     0.176 A 
HETATM    9  C15 UNL     1      24.034  -0.282  53.349  1.00  0.00     0.151 C 
HETATM   10  N2  UNL     1      25.231   0.370  53.076  1.00  0.00    -0.410 N 
HETATM   11  C16 UNL     1      26.110  -0.073  52.082  1.00  0.00     0.117 C 
HETATM   12  C17 UNL     1      26.636   1.163  51.370  1.00  0.00     0.027 C 
HETATM   13  C18 UNL     1      26.207   2.458  52.061  1.00  0.00     0.020 C 
HETATM   14  C19 UNL     1      26.423   2.329  53.543  1.00  0.00     0.027 C 
HETATM   15  C20 UNL     1      25.884   1.060  54.146  1.00  0.00     0.117 C 
HETATM   16  H13 UNL     1      24.511   2.045  49.751  1.00  0.00     0.154 HD
ENDROOT
BRANCH   1  17
HETATM   17  C8  UNL     1      24.943   4.119  50.789  1.00  0.00     0.005 C 
HETATM   18  C7  UNL     1      25.986   4.347  49.990  1.00  0.00     0.012 C 
BRANCH  18  19
HETATM   19  C6  UNL     1      26.252   5.477  49.103  1.00  0.00    -0.002 A 
HETATM   20  C1  UNL     1      27.546   5.785  48.669  1.00  0.00     0.093 A 
HETATM   21  C2  UNL     1      27.671   6.871  47.836  1.00  0.00     0.044 A 
HETATM   22 BR1  UNL     1      29.425   7.279  47.255  1.00  0.00    -0.048 Br
HETATM   23  C3  UNL     1      26.621   7.652  47.416  1.00  0.00     0.022 A 
HETATM   24  C4  UNL     1      25.344   7.340  47.852  1.00  0.00     0.002 A 
HETATM   25  C5  UNL     1      25.189   6.254  48.689  1.00  0.00     0.014 A 
BRANCH  20  26
HETATM   26  O1  UNL     1      28.619   5.008  49.082  1.00  0.00    -0.358 OA
HETATM   27  H1  UNL     1      28.701   4.025  48.783  1.00  0.00     0.217 HD
ENDBRANCH  20  26
ENDBRANCH  18  19
ENDBRANCH   1  17
TORSDOF 3
ENDMDL
MODEL 7
REMARK VINA RESULT:      -7.7      2.302      4.007
REMARK  3 active torsions:
REMARK  status: ('A' for Active; 'I' for Inactive)
REMARK    1  A    between atoms: O1_1  and  C1_2 
REMARK    2  A    between atoms: C6_8  and  C7_9 
REMARK    3  A    between atoms: C8_10  and  C9_11 
ROOT
HETATM    1  C9  UNL     1      23.896   4.605  50.430  1.00  0.00     0.047 C 
HETATM    2  C10 UNL     1      23.714   3.830  49.184  1.00  0.00     0.038 C 
HETATM    3  C11 UNL     1      22.287   3.297  48.985  1.00  0.00     0.045 C 
HETATM    4  C12 UNL     1      21.483   4.566  48.960  1.00  0.00     0.104 A 
HETATM    5  C13 UNL     1      21.485   5.088  50.351  1.00  0.00     0.155 C 
HETATM    6  N1  UNL     1      22.706   5.129  51.023  1.00  0.00    -0.406 N 
HETATM    7  O2  UNL     1      20.519   4.859  48.064  1.00  0.00    -0.366 OA
HETATM    8  C14 UNL     1      21.782   5.389  47.876  1.00  0.00     0.176 A 
HETATM    9  C15 UNL     1      22.047   6.847  48.156  1.00  0.00     0.151 C 
HETATM   10  N2  UNL     1      23.265   6.969  48.815  1.00  0.00    -0.410 N 
HETATM   11  C16 UNL     1      23.428   7.799  49.929  1.00  0.00     0.117 C 
HETATM   12  C17 UNL     1      24.307   7.049  50.917  1.00  0.00     0.027 C 
HETATM   13  C18 UNL     1      24.872   5.756  50.328  1.00  0.00     0.020 C 
HETATM   14  C19 UNL     1      25.402   6.027  48.948  1.00  0.00     0.027 C 
HETATM   15  C20 UNL     1      24.465   6.793  48.055  1.00  0.00     0.117 C 
HETATM   16  H13 UNL     1      22.640   5.083  52.044  1.00  0.00     0.154 HD
ENDROOT
BRANCH   1  17
HETATM   17  C8  UNL     1      24.407   3.637  51.452  1.00  0.00     0.005 C 
HETATM   18  C7  UNL     1      25.180   2.594  51.146  1.00  0.00     0.012 C 
BRANCH  18  19
HETATM   19  C6  UNL     1      25.753   1.570  52.015  1.00  0.00    -0.002 A 
HETATM   20  C1  UNL     1      27.068   1.654  52.488  1.00  0.00     0.093 A 
HETATM   21  C2  UNL     1      27.495   0.630  53.299  1.00  0.00     0.044 A 
HETATM   22 BR1  UNL     1      29.274   0.754  53.932  1.00  0.00    -0.048 Br
HETATM   23  C3  UNL     1      26.721  -0.446  53.663  1.00  0.00     0.022 A 
HETATM   24  C4  UNL     1      25.421  -0.520  53.190  1.00  0.00     0.002 A 
HETATM   25  C5  UNL     1      24.966   0.494  52.374  1.00  0.00     0.014 A 
BRANCH  20  26
HETATM   26  O1  UNL     1      27.865   2.733  52.130  1.00  0.00    -0.358 OA
HETATM   27  H1  UNL     1      28.865   2.752  52.378  1.00  0.00     0.217 HD
ENDBRANCH  20  26
ENDBRANCH  18  19
ENDBRANCH   1  17
TORSDOF 3
ENDMDL
MODEL 8
REMARK VINA RESULT:      -7.5      8.033     10.220
REMARK  3 active torsions:
REMARK  status: ('A' for Active; 'I' for Inactive)
REMARK    1  A    between atoms: O1_1  and  C1_2 
REMARK    2  A    between atoms: C6_8  and  C7_9 
REMARK    3  A    between atoms: C8_10  and  C9_11 
ROOT
HETATM    1  C9  UNL     1      29.836   7.341  48.198  1.00  0.00     0.047 C 
HETATM    2  C10 UNL     1      29.858   8.062  46.906  1.00  0.00     0.038 C 
HETATM    3  C11 UNL     1      29.923   9.590  47.047  1.00  0.00     0.045 C 
HETATM    4  C12 UNL     1      31.210   9.778  47.800  1.00  0.00     0.104 A 
HETATM    5  C13 UNL     1      30.959   9.296  49.182  1.00  0.00     0.155 C 
HETATM    6  N1  UNL     1      30.316   8.068  49.330  1.00  0.00    -0.406 N 
HETATM    7  O2  UNL     1      32.165  10.680  47.495  1.00  0.00    -0.366 OA
HETATM    8  C14 UNL     1      32.334   9.371  47.083  1.00  0.00     0.176 A 
HETATM    9  C15 UNL     1      33.323   8.473  47.782  1.00  0.00     0.151 C 
HETATM   10  N2  UNL     1      32.754   7.216  47.951  1.00  0.00    -0.410 N 
HETATM   11  C16 UNL     1      32.846   6.514  49.158  1.00  0.00     0.117 C 
HETATM   12  C17 UNL     1      31.494   5.862  49.397  1.00  0.00     0.027 C 
HETATM   13  C18 UNL     1      30.556   6.012  48.198  1.00  0.00     0.020 C 
HETATM   14  C19 UNL     1      31.304   5.686  46.936  1.00  0.00     0.027 C 
HETATM   15  C20 UNL     1      32.640   6.366  46.805  1.00  0.00     0.117 C 
HETATM   16  H13 UNL     1      29.797   7.954  50.206  1.00  0.00     0.154 HD
ENDROOT
BRANCH   1  17
HETATM   17  C8  UNL     1      28.392   7.101  48.514  1.00  0.00     0.005 C 
HETATM   18  C7  UNL     1      27.846   5.885  48.551  1.00  0.00     0.012 C 
BRANCH  18  19
HETATM   19  C6  UNL     1      26.471   5.487  48.840  1.00  0.00    -0.002 A 
HETATM   20  C1  UNL     1      26.175   4.396  49.665  1.00  0.00     0.093 A 
HETATM   21  C2  UNL     1      24.843   4.120  49.863  1.00  0.00     0.044 A 
HETATM   22 BR1  UNL     1      24.456   2.643  50.981  1.00  0.00    -0.048 Br
HETATM   23  C3  UNL     1      23.811   4.837  49.309  1.00  0.00     0.022 A 
HETATM   24  C4  UNL     1      24.113   5.915  48.492  1.00  0.00     0.002 A 
HETATM   25  C5  UNL     1      25.442   6.216  48.276  1.00  0.00     0.014 A 
BRANCH  20  26
HETATM   26  O1  UNL     1      27.205   3.659  50.234  1.00  0.00    -0.358 OA
HETATM   27  H1  UNL     1      28.058   4.126  50.574  1.00  0.00     0.217 HD
ENDBRANCH  20  26
ENDBRANCH  18  19
ENDBRANCH   1  17
TORSDOF 3
ENDMDL
MODEL 9
REMARK VINA RESULT:      -7.1      3.849      7.300
REMARK  3 active torsions:
REMARK  status: ('A' for Active; 'I' for Inactive)
REMARK    1  A    between atoms: O1_1  and  C1_2 
REMARK    2  A    between atoms: C6_8  and  C7_9 
REMARK    3  A    between atoms: C8_10  and  C9_11 
ROOT
HETATM    1  C9  UNL     1      24.462   0.341  53.081  1.00  0.00     0.047 C 
HETATM    2  C10 UNL     1      24.884   0.189  54.491  1.00  0.00     0.038 C 
HETATM    3  C11 UNL     1      25.736  -1.062  54.754  1.00  0.00     0.045 C 
HETATM    4  C12 UNL     1      26.915  -0.829  53.853  1.00  0.00     0.104 A 
HETATM    5  C13 UNL     1      26.421  -1.012  52.464  1.00  0.00     0.155 C 
HETATM    6  N1  UNL     1      25.228  -0.381  52.116  1.00  0.00    -0.406 N 
HETATM    7  O2  UNL     1      28.206  -0.993  54.204  1.00  0.00    -0.366 OA
HETATM    8  C14 UNL     1      27.674   0.282  54.213  1.00  0.00     0.176 A 
HETATM    9  C15 UNL     1      28.034   1.266  53.127  1.00  0.00     0.151 C 
HETATM   10  N2  UNL     1      26.888   1.950  52.737  1.00  0.00    -0.410 N 
HETATM   11  C16 UNL     1      26.575   2.171  51.391  1.00  0.00     0.117 C 
HETATM   12  C17 UNL     1      25.077   1.960  51.243  1.00  0.00     0.027 C 
HETATM   13  C18 UNL     1      24.380   1.769  52.591  1.00  0.00     0.020 C 
HETATM   14  C19 UNL     1      24.873   2.809  53.559  1.00  0.00     0.027 C 
HETATM   15  C20 UNL     1      26.370   2.954  53.615  1.00  0.00     0.117 C 
HETATM   16  H13 UNL     1      24.709  -0.827  51.354  1.00  0.00     0.154 HD
ENDROOT
BRANCH   1  17
HETATM   17  C8  UNL     1      23.099  -0.273  52.987  1.00  0.00     0.005 C 
HETATM   18  C7  UNL     1      21.997   0.432  52.731  1.00  0.00     0.012 C 
BRANCH  18  19
HETATM   19  C6  UNL     1      20.611  -0.013  52.609  1.00  0.00    -0.002 A 
HETATM   20  C1  UNL     1      19.808   0.364  51.526  1.00  0.00     0.093 A 
HETATM   21  C2  UNL     1      18.521  -0.118  51.521  1.00  0.00     0.044 A 
HETATM   22 BR1  UNL     1      17.444   0.398  50.053  1.00  0.00    -0.048 Br
HETATM   23  C3  UNL     1      17.991  -0.929  52.496  1.00  0.00     0.022 A 
HETATM   24  C4  UNL     1      18.794  -1.296  53.563  1.00  0.00     0.002 A 
HETATM   25  C5  UNL     1      20.091  -0.827  53.595  1.00  0.00     0.014 A 
BRANCH  20  26
HETATM   26  O1  UNL     1      20.325   1.183  50.532  1.00  0.00    -0.358 OA
HETATM   27  H1  UNL     1      21.034   1.896  50.755  1.00  0.00     0.217 HD
ENDBRANCH  20  26
ENDBRANCH  18  19
ENDBRANCH   1  17
TORSDOF 3
ENDMDL
