MODEL 1
REMARK VINA RESULT:      -7.9      0.000      0.000
REMARK  7 active torsions:
REMARK  status: ('A' for Active; 'I' for Inactive)
REMARK    1  A    between atoms: O1_2  and  C2_3 
REMARK    2  A    between atoms: C5_6  and  O2_7 
REMARK    3  A    between atoms: C7_9  and  C8_10 
REMARK    4  A    between atoms: C8_10  and  N1_11 
REMARK    5  A    between atoms: C12_15  and  N2_16 
REMARK    6  A    between atoms: N2_16  and  C13_17 
REMARK    7  A    between atoms: C18_24  and  N4_25 
ROOT
HETATM    1  N1  UNL     1      22.029   2.137  52.282  1.00  0.00    -0.336 N 
HETATM    2  C9  UNL     1      22.840   2.745  51.376  1.00  0.00     0.094 A 
HETATM    3  C10 UNL     1      24.097   2.147  51.381  1.00  0.00     0.036 A 
HETATM    4  C11 UNL     1      24.053   1.156  52.309  1.00  0.00     0.059 A 
HETATM    5  C12 UNL     1      24.918   0.202  52.812  1.00  0.00     0.161 A 
HETATM    6  N3  UNL     1      24.487  -0.638  53.771  1.00  0.00    -0.044 NA
HETATM    7  C18 UNL     1      23.240  -0.608  54.281  1.00  0.00     0.724 A 
HETATM    8  N5  UNL     1      22.417   0.322  53.780  1.00  0.00    -0.044 NA
HETATM    9  C19 UNL     1      22.779   1.179  52.836  1.00  0.00     0.163 A 
ENDROOT
BRANCH   1  10
HETATM   10  C8  UNL     1      20.675   2.623  52.418  1.00  0.00     0.171 C 
BRANCH  10  11
HETATM   11  C7  UNL     1      19.690   1.880  51.593  1.00  0.00    -0.004 A 
HETATM   12  C5  UNL     1      19.224   2.158  50.332  1.00  0.00     0.076 A 
HETATM   13  C4  UNL     1      18.299   1.354  49.715  1.00  0.00     0.040 A 
HETATM   14  C3  UNL     1      17.782   0.225  50.314  1.00  0.00     0.039 A 
HETATM   15  C2  UNL     1      18.225  -0.089  51.581  1.00  0.00     0.069 A 
HETATM   16  C20 UNL     1      19.152   0.731  52.182  1.00  0.00     0.048 A 
BRANCH  12  17
HETATM   17  O2  UNL     1      19.762   3.299  49.752  1.00  0.00    -0.355 OA
HETATM   18  C6  UNL     1      20.447   3.144  48.530  1.00  0.00     0.210 C 
ENDBRANCH  12  17
BRANCH  15  19
HETATM   19  O1  UNL     1      17.723  -1.219  52.211  1.00  0.00    -0.356 OA
HETATM   20  C1  UNL     1      18.239  -1.576  53.465  1.00  0.00     0.210 C 
ENDBRANCH  15  19
ENDBRANCH  10  11
ENDBRANCH   1  10
BRANCH   5  21
HETATM   21  N2  UNL     1      26.233   0.129  52.314  1.00  0.00    -0.342 N 
HETATM   22  H13 UNL     1      26.440  -0.339  51.407  1.00  0.00     0.167 HD
BRANCH  21  23
HETATM   23  C13 UNL     1      27.311   0.709  53.068  1.00  0.00     0.029 A 
HETATM   24  C14 UNL     1      27.616   1.978  52.791  1.00  0.00     0.026 A 
HETATM   25  C15 UNL     1      28.719   2.457  53.614  1.00  0.00    -0.001 A 
HETATM   26  C16 UNL     1      29.055   1.431  54.382  1.00  0.00    -0.005 A 
HETATM   27  C17 UNL     1      28.216   0.208  54.137  1.00  0.00     0.130 A 
HETATM   28 BR1  UNL     1      29.411  -1.175  53.447  1.00  0.00    -0.080 Br
ENDBRANCH  21  23
ENDBRANCH   5  21
BRANCH   7  29
HETATM   29  N4  UNL     1      22.840  -1.526  55.297  1.00  0.00    -0.231 N 
HETATM   30  H18 UNL     1      22.405  -1.378  56.230  1.00  0.00     0.174 HD
HETATM   31  H19 UNL     1      22.936  -2.567  55.245  1.00  0.00     0.174 HD
ENDBRANCH   7  29
TORSDOF 7
ENDMDL
MODEL 2
REMARK VINA RESULT:      -7.8      0.718      2.549
REMARK  7 active torsions:
REMARK  status: ('A' for Active; 'I' for Inactive)
REMARK    1  A    between atoms: O1_2  and  C2_3 
REMARK    2  A    between atoms: C5_6  and  O2_7 
REMARK    3  A    between atoms: C7_9  and  C8_10 
REMARK    4  A    between atoms: C8_10  and  N1_11 
REMARK    5  A    between atoms: C12_15  and  N2_16 
REMARK    6  A    between atoms: N2_16  and  C13_17 
REMARK    7  A    between atoms: C18_24  and  N4_25 
ROOT
HETATM    1  N1  UNL     1      21.869   1.770  52.614  1.00  0.00    -0.336 N 
HETATM    2  C9  UNL     1      22.573   2.403  51.638  1.00  0.00     0.094 A 
HETATM    3  C10 UNL     1      23.869   1.897  51.580  1.00  0.00     0.036 A 
HETATM    4  C11 UNL     1      23.957   0.938  52.538  1.00  0.00     0.059 A 
HETATM    5  C12 UNL     1      24.920   0.067  53.011  1.00  0.00     0.161 A 
HETATM    6  N3  UNL     1      24.614  -0.768  54.021  1.00  0.00    -0.044 NA
HETATM    7  C18 UNL     1      23.402  -0.810  54.611  1.00  0.00     0.724 A 
HETATM    8  N5  UNL     1      22.484   0.041  54.137  1.00  0.00    -0.044 NA
HETATM    9  C19 UNL     1      22.721   0.888  53.146  1.00  0.00     0.163 A 
ENDROOT
BRANCH   1  10
HETATM   10  C8  UNL     1      20.493   2.162  52.823  1.00  0.00     0.171 C 
BRANCH  10  11
HETATM   11  C7  UNL     1      19.543   1.531  51.874  1.00  0.00    -0.004 A 
HETATM   12  C5  UNL     1      18.938   0.300  51.935  1.00  0.00     0.076 A 
HETATM   13  C4  UNL     1      18.080  -0.128  50.954  1.00  0.00     0.040 A 
HETATM   14  C3  UNL     1      17.771   0.643  49.853  1.00  0.00     0.039 A 
HETATM   15  C2  UNL     1      18.358   1.886  49.755  1.00  0.00     0.069 A 
HETATM   16  C20 UNL     1      19.216   2.295  50.748  1.00  0.00     0.048 A 
BRANCH  12  17
HETATM   17  O2  UNL     1      19.266  -0.453  53.054  1.00  0.00    -0.355 OA
HETATM   18  C6  UNL     1      18.355  -1.452  53.453  1.00  0.00     0.210 C 
ENDBRANCH  12  17
BRANCH  15  19
HETATM   19  O1  UNL     1      18.066   2.685  48.657  1.00  0.00    -0.356 OA
HETATM   20  C1  UNL     1      19.121   3.106  47.833  1.00  0.00     0.210 C 
ENDBRANCH  15  19
ENDBRANCH  10  11
ENDBRANCH   1  10
BRANCH   5  21
HETATM   21  N2  UNL     1      26.203   0.071  52.431  1.00  0.00    -0.342 N 
HETATM   22  H13 UNL     1      26.372  -0.359  51.497  1.00  0.00     0.167 HD
BRANCH  21  23
HETATM   23  C13 UNL     1      27.299   0.678  53.135  1.00  0.00     0.029 A 
HETATM   24  C14 UNL     1      27.567   1.950  52.835  1.00  0.00     0.026 A 
HETATM   25  C15 UNL     1      28.694   2.457  53.608  1.00  0.00    -0.001 A 
HETATM   26  C16 UNL     1      29.081   1.445  54.370  1.00  0.00    -0.005 A 
HETATM   27  C17 UNL     1      28.256   0.204  54.170  1.00  0.00     0.130 A 
HETATM   28 BR1  UNL     1      29.449  -1.162  53.443  1.00  0.00    -0.080 Br
ENDBRANCH  21  23
ENDBRANCH   5  21
BRANCH   7  29
HETATM   29  N4  UNL     1      23.137  -1.719  55.678  1.00  0.00    -0.231 N 
HETATM   30  H18 UNL     1      23.762  -2.350  56.220  1.00  0.00     0.174 HD
HETATM   31  H19 UNL     1      22.197  -1.897  56.102  1.00  0.00     0.174 HD
ENDBRANCH   7  29
TORSDOF 7
ENDMDL
MODEL 3
REMARK VINA RESULT:      -7.6      4.641      8.016
REMARK  7 active torsions:
REMARK  status: ('A' for Active; 'I' for Inactive)
REMARK    1  A    between atoms: O1_2  and  C2_3 
REMARK    2  A    between atoms: C5_6  and  O2_7 
REMARK    3  A    between atoms: C7_9  and  C8_10 
REMARK    4  A    between atoms: C8_10  and  N1_11 
REMARK    5  A    between atoms: C12_15  and  N2_16 
REMARK    6  A    between atoms: N2_16  and  C13_17 
REMARK    7  A    between atoms: C18_24  and  N4_25 
ROOT
HETATM    1  N1  UNL     1      23.741   2.761  51.629  1.00  0.00    -0.336 N 
HETATM    2  C9  UNL     1      22.713   3.303  52.334  1.00  0.00     0.094 A 
HETATM    3  C10 UNL     1      22.735   4.690  52.222  1.00  0.00     0.036 A 
HETATM    4  C11 UNL     1      23.798   5.001  51.434  1.00  0.00     0.059 A 
HETATM    5  C12 UNL     1      24.384   6.148  50.933  1.00  0.00     0.161 A 
HETATM    6  N3  UNL     1      25.476   6.042  50.155  1.00  0.00    -0.044 NA
HETATM    7  C18 UNL     1      26.046   4.866  49.825  1.00  0.00     0.724 A 
HETATM    8  N5  UNL     1      25.462   3.767  50.320  1.00  0.00    -0.044 NA
HETATM    9  C19 UNL     1      24.386   3.801  51.092  1.00  0.00     0.163 A 
ENDROOT
BRANCH   1  10
HETATM   10  C8  UNL     1      23.880   1.322  51.625  1.00  0.00     0.171 C 
BRANCH  10  11
HETATM   11  C7  UNL     1      24.656   0.796  52.776  1.00  0.00    -0.004 A 
HETATM   12  C5  UNL     1      24.369  -0.253  53.613  1.00  0.00     0.076 A 
HETATM   13  C4  UNL     1      25.208  -0.602  54.641  1.00  0.00     0.040 A 
HETATM   14  C3  UNL     1      26.385   0.071  54.897  1.00  0.00     0.039 A 
HETATM   15  C2  UNL     1      26.709   1.131  54.077  1.00  0.00     0.069 A 
HETATM   16  C20 UNL     1      25.854   1.464  53.054  1.00  0.00     0.048 A 
BRANCH  12  17
HETATM   17  O2  UNL     1      23.181  -0.913  53.332  1.00  0.00    -0.355 OA
HETATM   18  C6  UNL     1      22.236  -1.021  54.373  1.00  0.00     0.210 C 
ENDBRANCH  12  17
BRANCH  15  19
HETATM   19  O1  UNL     1      27.887   1.828  54.311  1.00  0.00    -0.356 OA
HETATM   20  C1  UNL     1      29.094   1.114  54.350  1.00  0.00     0.210 C 
ENDBRANCH  15  19
ENDBRANCH  10  11
ENDBRANCH   1  10
BRANCH   5  21
HETATM   21  N2  UNL     1      23.830   7.403  51.249  1.00  0.00    -0.342 N 
HETATM   22  H13 UNL     1      24.127   7.924  52.101  1.00  0.00     0.167 HD
BRANCH  21  23
HETATM   23  C13 UNL     1      22.839   7.980  50.382  1.00  0.00     0.029 A 
HETATM   24  C14 UNL     1      21.565   7.731  50.687  1.00  0.00     0.026 A 
HETATM   25  C15 UNL     1      20.653   8.365  49.742  1.00  0.00    -0.001 A 
HETATM   26  C16 UNL     1      21.431   8.992  48.872  1.00  0.00    -0.005 A 
HETATM   27  C17 UNL     1      22.896   8.831  49.163  1.00  0.00     0.130 A 
HETATM   28 BR1  UNL     1      23.671   7.847  47.662  1.00  0.00    -0.080 Br
ENDBRANCH  21  23
ENDBRANCH   5  21
BRANCH   7  29
HETATM   29  N4  UNL     1      27.204   4.819  48.994  1.00  0.00    -0.231 N 
HETATM   30  H18 UNL     1      27.356   5.097  48.003  1.00  0.00     0.174 HD
HETATM   31  H19 UNL     1      28.145   4.466  49.286  1.00  0.00     0.174 HD
ENDBRANCH   7  29
TORSDOF 7
ENDMDL
MODEL 4
REMARK VINA RESULT:      -7.5      1.317      3.430
REMARK  7 active torsions:
REMARK  status: ('A' for Active; 'I' for Inactive)
REMARK    1  A    between atoms: O1_2  and  C2_3 
REMARK    2  A    between atoms: C5_6  and  O2_7 
REMARK    3  A    between atoms: C7_9  and  C8_10 
REMARK    4  A    between atoms: C8_10  and  N1_11 
REMARK    5  A    between atoms: C12_15  and  N2_16 
REMARK    6  A    between atoms: N2_16  and  C13_17 
REMARK    7  A    between atoms: C18_24  and  N4_25 
ROOT
HETATM    1  N1  UNL     1      22.056   0.942  53.190  1.00  0.00    -0.336 N 
HETATM    2  C9  UNL     1      22.577  -0.300  53.378  1.00  0.00     0.094 A 
HETATM    3  C10 UNL     1      23.919  -0.316  53.010  1.00  0.00     0.036 A 
HETATM    4  C11 UNL     1      24.223   0.939  52.588  1.00  0.00     0.059 A 
HETATM    5  C12 UNL     1      25.334   1.601  52.100  1.00  0.00     0.161 A 
HETATM    6  N3  UNL     1      25.235   2.903  51.776  1.00  0.00    -0.044 NA
HETATM    7  C18 UNL     1      24.099   3.618  51.900  1.00  0.00     0.724 A 
HETATM    8  N5  UNL     1      23.035   2.958  52.376  1.00  0.00    -0.044 NA
HETATM    9  C19 UNL     1      23.065   1.677  52.713  1.00  0.00     0.163 A 
ENDROOT
BRANCH   1  10
HETATM   10  C8  UNL     1      20.665   1.154  53.522  1.00  0.00     0.171 C 
BRANCH  10  11
HETATM   11  C7  UNL     1      19.731   0.813  52.420  1.00  0.00    -0.004 A 
HETATM   12  C5  UNL     1      18.774  -0.168  52.362  1.00  0.00     0.076 A 
HETATM   13  C4  UNL     1      17.993  -0.345  51.247  1.00  0.00     0.040 A 
HETATM   14  C3  UNL     1      18.118   0.444  50.124  1.00  0.00     0.039 A 
HETATM   15  C2  UNL     1      19.069   1.442  50.143  1.00  0.00     0.069 A 
HETATM   16  C20 UNL     1      19.842   1.601  51.269  1.00  0.00     0.048 A 
BRANCH  12  17
HETATM   17  O2  UNL     1      18.669  -0.946  53.507  1.00  0.00    -0.355 OA
HETATM   18  C6  UNL     1      17.836  -2.082  53.446  1.00  0.00     0.210 C 
ENDBRANCH  12  17
BRANCH  15  19
HETATM   19  O1  UNL     1      19.219   2.252  49.025  1.00  0.00    -0.356 OA
HETATM   20  C1  UNL     1      18.914   3.616  49.138  1.00  0.00     0.210 C 
ENDBRANCH  15  19
ENDBRANCH  10  11
ENDBRANCH   1  10
BRANCH   5  21
HETATM   21  N2  UNL     1      26.547   0.901  51.949  1.00  0.00    -0.342 N 
HETATM   22  H13 UNL     1      26.749   0.356  51.085  1.00  0.00     0.167 HD
BRANCH  21  23
HETATM   23  C13 UNL     1      27.523   0.937  53.003  1.00  0.00     0.029 A 
HETATM   24  C14 UNL     1      28.208   2.074  53.140  1.00  0.00     0.026 A 
HETATM   25  C15 UNL     1      29.166   1.994  54.236  1.00  0.00    -0.001 A 
HETATM   26  C16 UNL     1      29.024   0.776  54.738  1.00  0.00    -0.005 A 
HETATM   27  C17 UNL     1      27.978  -0.038  54.030  1.00  0.00     0.130 A 
HETATM   28 BR1  UNL     1      28.898  -1.547  53.197  1.00  0.00    -0.080 Br
ENDBRANCH  21  23
ENDBRANCH   5  21
BRANCH   7  29
HETATM   29  N4  UNL     1      24.056   4.997  51.541  1.00  0.00    -0.231 N 
HETATM   30  H18 UNL     1      24.046   5.470  50.614  1.00  0.00     0.174 HD
HETATM   31  H19 UNL     1      24.027   5.798  52.214  1.00  0.00     0.174 HD
ENDBRANCH   7  29
TORSDOF 7
ENDMDL
MODEL 5
REMARK VINA RESULT:      -7.5      4.152      6.889
REMARK  7 active torsions:
REMARK  status: ('A' for Active; 'I' for Inactive)
REMARK    1  A    between atoms: O1_2  and  C2_3 
REMARK    2  A    between atoms: C5_6  and  O2_7 
REMARK    3  A    between atoms: C7_9  and  C8_10 
REMARK    4  A    between atoms: C8_10  and  N1_11 
REMARK    5  A    between atoms: C12_15  and  N2_16 
REMARK    6  A    between atoms: N2_16  and  C13_17 
REMARK    7  A    between atoms: C18_24  and  N4_25 
ROOT
HETATM    1  N1  UNL     1      22.394   2.347  51.611  1.00  0.00    -0.336 N 
HETATM    2  C9  UNL     1      21.479   3.137  52.235  1.00  0.00     0.094 A 
HETATM    3  C10 UNL     1      21.890   4.466  52.195  1.00  0.00     0.036 A 
HETATM    4  C11 UNL     1      23.078   4.488  51.535  1.00  0.00     0.059 A 
HETATM    5  C12 UNL     1      24.006   5.439  51.154  1.00  0.00     0.161 A 
HETATM    6  N3  UNL     1      25.108   5.053  50.486  1.00  0.00    -0.044 NA
HETATM    7  C18 UNL     1      25.369   3.772  50.157  1.00  0.00     0.724 A 
HETATM    8  N5  UNL     1      24.457   2.867  50.535  1.00  0.00    -0.044 NA
HETATM    9  C19 UNL     1      23.352   3.180  51.194  1.00  0.00     0.163 A 
ENDROOT
BRANCH   1  10
HETATM   10  C8  UNL     1      22.136   0.926  51.550  1.00  0.00     0.171 C 
BRANCH  10  11
HETATM   11  C7  UNL     1      22.394   0.218  52.828  1.00  0.00    -0.004 A 
HETATM   12  C5  UNL     1      21.507  -0.188  53.793  1.00  0.00     0.076 A 
HETATM   13  C4  UNL     1      21.926  -0.834  54.929  1.00  0.00     0.040 A 
HETATM   14  C3  UNL     1      23.254  -1.116  55.172  1.00  0.00     0.039 A 
HETATM   15  C2  UNL     1      24.177  -0.725  54.226  1.00  0.00     0.069 A 
HETATM   16  C20 UNL     1      23.735  -0.078  53.096  1.00  0.00     0.048 A 
BRANCH  12  17
HETATM   17  O2  UNL     1      20.178   0.108  53.522  1.00  0.00    -0.355 OA
HETATM   18  C6  UNL     1      19.288  -0.977  53.377  1.00  0.00     0.210 C 
ENDBRANCH  12  17
BRANCH  15  19
HETATM   19  O1  UNL     1      25.521  -0.994  54.443  1.00  0.00    -0.356 OA
HETATM   20  C1  UNL     1      26.329   0.013  54.991  1.00  0.00     0.210 C 
ENDBRANCH  15  19
ENDBRANCH  10  11
ENDBRANCH   1  10
BRANCH   5  21
HETATM   21  N2  UNL     1      23.782   6.792  51.474  1.00  0.00    -0.342 N 
HETATM   22  H13 UNL     1      24.042   7.174  52.408  1.00  0.00     0.167 HD
BRANCH  21  23
HETATM   23  C13 UNL     1      23.187   7.663  50.498  1.00  0.00     0.029 A 
HETATM   24  C14 UNL     1      21.854   7.704  50.471  1.00  0.00     0.026 A 
HETATM   25  C15 UNL     1      21.366   8.618  49.446  1.00  0.00    -0.001 A 
HETATM   26  C16 UNL     1      22.452   9.112  48.871  1.00  0.00    -0.005 A 
HETATM   27  C17 UNL     1      23.728   8.577  49.457  1.00  0.00     0.130 A 
HETATM   28 BR1  UNL     1      24.626   7.569  48.044  1.00  0.00    -0.080 Br
ENDBRANCH  21  23
ENDBRANCH   5  21
BRANCH   7  29
HETATM   29  N4  UNL     1      26.556   3.424  49.446  1.00  0.00    -0.231 N 
HETATM   30  H18 UNL     1      27.332   4.006  49.070  1.00  0.00     0.174 HD
HETATM   31  H19 UNL     1      26.839   2.452  49.179  1.00  0.00     0.174 HD
ENDBRANCH   7  29
TORSDOF 7
ENDMDL
MODEL 6
REMARK VINA RESULT:      -7.5      3.421      4.469
REMARK  7 active torsions:
REMARK  status: ('A' for Active; 'I' for Inactive)
REMARK    1  A    between atoms: O1_2  and  C2_3 
REMARK    2  A    between atoms: C5_6  and  O2_7 
REMARK    3  A    between atoms: C7_9  and  C8_10 
REMARK    4  A    between atoms: C8_10  and  N1_11 
REMARK    5  A    between atoms: C12_15  and  N2_16 
REMARK    6  A    between atoms: N2_16  and  C13_17 
REMARK    7  A    between atoms: C18_24  and  N4_25 
ROOT
HETATM    1  N1  UNL     1      21.981   3.087  51.752  1.00  0.00    -0.336 N 
HETATM    2  C9  UNL     1      21.737   3.345  50.440  1.00  0.00     0.094 A 
HETATM    3  C10 UNL     1      22.933   3.393  49.731  1.00  0.00     0.036 A 
HETATM    4  C11 UNL     1      23.928   3.160  50.627  1.00  0.00     0.059 A 
HETATM    5  C12 UNL     1      25.307   3.071  50.608  1.00  0.00     0.161 A 
HETATM    6  N3  UNL     1      25.966   2.818  51.753  1.00  0.00    -0.044 NA
HETATM    7  C18 UNL     1      25.356   2.641  52.941  1.00  0.00     0.724 A 
HETATM    8  N5  UNL     1      24.019   2.731  52.938  1.00  0.00    -0.044 NA
HETATM    9  C19 UNL     1      23.310   2.978  51.847  1.00  0.00     0.163 A 
ENDROOT
BRANCH   1  10
HETATM   10  C8  UNL     1      20.852   2.997  52.650  1.00  0.00     0.171 C 
BRANCH  10  11
HETATM   11  C7  UNL     1      20.303   1.625  52.781  1.00  0.00    -0.004 A 
HETATM   12  C5  UNL     1      19.250   1.042  52.121  1.00  0.00     0.076 A 
HETATM   13  C4  UNL     1      18.871  -0.253  52.373  1.00  0.00     0.040 A 
HETATM   14  C3  UNL     1      19.519  -1.046  53.297  1.00  0.00     0.039 A 
HETATM   15  C2  UNL     1      20.582  -0.497  53.981  1.00  0.00     0.069 A 
HETATM   16  C20 UNL     1      20.944   0.802  53.714  1.00  0.00     0.048 A 
BRANCH  12  17
HETATM   17  O2  UNL     1      18.618   1.862  51.196  1.00  0.00    -0.355 OA
HETATM   18  C6  UNL     1      17.213   1.963  51.271  1.00  0.00     0.210 C 
ENDBRANCH  12  17
BRANCH  15  19
HETATM   19  O1  UNL     1      21.253  -1.271  54.918  1.00  0.00    -0.356 OA
HETATM   20  C1  UNL     1      22.650  -1.174  54.994  1.00  0.00     0.210 C 
ENDBRANCH  15  19
ENDBRANCH  10  11
ENDBRANCH   1  10
BRANCH   5  21
HETATM   21  N2  UNL     1      25.995   3.249  49.392  1.00  0.00    -0.342 N 
HETATM   22  H13 UNL     1      26.214   2.439  48.775  1.00  0.00     0.167 HD
BRANCH  21  23
HETATM   23  C13 UNL     1      26.402   4.568  48.993  1.00  0.00     0.029 A 
HETATM   24  C14 UNL     1      27.700   4.737  48.735  1.00  0.00     0.026 A 
HETATM   25  C15 UNL     1      27.994   6.109  48.341  1.00  0.00    -0.001 A 
HETATM   26  C16 UNL     1      26.831   6.742  48.377  1.00  0.00    -0.005 A 
HETATM   27  C17 UNL     1      25.688   5.857  48.789  1.00  0.00     0.130 A 
HETATM   28 BR1  UNL     1      25.010   6.553  50.484  1.00  0.00    -0.080 Br
ENDBRANCH  21  23
ENDBRANCH   5  21
BRANCH   7  29
HETATM   29  N4  UNL     1      26.110   2.374  54.122  1.00  0.00    -0.231 N 
HETATM   30  H18 UNL     1      26.021   1.633  54.846  1.00  0.00     0.174 HD
HETATM   31  H19 UNL     1      26.930   2.933  54.456  1.00  0.00     0.174 HD
ENDBRANCH   7  29
TORSDOF 7
ENDMDL
MODEL 7
REMARK VINA RESULT:      -7.4      5.104      7.468
REMARK  7 active torsions:
REMARK  status: ('A' for Active; 'I' for Inactive)
REMARK    1  A    between atoms: O1_2  and  C2_3 
REMARK    2  A    between atoms: C5_6  and  O2_7 
REMARK    3  A    between atoms: C7_9  and  C8_10 
REMARK    4  A    between atoms: C8_10  and  N1_11 
REMARK    5  A    between atoms: C12_15  and  N2_16 
REMARK    6  A    between atoms: N2_16  and  C13_17 
REMARK    7  A    between atoms: C18_24  and  N4_25 
ROOT
HETATM    1  N1  UNL     1      24.647   3.462  51.319  1.00  0.00    -0.336 N 
HETATM    2  C9  UNL     1      25.349   2.661  50.473  1.00  0.00     0.094 A 
HETATM    3  C10 UNL     1      25.955   3.427  49.482  1.00  0.00     0.036 A 
HETATM    4  C11 UNL     1      25.616   4.720  49.726  1.00  0.00     0.059 A 
HETATM    5  C12 UNL     1      25.861   5.955  49.156  1.00  0.00     0.161 A 
HETATM    6  N3  UNL     1      25.324   7.056  49.712  1.00  0.00    -0.044 NA
HETATM    7  C18 UNL     1      24.546   7.030  50.813  1.00  0.00     0.724 A 
HETATM    8  N5  UNL     1      24.322   5.824  51.350  1.00  0.00    -0.044 NA
HETATM    9  C19 UNL     1      24.820   4.702  50.852  1.00  0.00     0.163 A 
ENDROOT
BRANCH   1  10
HETATM   10  C8  UNL     1      23.948   2.841  52.421  1.00  0.00     0.171 C 
BRANCH  10  11
HETATM   11  C7  UNL     1      24.681   1.701  53.026  1.00  0.00    -0.004 A 
HETATM   12  C5  UNL     1      24.311   0.384  53.130  1.00  0.00     0.076 A 
HETATM   13  C4  UNL     1      25.121  -0.545  53.732  1.00  0.00     0.040 A 
HETATM   14  C3  UNL     1      26.350  -0.219  54.267  1.00  0.00     0.039 A 
HETATM   15  C2  UNL     1      26.758   1.095  54.182  1.00  0.00     0.069 A 
HETATM   16  C20 UNL     1      25.930   2.010  53.576  1.00  0.00     0.048 A 
BRANCH  12  17
HETATM   17  O2  UNL     1      23.071   0.084  52.582  1.00  0.00    -0.355 OA
HETATM   18  C6  UNL     1      22.056  -0.337  53.466  1.00  0.00     0.210 C 
ENDBRANCH  12  17
BRANCH  15  19
HETATM   19  O1  UNL     1      27.990   1.454  54.712  1.00  0.00    -0.356 OA
HETATM   20  C1  UNL     1      29.134   0.763  54.284  1.00  0.00     0.210 C 
ENDBRANCH  15  19
ENDBRANCH  10  11
ENDBRANCH   1  10
BRANCH   5  21
HETATM   21  N2  UNL     1      26.666   6.038  48.003  1.00  0.00    -0.342 N 
HETATM   22  H13 UNL     1      26.282   5.814  47.061  1.00  0.00     0.167 HD
BRANCH  21  23
HETATM   23  C13 UNL     1      28.041   6.439  48.125  1.00  0.00     0.029 A 
HETATM   24  C14 UNL     1      28.917   5.479  48.425  1.00  0.00     0.026 A 
HETATM   25  C15 UNL     1      30.274   6.001  48.522  1.00  0.00    -0.001 A 
HETATM   26  C16 UNL     1      30.169   7.297  48.270  1.00  0.00    -0.005 A 
HETATM   27  C17 UNL     1      28.759   7.735  47.990  1.00  0.00     0.130 A 
HETATM   28 BR1  UNL     1      28.249   8.966  49.418  1.00  0.00    -0.080 Br
ENDBRANCH  21  23
ENDBRANCH   5  21
BRANCH   7  29
HETATM   29  N4  UNL     1      24.005   8.232  51.358  1.00  0.00    -0.231 N 
HETATM   30  H18 UNL     1      23.853   8.538  52.340  1.00  0.00     0.174 HD
HETATM   31  H19 UNL     1      23.653   9.045  50.801  1.00  0.00     0.174 HD
ENDBRANCH   7  29
TORSDOF 7
ENDMDL
MODEL 8
REMARK VINA RESULT:      -7.3      3.914      6.955
REMARK  7 active torsions:
REMARK  status: ('A' for Active; 'I' for Inactive)
REMARK    1  A    between atoms: O1_2  and  C2_3 
REMARK    2  A    between atoms: C5_6  and  O2_7 
REMARK    3  A    between atoms: C7_9  and  C8_10 
REMARK    4  A    between atoms: C8_10  and  N1_11 
REMARK    5  A    between atoms: C12_15  and  N2_16 
REMARK    6  A    between atoms: N2_16  and  C13_17 
REMARK    7  A    between atoms: C18_24  and  N4_25 
ROOT
HETATM    1  N1  UNL     1      23.965   2.060  52.073  1.00  0.00    -0.336 N 
HETATM    2  C9  UNL     1      24.451   2.963  52.965  1.00  0.00     0.094 A 
HETATM    3  C10 UNL     1      23.791   4.180  52.821  1.00  0.00     0.036 A 
HETATM    4  C11 UNL     1      22.885   4.017  51.822  1.00  0.00     0.059 A 
HETATM    5  C12 UNL     1      21.933   4.789  51.183  1.00  0.00     0.161 A 
HETATM    6  N3  UNL     1      21.201   4.246  50.194  1.00  0.00    -0.044 NA
HETATM    7  C18 UNL     1      21.339   2.971  49.778  1.00  0.00     0.724 A 
HETATM    8  N5  UNL     1      22.265   2.240  50.410  1.00  0.00    -0.044 NA
HETATM    9  C19 UNL     1      23.019   2.713  51.391  1.00  0.00     0.163 A 
ENDROOT
BRANCH   1  10
HETATM   10  C8  UNL     1      24.531   0.730  52.074  1.00  0.00     0.171 C 
BRANCH  10  11
HETATM   11  C7  UNL     1      24.269  -0.028  53.323  1.00  0.00    -0.004 A 
HETATM   12  C5  UNL     1      25.159  -0.548  54.229  1.00  0.00     0.076 A 
HETATM   13  C4  UNL     1      24.735  -1.233  55.340  1.00  0.00     0.040 A 
HETATM   14  C3  UNL     1      23.400  -1.440  55.617  1.00  0.00     0.039 A 
HETATM   15  C2  UNL     1      22.474  -0.933  54.731  1.00  0.00     0.069 A 
HETATM   16  C20 UNL     1      22.920  -0.251  53.623  1.00  0.00     0.048 A 
BRANCH  12  17
HETATM   17  O2  UNL     1      26.495  -0.323  53.927  1.00  0.00    -0.355 OA
HETATM   18  C6  UNL     1      27.281   0.325  54.902  1.00  0.00     0.210 C 
ENDBRANCH  12  17
BRANCH  15  19
HETATM   19  O1  UNL     1      21.123  -1.127  54.982  1.00  0.00    -0.356 OA
HETATM   20  C1  UNL     1      20.253  -1.291  53.894  1.00  0.00     0.210 C 
ENDBRANCH  15  19
ENDBRANCH  10  11
ENDBRANCH   1  10
BRANCH   5  21
HETATM   21  N2  UNL     1      21.749   6.128  51.578  1.00  0.00    -0.342 N 
HETATM   22  H13 UNL     1      21.345   6.364  52.508  1.00  0.00     0.167 HD
BRANCH  21  23
HETATM   23  C13 UNL     1      22.126   7.189  50.685  1.00  0.00     0.029 A 
HETATM   24  C14 UNL     1      21.130   7.897  50.148  1.00  0.00     0.026 A 
HETATM   25  C15 UNL     1      21.630   8.941  49.263  1.00  0.00    -0.001 A 
HETATM   26  C16 UNL     1      22.950   8.826  49.295  1.00  0.00    -0.005 A 
HETATM   27  C17 UNL     1      23.426   7.716  50.189  1.00  0.00     0.130 A 
HETATM   28 BR1  UNL     1      24.317   6.406  49.046  1.00  0.00    -0.080 Br
ENDBRANCH  21  23
ENDBRANCH   5  21
BRANCH   7  29
HETATM   29  N4  UNL     1      20.531   2.452  48.723  1.00  0.00    -0.231 N 
HETATM   30  H18 UNL     1      19.894   1.631  48.680  1.00  0.00     0.174 HD
HETATM   31  H19 UNL     1      20.459   2.856  47.760  1.00  0.00     0.174 HD
ENDBRANCH   7  29
TORSDOF 7
ENDMDL
MODEL 9
REMARK VINA RESULT:      -7.2      4.128      6.507
REMARK  7 active torsions:
REMARK  status: ('A' for Active; 'I' for Inactive)
REMARK    1  A    between atoms: O1_2  and  C2_3 
REMARK    2  A    between atoms: C5_6  and  O2_7 
REMARK    3  A    between atoms: C7_9  and  C8_10 
REMARK    4  A    between atoms: C8_10  and  N1_11 
REMARK    5  A    between atoms: C12_15  and  N2_16 
REMARK    6  A    between atoms: N2_16  and  C13_17 
REMARK    7  A    between atoms: C18_24  and  N4_25 
ROOT
HETATM    1  N1  UNL     1      22.881   1.742  51.795  1.00  0.00    -0.336 N 
HETATM    2  C9  UNL     1      23.494   2.478  52.760  1.00  0.00     0.094 A 
HETATM    3  C10 UNL     1      24.000   3.654  52.215  1.00  0.00     0.036 A 
HETATM    4  C11 UNL     1      23.690   3.637  50.892  1.00  0.00     0.059 A 
HETATM    5  C12 UNL     1      23.882   4.458  49.797  1.00  0.00     0.161 A 
HETATM    6  N3  UNL     1      23.408   4.077  48.597  1.00  0.00    -0.044 NA
HETATM    7  C18 UNL     1      22.744   2.922  48.391  1.00  0.00     0.724 A 
HETATM    8  N5  UNL     1      22.568   2.141  49.465  1.00  0.00    -0.044 NA
HETATM    9  C19 UNL     1      23.009   2.458  50.673  1.00  0.00     0.163 A 
ENDROOT
BRANCH   1  10
HETATM   10  C8  UNL     1      22.290   0.479  52.175  1.00  0.00     0.171 C 
BRANCH  10  11
HETATM   11  C7  UNL     1      22.947  -0.160  53.342  1.00  0.00    -0.004 A 
HETATM   12  C5  UNL     1      22.389  -0.647  54.497  1.00  0.00     0.076 A 
HETATM   13  C4  UNL     1      23.157  -1.208  55.486  1.00  0.00     0.040 A 
HETATM   14  C3  UNL     1      24.528  -1.319  55.384  1.00  0.00     0.039 A 
HETATM   15  C2  UNL     1      25.127  -0.841  54.238  1.00  0.00     0.069 A 
HETATM   16  C20 UNL     1      24.339  -0.281  53.261  1.00  0.00     0.048 A 
BRANCH  12  17
HETATM   17  O2  UNL     1      21.008  -0.524  54.572  1.00  0.00    -0.355 OA
HETATM   18  C6  UNL     1      20.234  -1.627  54.153  1.00  0.00     0.210 C 
ENDBRANCH  12  17
BRANCH  15  19
HETATM   19  O1  UNL     1      26.506  -0.937  54.108  1.00  0.00    -0.356 OA
HETATM   20  C1  UNL     1      27.048  -1.127  52.828  1.00  0.00     0.210 C 
ENDBRANCH  15  19
ENDBRANCH  10  11
ENDBRANCH   1  10
BRANCH   5  21
HETATM   21  N2  UNL     1      24.572   5.675  49.957  1.00  0.00    -0.342 N 
HETATM   22  H13 UNL     1      24.192   6.433  50.563  1.00  0.00     0.167 HD
BRANCH  21  23
HETATM   23  C13 UNL     1      25.820   5.879  49.275  1.00  0.00     0.029 A 
HETATM   24  C14 UNL     1      26.656   4.840  49.241  1.00  0.00     0.026 A 
HETATM   25  C15 UNL     1      27.885   5.163  48.526  1.00  0.00    -0.001 A 
HETATM   26  C16 UNL     1      27.746   6.424  48.142  1.00  0.00    -0.005 A 
HETATM   27  C17 UNL     1      26.436   7.030  48.562  1.00  0.00     0.130 A 
HETATM   28 BR1  UNL     1      26.852   8.479  49.806  1.00  0.00    -0.080 Br
ENDBRANCH  21  23
ENDBRANCH   5  21
BRANCH   7  29
HETATM   29  N4  UNL     1      22.264   2.572  47.094  1.00  0.00    -0.231 N 
HETATM   30  H18 UNL     1      21.737   1.744  46.753  1.00  0.00     0.174 HD
HETATM   31  H19 UNL     1      22.385   3.148  46.228  1.00  0.00     0.174 HD
ENDBRANCH   7  29
TORSDOF 7
ENDMDL
