MODEL 1
REMARK VINA RESULT:      -6.9      0.000      0.000
REMARK  7 active torsions:
REMARK  status: ('A' for Active; 'I' for Inactive)
REMARK       I    between atoms: C1_2  and  N1_3 
REMARK    1  A    between atoms: C1_2  and  C9_11 
REMARK    2  A    between atoms: N1_3  and  C2_4 
REMARK    3  A    between atoms: C2_4  and  C3_5 
REMARK    4  A    between atoms: C9_11  and  C10_12 
REMARK    5  A    between atoms: C9_11  and  N2_14 
REMARK    6  A    between atoms: C10_12  and  S1_13 
REMARK       I    between atoms: N2_14  and  C11_15 
REMARK    7  A    between atoms: C11_15  and  C12_17 
ROOT
HETATM    1  C9  UNL     1      26.384   2.491  51.859  1.00  0.00     0.185 C 
ENDROOT
BRANCH   1   2
HETATM    2  C1  UNL     1      24.942   2.389  52.158  1.00  0.00     0.241 C 
HETATM    3  O1  UNL     1      24.606   3.147  53.114  1.00  0.00    -0.271 OA
HETATM    4  N1  UNL     1      23.964   1.582  51.525  1.00  0.00    -0.355 N 
HETATM    5  H1  UNL     1      24.391   1.007  50.753  1.00  0.00     0.162 HD
BRANCH   4   6
HETATM    6  C2  UNL     1      22.578   1.533  51.868  1.00  0.00     0.161 C 
BRANCH   6   7
HETATM    7  C3  UNL     1      22.199   0.475  52.817  1.00  0.00    -0.041 A 
HETATM    8  C4  UNL     1      23.017  -0.184  53.697  1.00  0.00     0.009 A 
HETATM    9  C5  UNL     1      22.610  -1.167  54.562  1.00  0.00     0.001 A 
HETATM   10  C6  UNL     1      21.266  -1.540  54.565  1.00  0.00     0.000 A 
HETATM   11  C7  UNL     1      20.395  -0.912  53.702  1.00  0.00     0.001 A 
HETATM   12  C8  UNL     1      20.874   0.063  52.862  1.00  0.00     0.009 A 
ENDBRANCH   6   7
ENDBRANCH   4   6
ENDBRANCH   1   2
BRANCH   1  13
HETATM   13  C10 UNL     1      26.495   2.772  50.381  1.00  0.00     0.105 C 
BRANCH  13  14
HETATM   14  S1  UNL     1      25.768   4.366  49.914  1.00  0.00    -0.180 SA
HETATM   15  H12 UNL     1      26.088   5.284  50.930  1.00  0.00     0.101 HD
ENDBRANCH  13  14
ENDBRANCH   1  13
BRANCH   1  16
HETATM   16  N2  UNL     1      27.175   1.376  52.293  1.00  0.00    -0.340 N 
HETATM   17  C11 UNL     1      28.045   1.390  53.415  1.00  0.00     0.326 C 
HETATM   18  O2  UNL     1      28.127   2.458  54.073  1.00  0.00    -0.263 OA
HETATM   19  H13 UNL     1      27.104   0.472  51.734  1.00  0.00     0.163 HD
BRANCH  17  20
HETATM   20  C12 UNL     1      28.838   0.220  53.823  1.00  0.00     0.472 C 
HETATM   21  F1  UNL     1      30.171   0.308  53.437  1.00  0.00    -0.162 F 
HETATM   22  F2  UNL     1      28.361  -0.980  53.319  1.00  0.00    -0.162 F 
HETATM   23  F3  UNL     1      28.817   0.090  55.214  1.00  0.00    -0.162 F 
ENDBRANCH  17  20
ENDBRANCH   1  16
TORSDOF 7
ENDMDL
MODEL 2
REMARK VINA RESULT:      -6.8      2.319      3.027
REMARK  7 active torsions:
REMARK  status: ('A' for Active; 'I' for Inactive)
REMARK       I    between atoms: C1_2  and  N1_3 
REMARK    1  A    between atoms: C1_2  and  C9_11 
REMARK    2  A    between atoms: N1_3  and  C2_4 
REMARK    3  A    between atoms: C2_4  and  C3_5 
REMARK    4  A    between atoms: C9_11  and  C10_12 
REMARK    5  A    between atoms: C9_11  and  N2_14 
REMARK    6  A    between atoms: C10_12  and  S1_13 
REMARK       I    between atoms: N2_14  and  C11_15 
REMARK    7  A    between atoms: C11_15  and  C12_17 
ROOT
HETATM    1  C9  UNL     1      26.239   0.216  54.425  1.00  0.00     0.185 C 
ENDROOT
BRANCH   1   2
HETATM    2  C1  UNL     1      24.952  -0.485  54.604  1.00  0.00     0.241 C 
HETATM    3  O1  UNL     1      24.980  -1.270  55.596  1.00  0.00    -0.271 OA
HETATM    4  N1  UNL     1      23.770  -0.372  53.830  1.00  0.00    -0.355 N 
HETATM    5  H1  UNL     1      23.898   0.315  53.043  1.00  0.00     0.162 HD
BRANCH   4   6
HETATM    6  C2  UNL     1      22.554  -1.084  54.063  1.00  0.00     0.161 C 
BRANCH   6   7
HETATM    7  C3  UNL     1      21.404  -0.651  53.254  1.00  0.00    -0.041 A 
HETATM    8  C4  UNL     1      20.075  -0.790  53.559  1.00  0.00     0.009 A 
HETATM    9  C5  UNL     1      19.040  -0.367  52.766  1.00  0.00     0.001 A 
HETATM   10  C6  UNL     1      19.336   0.253  51.553  1.00  0.00     0.000 A 
HETATM   11  C7  UNL     1      20.655   0.421  51.192  1.00  0.00     0.001 A 
HETATM   12  C8  UNL     1      21.641  -0.028  52.037  1.00  0.00     0.009 A 
ENDBRANCH   6   7
ENDBRANCH   4   6
ENDBRANCH   1   2
BRANCH   1  13
HETATM   13  C10 UNL     1      25.936   1.473  53.648  1.00  0.00     0.105 C 
BRANCH  13  14
HETATM   14  S1  UNL     1      26.495   1.385  51.926  1.00  0.00    -0.180 SA
HETATM   15  H12 UNL     1      25.623   2.180  51.162  1.00  0.00     0.101 HD
ENDBRANCH  13  14
ENDBRANCH   1  13
BRANCH   1  16
HETATM   16  N2  UNL     1      27.287  -0.576  53.851  1.00  0.00    -0.340 N 
HETATM   17  C11 UNL     1      28.663  -0.455  54.176  1.00  0.00     0.326 C 
HETATM   18  O2  UNL     1      28.985   0.411  55.029  1.00  0.00    -0.263 OA
HETATM   19  H13 UNL     1      27.014  -1.310  53.128  1.00  0.00     0.163 HD
BRANCH  17  20
HETATM   20  C12 UNL     1      29.706  -1.292  53.560  1.00  0.00     0.472 C 
HETATM   21  F1  UNL     1      30.386  -0.642  52.535  1.00  0.00    -0.162 F 
HETATM   22  F2  UNL     1      29.224  -2.476  53.024  1.00  0.00    -0.162 F 
HETATM   23  F3  UNL     1      30.652  -1.659  54.519  1.00  0.00    -0.162 F 
ENDBRANCH  17  20
ENDBRANCH   1  16
TORSDOF 7
ENDMDL
MODEL 3
REMARK VINA RESULT:      -6.6      3.283      6.651
REMARK  7 active torsions:
REMARK  status: ('A' for Active; 'I' for Inactive)
REMARK       I    between atoms: C1_2  and  N1_3 
REMARK    1  A    between atoms: C1_2  and  C9_11 
REMARK    2  A    between atoms: N1_3  and  C2_4 
REMARK    3  A    between atoms: C2_4  and  C3_5 
REMARK    4  A    between atoms: C9_11  and  C10_12 
REMARK    5  A    between atoms: C9_11  and  N2_14 
REMARK    6  A    between atoms: C10_12  and  S1_13 
REMARK       I    between atoms: N2_14  and  C11_15 
REMARK    7  A    between atoms: C11_15  and  C12_17 
ROOT
HETATM    1  C9  UNL     1      25.420   2.308  51.872  1.00  0.00     0.185 C 
ENDROOT
BRANCH   1   2
HETATM    2  C1  UNL     1      25.238   3.232  50.734  1.00  0.00     0.241 C 
HETATM    3  O1  UNL     1      24.225   2.928  50.040  1.00  0.00    -0.271 OA
HETATM    4  N1  UNL     1      26.030   4.349  50.369  1.00  0.00    -0.355 N 
HETATM    5  H1  UNL     1      26.834   4.477  51.037  1.00  0.00     0.162 HD
BRANCH   4   6
HETATM    6  C2  UNL     1      25.794   5.204  49.250  1.00  0.00     0.161 C 
BRANCH   6   7
HETATM    7  C3  UNL     1      26.996   5.799  48.644  1.00  0.00    -0.041 A 
HETATM    8  C4  UNL     1      27.119   7.052  48.103  1.00  0.00     0.009 A 
HETATM    9  C5  UNL     1      28.268   7.557  47.549  1.00  0.00     0.001 A 
HETATM   10  C6  UNL     1      29.408   6.755  47.524  1.00  0.00     0.000 A 
HETATM   11  C7  UNL     1      29.344   5.485  48.055  1.00  0.00     0.001 A 
HETATM   12  C8  UNL     1      28.160   5.045  48.592  1.00  0.00     0.009 A 
ENDBRANCH   6   7
ENDBRANCH   4   6
ENDBRANCH   1   2
BRANCH   1  13
HETATM   13  C10 UNL     1      24.229   2.505  52.777  1.00  0.00     0.105 C 
BRANCH  13  14
HETATM   14  S1  UNL     1      23.251   0.994  52.988  1.00  0.00    -0.180 SA
HETATM   15  H12 UNL     1      22.268   1.263  53.957  1.00  0.00     0.101 HD
ENDBRANCH  13  14
ENDBRANCH   1  13
BRANCH   1  16
HETATM   16  N2  UNL     1      26.680   2.418  52.547  1.00  0.00    -0.340 N 
HETATM   17  C11 UNL     1      27.444   1.318  53.016  1.00  0.00     0.326 C 
HETATM   18  O2  UNL     1      26.981   0.165  52.825  1.00  0.00    -0.263 OA
HETATM   19  H13 UNL     1      27.072   3.395  52.708  1.00  0.00     0.163 HD
BRANCH  17  20
HETATM   20  C12 UNL     1      28.735   1.478  53.705  1.00  0.00     0.472 C 
HETATM   21  F1  UNL     1      29.773   0.800  53.074  1.00  0.00    -0.162 F 
HETATM   22  F2  UNL     1      28.722   1.042  55.021  1.00  0.00    -0.162 F 
HETATM   23  F3  UNL     1      29.088   2.829  53.749  1.00  0.00    -0.162 F 
ENDBRANCH  17  20
ENDBRANCH   1  16
TORSDOF 7
ENDMDL
MODEL 4
REMARK VINA RESULT:      -6.6      2.591      5.331
REMARK  7 active torsions:
REMARK  status: ('A' for Active; 'I' for Inactive)
REMARK       I    between atoms: C1_2  and  N1_3 
REMARK    1  A    between atoms: C1_2  and  C9_11 
REMARK    2  A    between atoms: N1_3  and  C2_4 
REMARK    3  A    between atoms: C2_4  and  C3_5 
REMARK    4  A    between atoms: C9_11  and  C10_12 
REMARK    5  A    between atoms: C9_11  and  N2_14 
REMARK    6  A    between atoms: C10_12  and  S1_13 
REMARK       I    between atoms: N2_14  and  C11_15 
REMARK    7  A    between atoms: C11_15  and  C12_17 
ROOT
HETATM    1  C9  UNL     1      25.398   0.392  52.796  1.00  0.00     0.185 C 
ENDROOT
BRANCH   1   2
HETATM    2  C1  UNL     1      24.873   1.667  52.268  1.00  0.00     0.241 C 
HETATM    3  O1  UNL     1      24.694   2.518  53.187  1.00  0.00    -0.271 OA
HETATM    4  N1  UNL     1      24.571   2.008  50.926  1.00  0.00    -0.355 N 
HETATM    5  H1  UNL     1      24.769   1.203  50.277  1.00  0.00     0.162 HD
BRANCH   4   6
HETATM    6  C2  UNL     1      24.064   3.268  50.483  1.00  0.00     0.161 C 
BRANCH   6   7
HETATM    7  C3  UNL     1      25.043   4.149  49.828  1.00  0.00    -0.041 A 
HETATM    8  C4  UNL     1      24.852   5.442  49.417  1.00  0.00     0.009 A 
HETATM    9  C5  UNL     1      25.803   6.221  48.809  1.00  0.00     0.001 A 
HETATM   10  C6  UNL     1      27.067   5.677  48.581  1.00  0.00     0.000 A 
HETATM   11  C7  UNL     1      27.318   4.380  48.973  1.00  0.00     0.001 A 
HETATM   12  C8  UNL     1      26.317   3.659  49.576  1.00  0.00     0.009 A 
ENDBRANCH   6   7
ENDBRANCH   4   6
ENDBRANCH   1   2
BRANCH   1  13
HETATM   13  C10 UNL     1      24.417  -0.074  53.843  1.00  0.00     0.105 C 
BRANCH  13  14
HETATM   14  S1  UNL     1      22.817  -0.555  53.139  1.00  0.00    -0.180 SA
HETATM   15  H12 UNL     1      21.970  -0.885  54.212  1.00  0.00     0.101 HD
ENDBRANCH  13  14
ENDBRANCH   1  13
BRANCH   1  16
HETATM   16  N2  UNL     1      26.755   0.440  53.260  1.00  0.00    -0.340 N 
HETATM   17  C11 UNL     1      27.617  -0.683  53.354  1.00  0.00     0.326 C 
HETATM   18  O2  UNL     1      27.157  -1.800  53.005  1.00  0.00    -0.263 OA
HETATM   19  H13 UNL     1      27.143   1.387  53.555  1.00  0.00     0.163 HD
BRANCH  17  20
HETATM   20  C12 UNL     1      29.004  -0.586  53.837  1.00  0.00     0.472 C 
HETATM   21  F1  UNL     1      29.750   0.367  53.150  1.00  0.00    -0.162 F 
HETATM   22  F2  UNL     1      29.709  -1.777  53.749  1.00  0.00    -0.162 F 
HETATM   23  F3  UNL     1      29.016  -0.228  55.187  1.00  0.00    -0.162 F 
ENDBRANCH  17  20
ENDBRANCH   1  16
TORSDOF 7
ENDMDL
MODEL 5
REMARK VINA RESULT:      -6.5      3.423      6.080
REMARK  7 active torsions:
REMARK  status: ('A' for Active; 'I' for Inactive)
REMARK       I    between atoms: C1_2  and  N1_3 
REMARK    1  A    between atoms: C1_2  and  C9_11 
REMARK    2  A    between atoms: N1_3  and  C2_4 
REMARK    3  A    between atoms: C2_4  and  C3_5 
REMARK    4  A    between atoms: C9_11  and  C10_12 
REMARK    5  A    between atoms: C9_11  and  N2_14 
REMARK    6  A    between atoms: C10_12  and  S1_13 
REMARK       I    between atoms: N2_14  and  C11_15 
REMARK    7  A    between atoms: C11_15  and  C12_17 
ROOT
HETATM    1  C9  UNL     1      23.669   1.901  52.317  1.00  0.00     0.185 C 
ENDROOT
BRANCH   1   2
HETATM    2  C1  UNL     1      25.145   1.950  52.310  1.00  0.00     0.241 C 
HETATM    3  O1  UNL     1      25.603   2.105  51.140  1.00  0.00    -0.271 OA
HETATM    4  N1  UNL     1      26.037   1.849  53.406  1.00  0.00    -0.355 N 
HETATM    5  H1  UNL     1      25.512   1.723  54.310  1.00  0.00     0.162 HD
BRANCH   4   6
HETATM    6  C2  UNL     1      27.462   1.906  53.326  1.00  0.00     0.161 C 
BRANCH   6   7
HETATM    7  C3  UNL     1      28.148   0.604  53.326  1.00  0.00    -0.041 A 
HETATM    8  C4  UNL     1      29.452   0.354  53.662  1.00  0.00     0.009 A 
HETATM    9  C5  UNL     1      30.043  -0.884  53.645  1.00  0.00     0.001 A 
HETATM   10  C6  UNL     1      29.278  -1.985  53.260  1.00  0.00     0.000 A 
HETATM   11  C7  UNL     1      27.959  -1.794  52.911  1.00  0.00     0.001 A 
HETATM   12  C8  UNL     1      27.435  -0.525  52.951  1.00  0.00     0.009 A 
ENDBRANCH   6   7
ENDBRANCH   4   6
ENDBRANCH   1   2
BRANCH   1  13
HETATM   13  C10 UNL     1      23.193   3.324  52.163  1.00  0.00     0.105 C 
BRANCH  13  14
HETATM   14  S1  UNL     1      22.315   3.604  50.602  1.00  0.00    -0.180 SA
HETATM   15  H12 UNL     1      21.132   4.300  50.908  1.00  0.00     0.101 HD
ENDBRANCH  13  14
ENDBRANCH   1  13
BRANCH   1  16
HETATM   16  N2  UNL     1      23.090   1.218  53.438  1.00  0.00    -0.340 N 
HETATM   17  C11 UNL     1      22.081   0.224  53.347  1.00  0.00     0.326 C 
HETATM   18  O2  UNL     1      21.666  -0.078  52.199  1.00  0.00    -0.263 OA
HETATM   19  H13 UNL     1      23.444   1.475  54.410  1.00  0.00     0.163 HD
BRANCH  17  20
HETATM   20  C12 UNL     1      21.517  -0.450  54.526  1.00  0.00     0.472 C 
HETATM   21  F1  UNL     1      20.757   0.401  55.324  1.00  0.00    -0.162 F 
HETATM   22  F2  UNL     1      22.473  -1.016  55.355  1.00  0.00    -0.162 F 
HETATM   23  F3  UNL     1      20.684  -1.497  54.125  1.00  0.00    -0.162 F 
ENDBRANCH  17  20
ENDBRANCH   1  16
TORSDOF 7
ENDMDL
MODEL 6
REMARK VINA RESULT:      -6.1      1.428      2.273
REMARK  7 active torsions:
REMARK  status: ('A' for Active; 'I' for Inactive)
REMARK       I    between atoms: C1_2  and  N1_3 
REMARK    1  A    between atoms: C1_2  and  C9_11 
REMARK    2  A    between atoms: N1_3  and  C2_4 
REMARK    3  A    between atoms: C2_4  and  C3_5 
REMARK    4  A    between atoms: C9_11  and  C10_12 
REMARK    5  A    between atoms: C9_11  and  N2_14 
REMARK    6  A    between atoms: C10_12  and  S1_13 
REMARK       I    between atoms: N2_14  and  C11_15 
REMARK    7  A    between atoms: C11_15  and  C12_17 
ROOT
HETATM    1  C9  UNL     1      26.355   2.712  52.241  1.00  0.00     0.185 C 
ENDROOT
BRANCH   1   2
HETATM    2  C1  UNL     1      25.062   2.154  52.686  1.00  0.00     0.241 C 
HETATM    3  O1  UNL     1      24.455   2.944  53.466  1.00  0.00    -0.271 OA
HETATM    4  N1  UNL     1      24.475   0.909  52.350  1.00  0.00    -0.355 N 
HETATM    5  H1  UNL     1      25.095   0.363  51.696  1.00  0.00     0.162 HD
BRANCH   4   6
HETATM    6  C2  UNL     1      23.214   0.431  52.819  1.00  0.00     0.161 C 
BRANCH   6   7
HETATM    7  C3  UNL     1      22.088   0.598  51.887  1.00  0.00    -0.041 A 
HETATM    8  C4  UNL     1      22.126   1.138  50.628  1.00  0.00     0.009 A 
HETATM    9  C5  UNL     1      21.042   1.270  49.799  1.00  0.00     0.001 A 
HETATM   10  C6  UNL     1      19.798   0.828  50.248  1.00  0.00     0.000 A 
HETATM   11  C7  UNL     1      19.698   0.275  51.506  1.00  0.00     0.001 A 
HETATM   12  C8  UNL     1      20.827   0.175  52.282  1.00  0.00     0.009 A 
ENDBRANCH   6   7
ENDBRANCH   4   6
ENDBRANCH   1   2
BRANCH   1  13
HETATM   13  C10 UNL     1      26.527   2.296  50.801  1.00  0.00     0.105 C 
BRANCH  13  14
HETATM   14  S1  UNL     1      26.505   3.702  49.657  1.00  0.00    -0.180 SA
HETATM   15  H12 UNL     1      27.500   4.601  50.081  1.00  0.00     0.101 HD
ENDBRANCH  13  14
ENDBRANCH   1  13
BRANCH   1  16
HETATM   16  N2  UNL     1      27.477   2.383  53.072  1.00  0.00    -0.340 N 
HETATM   17  C11 UNL     1      27.974   1.070  53.278  1.00  0.00     0.326 C 
HETATM   18  O2  UNL     1      27.387   0.128  52.687  1.00  0.00    -0.263 OA
HETATM   19  H13 UNL     1      27.973   3.183  53.572  1.00  0.00     0.163 HD
BRANCH  17  20
HETATM   20  C12 UNL     1      29.130   0.781  54.142  1.00  0.00     0.472 C 
HETATM   21  F1  UNL     1      29.623   1.913  54.782  1.00  0.00    -0.162 F 
HETATM   22  F2  UNL     1      30.200   0.212  53.468  1.00  0.00    -0.162 F 
HETATM   23  F3  UNL     1      28.767  -0.133  55.134  1.00  0.00    -0.162 F 
ENDBRANCH  17  20
ENDBRANCH   1  16
TORSDOF 7
ENDMDL
MODEL 7
REMARK VINA RESULT:      -6.0      3.650      5.947
REMARK  7 active torsions:
REMARK  status: ('A' for Active; 'I' for Inactive)
REMARK       I    between atoms: C1_2  and  N1_3 
REMARK    1  A    between atoms: C1_2  and  C9_11 
REMARK    2  A    between atoms: N1_3  and  C2_4 
REMARK    3  A    between atoms: C2_4  and  C3_5 
REMARK    4  A    between atoms: C9_11  and  C10_12 
REMARK    5  A    between atoms: C9_11  and  N2_14 
REMARK    6  A    between atoms: C10_12  and  S1_13 
REMARK       I    between atoms: N2_14  and  C11_15 
REMARK    7  A    between atoms: C11_15  and  C12_17 
ROOT
HETATM    1  C9  UNL     1      22.885   1.596  51.920  1.00  0.00     0.185 C 
ENDROOT
BRANCH   1   2
HETATM    2  C1  UNL     1      23.618   0.658  52.795  1.00  0.00     0.241 C 
HETATM    3  O1  UNL     1      22.872   0.176  53.696  1.00  0.00    -0.271 OA
HETATM    4  N1  UNL     1      24.979   0.270  52.728  1.00  0.00    -0.355 N 
HETATM    5  H1  UNL     1      25.471   0.752  51.931  1.00  0.00     0.162 HD
BRANCH   4   6
HETATM    6  C2  UNL     1      25.626  -0.648  53.611  1.00  0.00     0.161 C 
BRANCH   6   7
HETATM    7  C3  UNL     1      27.096  -0.583  53.625  1.00  0.00    -0.041 A 
HETATM    8  C4  UNL     1      27.972  -1.520  53.145  1.00  0.00     0.009 A 
HETATM    9  C5  UNL     1      29.338  -1.409  53.184  1.00  0.00     0.001 A 
HETATM   10  C6  UNL     1      29.901  -0.265  53.750  1.00  0.00     0.000 A 
HETATM   11  C7  UNL     1      29.068   0.713  54.249  1.00  0.00     0.001 A 
HETATM   12  C8  UNL     1      27.709   0.533  54.176  1.00  0.00     0.009 A 
ENDBRANCH   6   7
ENDBRANCH   4   6
ENDBRANCH   1   2
BRANCH   1  13
HETATM   13  C10 UNL     1      21.649   0.869  51.454  1.00  0.00     0.105 C 
BRANCH  13  14
HETATM   14  S1  UNL     1      20.118   1.737  51.887  1.00  0.00    -0.180 SA
HETATM   15  H12 UNL     1      19.334   1.810  50.722  1.00  0.00     0.101 HD
ENDBRANCH  13  14
ENDBRANCH   1  13
BRANCH   1  16
HETATM   16  N2  UNL     1      23.658   2.161  50.853  1.00  0.00    -0.340 N 
HETATM   17  C11 UNL     1      24.258   3.447  50.881  1.00  0.00     0.326 C 
HETATM   18  O2  UNL     1      24.098   4.140  51.919  1.00  0.00    -0.263 OA
HETATM   19  H13 UNL     1      23.793   1.573  49.975  1.00  0.00     0.163 HD
BRANCH  17  20
HETATM   20  C12 UNL     1      25.044   3.986  49.760  1.00  0.00     0.472 C 
HETATM   21  F1  UNL     1      24.249   4.469  48.725  1.00  0.00    -0.162 F 
HETATM   22  F2  UNL     1      25.910   3.064  49.193  1.00  0.00    -0.162 F 
HETATM   23  F3  UNL     1      25.840   5.045  50.201  1.00  0.00    -0.162 F 
ENDBRANCH  17  20
ENDBRANCH   1  16
TORSDOF 7
ENDMDL
MODEL 8
REMARK VINA RESULT:      -6.0      6.379      8.125
REMARK  7 active torsions:
REMARK  status: ('A' for Active; 'I' for Inactive)
REMARK       I    between atoms: C1_2  and  N1_3 
REMARK    1  A    between atoms: C1_2  and  C9_11 
REMARK    2  A    between atoms: N1_3  and  C2_4 
REMARK    3  A    between atoms: C2_4  and  C3_5 
REMARK    4  A    between atoms: C9_11  and  C10_12 
REMARK    5  A    between atoms: C9_11  and  N2_14 
REMARK    6  A    between atoms: C10_12  and  S1_13 
REMARK       I    between atoms: N2_14  and  C11_15 
REMARK    7  A    between atoms: C11_15  and  C12_17 
ROOT
HETATM    1  C9  UNL     1      30.862   8.104  48.916  1.00  0.00     0.185 C 
ENDROOT
BRANCH   1   2
HETATM    2  C1  UNL     1      29.426   7.969  48.602  1.00  0.00     0.241 C 
HETATM    3  O1  UNL     1      28.952   9.032  48.106  1.00  0.00    -0.271 OA
HETATM    4  N1  UNL     1      28.583   6.844  48.788  1.00  0.00    -0.355 N 
HETATM    5  H1  UNL     1      29.116   6.039  49.208  1.00  0.00     0.162 HD
BRANCH   4   6
HETATM    6  C2  UNL     1      27.195   6.783  48.459  1.00  0.00     0.161 C 
BRANCH   6   7
HETATM    7  C3  UNL     1      26.505   5.546  48.857  1.00  0.00    -0.041 A 
HETATM    8  C4  UNL     1      27.078   4.345  49.182  1.00  0.00     0.009 A 
HETATM    9  C5  UNL     1      26.385   3.219  49.547  1.00  0.00     0.001 A 
HETATM   10  C6  UNL     1      24.992   3.277  49.597  1.00  0.00     0.000 A 
HETATM   11  C7  UNL     1      24.360   4.460  49.280  1.00  0.00     0.001 A 
HETATM   12  C8  UNL     1      25.119   5.547  48.923  1.00  0.00     0.009 A 
ENDBRANCH   6   7
ENDBRANCH   4   6
ENDBRANCH   1   2
BRANCH   1  13
HETATM   13  C10 UNL     1      31.220   9.549  48.673  1.00  0.00     0.105 C 
BRANCH  13  14
HETATM   14  S1  UNL     1      32.441   9.755  47.349  1.00  0.00    -0.180 SA
HETATM   15  H12 UNL     1      31.891  10.644  46.407  1.00  0.00     0.101 HD
ENDBRANCH  13  14
ENDBRANCH   1  13
BRANCH   1  16
HETATM   16  N2  UNL     1      31.722   7.176  48.239  1.00  0.00    -0.340 N 
HETATM   17  C11 UNL     1      31.993   5.855  48.681  1.00  0.00     0.326 C 
HETATM   18  O2  UNL     1      31.440   5.473  49.743  1.00  0.00    -0.263 OA
HETATM   19  H13 UNL     1      32.190   7.502  47.339  1.00  0.00     0.163 HD
BRANCH  17  20
HETATM   20  C12 UNL     1      32.883   4.938  47.952  1.00  0.00     0.472 C 
HETATM   21  F1  UNL     1      34.214   5.051  48.342  1.00  0.00    -0.162 F 
HETATM   22  F2  UNL     1      32.860   5.114  46.577  1.00  0.00    -0.162 F 
HETATM   23  F3  UNL     1      32.495   3.615  48.179  1.00  0.00    -0.162 F 
ENDBRANCH  17  20
ENDBRANCH   1  16
TORSDOF 7
ENDMDL
MODEL 9
REMARK VINA RESULT:      -6.0      4.496      6.160
REMARK  7 active torsions:
REMARK  status: ('A' for Active; 'I' for Inactive)
REMARK       I    between atoms: C1_2  and  N1_3 
REMARK    1  A    between atoms: C1_2  and  C9_11 
REMARK    2  A    between atoms: N1_3  and  C2_4 
REMARK    3  A    between atoms: C2_4  and  C3_5 
REMARK    4  A    between atoms: C9_11  and  C10_12 
REMARK    5  A    between atoms: C9_11  and  N2_14 
REMARK    6  A    between atoms: C10_12  and  S1_13 
REMARK       I    between atoms: N2_14  and  C11_15 
REMARK    7  A    between atoms: C11_15  and  C12_17 
ROOT
HETATM    1  C9  UNL     1      24.275   3.684  50.859  1.00  0.00     0.185 C 
ENDROOT
BRANCH   1   2
HETATM    2  C1  UNL     1      24.891   3.211  52.115  1.00  0.00     0.241 C 
HETATM    3  O1  UNL     1      24.137   3.411  53.111  1.00  0.00    -0.271 OA
HETATM    4  N1  UNL     1      26.155   2.598  52.302  1.00  0.00    -0.355 N 
HETATM    5  H1  UNL     1      26.666   2.499  51.387  1.00  0.00     0.162 HD
BRANCH   4   6
HETATM    6  C2  UNL     1      26.690   2.163  53.553  1.00  0.00     0.161 C 
BRANCH   6   7
HETATM    7  C3  UNL     1      27.641   1.042  53.478  1.00  0.00    -0.041 A 
HETATM    8  C4  UNL     1      28.998   1.092  53.660  1.00  0.00     0.009 A 
HETATM    9  C5  UNL     1      29.841   0.013  53.578  1.00  0.00     0.001 A 
HETATM   10  C6  UNL     1      29.298  -1.239  53.289  1.00  0.00     0.000 A 
HETATM   11  C7  UNL     1      27.939  -1.351  53.096  1.00  0.00     0.001 A 
HETATM   12  C8  UNL     1      27.156  -0.226  53.193  1.00  0.00     0.009 A 
ENDBRANCH   6   7
ENDBRANCH   4   6
ENDBRANCH   1   2
BRANCH   1  13
HETATM   13  C10 UNL     1      23.484   2.524  50.308  1.00  0.00     0.105 C 
BRANCH  13  14
HETATM   14  S1  UNL     1      21.693   2.782  50.416  1.00  0.00    -0.180 SA
HETATM   15  H12 UNL     1      21.273   3.319  49.186  1.00  0.00     0.101 HD
ENDBRANCH  13  14
ENDBRANCH   1  13
BRANCH   1  16
HETATM   16  N2  UNL     1      25.188   4.258  49.914  1.00  0.00    -0.340 N 
HETATM   17  C11 UNL     1      25.504   5.640  49.832  1.00  0.00     0.326 C 
HETATM   18  O2  UNL     1      24.942   6.414  50.648  1.00  0.00    -0.263 OA
HETATM   19  H13 UNL     1      25.664   3.601  49.223  1.00  0.00     0.163 HD
BRANCH  17  20
HETATM   20  C12 UNL     1      26.449   6.185  48.844  1.00  0.00     0.472 C 
HETATM   21  F1  UNL     1      27.286   5.214  48.303  1.00  0.00    -0.162 F 
HETATM   22  F2  UNL     1      27.273   7.178  49.350  1.00  0.00    -0.162 F 
HETATM   23  F3  UNL     1      25.749   6.766  47.784  1.00  0.00    -0.162 F 
ENDBRANCH  17  20
ENDBRANCH   1  16
TORSDOF 7
ENDMDL
