MODEL 1
REMARK VINA RESULT:      -7.6      0.000      0.000
REMARK  9 active torsions:
REMARK  status: ('A' for Active; 'I' for Inactive)
REMARK    1  A    between atoms: N1_2  and  C2_3 
REMARK    2  A    between atoms: C2_3  and  C3_4 
REMARK    3  A    between atoms: C3_4  and  O1_5 
REMARK    4  A    between atoms: C3_4  and  C4_6 
REMARK    5  A    between atoms: C4_6  and  O2_7 
REMARK    6  A    between atoms: O2_7  and  C5_8 
REMARK    7  A    between atoms: C8_11  and  N2_12 
REMARK    8  A    between atoms: N2_12  and  C9_13 
REMARK    9  A    between atoms: C18_25  and  O3_26 
ROOT
HETATM    1  C5  UNL     1      25.461   2.088  53.511  1.00  0.00     0.103 A 
HETATM    2  C6  UNL     1      24.772   3.196  53.080  1.00  0.00     0.057 A 
HETATM    3  C7  UNL     1      23.469   3.187  52.644  1.00  0.00     0.042 A 
HETATM    4  C8  UNL     1      22.935   4.391  52.249  1.00  0.00     0.142 A 
HETATM    5  N3  UNL     1      21.661   4.393  51.820  1.00  0.00    -0.224 NA
HETATM    6  C15 UNL     1      20.944   3.231  51.789  1.00  0.00     0.236 A 
HETATM    7  N4  UNL     1      21.523   2.067  52.193  1.00  0.00    -0.241 NA
HETATM    8  C16 UNL     1      22.793   2.001  52.630  1.00  0.00     0.075 A 
HETATM    9  C17 UNL     1      23.405   0.844  53.044  1.00  0.00     0.072 A 
HETATM   10  C18 UNL     1      24.735   0.895  53.482  1.00  0.00     0.103 A 
ENDROOT
BRANCH   1  11
HETATM   11  O2  UNL     1      26.711   1.862  53.974  1.00  0.00    -0.346 OA
BRANCH  11  12
HETATM   12  C4  UNL     1      27.946   2.129  53.395  1.00  0.00     0.209 C 
BRANCH  12  13
HETATM   13  C3  UNL     1      29.128   1.464  54.050  1.00  0.00     0.170 C 
BRANCH  13  14
HETATM   14  C2  UNL     1      28.583   0.339  54.922  1.00  0.00     0.302 C 
BRANCH  14  15
HETATM   15  N1  UNL     1      28.315  -0.787  54.018  1.00  0.00     0.081 N 
HETATM   16  C1  UNL     1      29.605  -1.229  53.503  1.00  0.00     0.306 C 
HETATM   17  H4  UNL     1      27.866  -1.527  54.606  1.00  0.00     0.315 HD
ENDBRANCH  14  15
ENDBRANCH  13  14
BRANCH  13  18
HETATM   18  O1  UNL     1      29.815   2.370  54.865  1.00  0.00    -0.392 OA
HETATM   19  H8  UNL     1      29.175   2.818  55.477  1.00  0.00     0.210 HD
ENDBRANCH  13  18
ENDBRANCH  12  13
ENDBRANCH  11  12
ENDBRANCH   1  11
BRANCH  10  20
HETATM   20  O3  UNL     1      25.222  -0.346  53.869  1.00  0.00    -0.353 OA
HETATM   21  C19 UNL     1      24.823  -0.988  55.036  1.00  0.00     0.210 C 
ENDBRANCH  10  20
BRANCH   4  22
HETATM   22  N2  UNL     1      23.600   5.646  52.246  1.00  0.00    -0.338 N 
HETATM   23  H12 UNL     1      23.798   6.299  53.033  1.00  0.00     0.167 HD
BRANCH  22  24
HETATM   24  C9  UNL     1      24.141   6.249  51.076  1.00  0.00     0.069 A 
HETATM   25  C10 UNL     1      25.108   5.935  50.233  1.00  0.00     0.124 A 
HETATM   26  F1  UNL     1      25.916   4.855  50.257  1.00  0.00    -0.208 F 
HETATM   27  C11 UNL     1      25.204   6.979  49.186  1.00  0.00     0.106 A 
HETATM   28  C12 UNL     1      24.134   7.967  49.546  1.00  0.00    -0.075 A 
HETATM   29  C13 UNL     1      23.858   9.201  48.762  1.00  0.00     0.044 C 
HETATM   30  C14 UNL     1      23.527   7.523  50.651  1.00  0.00     0.035 A 
ENDBRANCH  22  24
ENDBRANCH   4  22
TORSDOF 9
ENDMDL
MODEL 2
REMARK VINA RESULT:      -7.5      2.111      2.479
REMARK  9 active torsions:
REMARK  status: ('A' for Active; 'I' for Inactive)
REMARK    1  A    between atoms: N1_2  and  C2_3 
REMARK    2  A    between atoms: C2_3  and  C3_4 
REMARK    3  A    between atoms: C3_4  and  O1_5 
REMARK    4  A    between atoms: C3_4  and  C4_6 
REMARK    5  A    between atoms: C4_6  and  O2_7 
REMARK    6  A    between atoms: O2_7  and  C5_8 
REMARK    7  A    between atoms: C8_11  and  N2_12 
REMARK    8  A    between atoms: N2_12  and  C9_13 
REMARK    9  A    between atoms: C18_25  and  O3_26 
ROOT
HETATM    1  C5  UNL     1      24.846   1.917  52.986  1.00  0.00     0.103 A 
HETATM    2  C6  UNL     1      24.690   2.888  52.026  1.00  0.00     0.057 A 
HETATM    3  C7  UNL     1      23.751   2.854  51.024  1.00  0.00     0.042 A 
HETATM    4  C8  UNL     1      23.736   3.914  50.147  1.00  0.00     0.142 A 
HETATM    5  N3  UNL     1      22.821   3.891  49.162  1.00  0.00    -0.224 NA
HETATM    6  C15 UNL     1      21.951   2.844  49.058  1.00  0.00     0.236 A 
HETATM    7  N4  UNL     1      22.011   1.821  49.954  1.00  0.00    -0.241 NA
HETATM    8  C16 UNL     1      22.902   1.787  50.959  1.00  0.00     0.075 A 
HETATM    9  C17 UNL     1      22.988   0.770  51.878  1.00  0.00     0.072 A 
HETATM   10  C18 UNL     1      23.959   0.843  52.885  1.00  0.00     0.103 A 
ENDROOT
BRANCH   1  11
HETATM   11  O2  UNL     1      25.674   1.742  54.041  1.00  0.00    -0.346 OA
BRANCH  11  12
HETATM   12  C4  UNL     1      27.038   1.481  54.079  1.00  0.00     0.209 C 
BRANCH  12  13
HETATM   13  C3  UNL     1      27.420   0.079  54.474  1.00  0.00     0.170 C 
BRANCH  13  14
HETATM   14  C2  UNL     1      27.608  -0.715  53.186  1.00  0.00     0.302 C 
BRANCH  14  15
HETATM   15  N1  UNL     1      28.640  -1.720  53.470  1.00  0.00     0.081 N 
HETATM   16  C1  UNL     1      29.888  -0.995  53.668  1.00  0.00     0.306 C 
HETATM   17  H4  UNL     1      28.336  -2.204  54.346  1.00  0.00     0.315 HD
ENDBRANCH  14  15
ENDBRANCH  13  14
BRANCH  13  18
HETATM   18  O1  UNL     1      26.402  -0.519  55.224  1.00  0.00    -0.392 OA
HETATM   19  H8  UNL     1      26.734  -0.719  56.137  1.00  0.00     0.210 HD
ENDBRANCH  13  18
ENDBRANCH  12  13
ENDBRANCH  11  12
ENDBRANCH   1  11
BRANCH  10  20
HETATM   20  O3  UNL     1      23.929  -0.251  53.740  1.00  0.00    -0.353 OA
HETATM   21  C19 UNL     1      22.750  -0.795  54.236  1.00  0.00     0.210 C 
ENDBRANCH  10  20
BRANCH   4  22
HETATM   22  N2  UNL     1      24.598   5.042  50.176  1.00  0.00    -0.338 N 
HETATM   23  H12 UNL     1      24.481   5.961  50.653  1.00  0.00     0.167 HD
BRANCH  22  24
HETATM   24  C9  UNL     1      25.852   5.094  49.507  1.00  0.00     0.069 A 
HETATM   25  C10 UNL     1      26.803   4.214  49.248  1.00  0.00     0.124 A 
HETATM   26  F1  UNL     1      26.841   2.907  49.581  1.00  0.00    -0.208 F 
HETATM   27  C11 UNL     1      27.895   4.877  48.497  1.00  0.00     0.106 A 
HETATM   28  C12 UNL     1      27.437   6.298  48.353  1.00  0.00    -0.075 A 
HETATM   29  C13 UNL     1      28.227   7.348  47.655  1.00  0.00     0.044 C 
HETATM   30  C14 UNL     1      26.244   6.403  48.948  1.00  0.00     0.035 A 
ENDBRANCH  22  24
ENDBRANCH   4  22
TORSDOF 9
ENDMDL
MODEL 3
REMARK VINA RESULT:      -7.4      1.995      2.429
REMARK  9 active torsions:
REMARK  status: ('A' for Active; 'I' for Inactive)
REMARK    1  A    between atoms: N1_2  and  C2_3 
REMARK    2  A    between atoms: C2_3  and  C3_4 
REMARK    3  A    between atoms: C3_4  and  O1_5 
REMARK    4  A    between atoms: C3_4  and  C4_6 
REMARK    5  A    between atoms: C4_6  and  O2_7 
REMARK    6  A    between atoms: O2_7  and  C5_8 
REMARK    7  A    between atoms: C8_11  and  N2_12 
REMARK    8  A    between atoms: N2_12  and  C9_13 
REMARK    9  A    between atoms: C18_25  and  O3_26 
ROOT
HETATM    1  C5  UNL     1      25.283   0.519  52.757  1.00  0.00     0.103 A 
HETATM    2  C6  UNL     1      24.360   1.079  51.907  1.00  0.00     0.057 A 
HETATM    3  C7  UNL     1      23.003   0.883  51.985  1.00  0.00     0.042 A 
HETATM    4  C8  UNL     1      22.225   1.525  51.050  1.00  0.00     0.142 A 
HETATM    5  N3  UNL     1      20.895   1.339  51.117  1.00  0.00    -0.224 NA
HETATM    6  C15 UNL     1      20.362   0.539  52.086  1.00  0.00     0.236 A 
HETATM    7  N4  UNL     1      21.180  -0.073  52.987  1.00  0.00    -0.241 NA
HETATM    8  C16 UNL     1      22.516   0.074  52.971  1.00  0.00     0.075 A 
HETATM    9  C17 UNL     1      23.367  -0.528  53.864  1.00  0.00     0.072 A 
HETATM   10  C18 UNL     1      24.745  -0.302  53.751  1.00  0.00     0.103 A 
ENDROOT
BRANCH   1  11
HETATM   11  O2  UNL     1      26.630   0.569  52.872  1.00  0.00    -0.346 OA
BRANCH  11  12
HETATM   12  C4  UNL     1      27.481   1.659  53.004  1.00  0.00     0.209 C 
BRANCH  12  13
HETATM   13  C3  UNL     1      28.792   1.381  53.691  1.00  0.00     0.170 C 
BRANCH  13  14
HETATM   14  C2  UNL     1      28.511   0.379  54.805  1.00  0.00     0.302 C 
BRANCH  14  15
HETATM   15  N1  UNL     1      28.583  -0.951  54.189  1.00  0.00     0.081 N 
HETATM   16  C1  UNL     1      29.915  -1.074  53.610  1.00  0.00     0.306 C 
HETATM   17  H4  UNL     1      28.440  -1.636  54.967  1.00  0.00     0.315 HD
ENDBRANCH  14  15
ENDBRANCH  13  14
BRANCH  13  18
HETATM   18  O1  UNL     1      29.310   2.549  54.259  1.00  0.00    -0.392 OA
HETATM   19  H8  UNL     1      29.912   2.315  55.012  1.00  0.00     0.210 HD
ENDBRANCH  13  18
ENDBRANCH  12  13
ENDBRANCH  11  12
ENDBRANCH   1  11
BRANCH  10  20
HETATM   20  O3  UNL     1      25.481  -0.972  54.719  1.00  0.00    -0.353 OA
HETATM   21  C19 UNL     1      25.139  -0.976  56.066  1.00  0.00     0.210 C 
ENDBRANCH  10  20
BRANCH   4  22
HETATM   22  N2  UNL     1      22.689   2.373  50.009  1.00  0.00    -0.338 N 
HETATM   23  H12 UNL     1      22.614   2.265  48.976  1.00  0.00     0.167 HD
BRANCH  22  24
HETATM   24  C9  UNL     1      23.381   3.595  50.237  1.00  0.00     0.069 A 
HETATM   25  C10 UNL     1      23.241   4.595  51.089  1.00  0.00     0.124 A 
HETATM   26  F1  UNL     1      22.319   4.736  52.063  1.00  0.00    -0.208 F 
HETATM   27  C11 UNL     1      24.290   5.609  50.830  1.00  0.00     0.106 A 
HETATM   28  C12 UNL     1      25.076   5.048  49.683  1.00  0.00    -0.075 A 
HETATM   29  C13 UNL     1      26.246   5.736  49.074  1.00  0.00     0.044 C 
HETATM   30  C14 UNL     1      24.529   3.873  49.352  1.00  0.00     0.035 A 
ENDBRANCH  22  24
ENDBRANCH   4  22
TORSDOF 9
ENDMDL
MODEL 4
REMARK VINA RESULT:      -7.3      2.945      6.951
REMARK  9 active torsions:
REMARK  status: ('A' for Active; 'I' for Inactive)
REMARK    1  A    between atoms: N1_2  and  C2_3 
REMARK    2  A    between atoms: C2_3  and  C3_4 
REMARK    3  A    between atoms: C3_4  and  O1_5 
REMARK    4  A    between atoms: C3_4  and  C4_6 
REMARK    5  A    between atoms: C4_6  and  O2_7 
REMARK    6  A    between atoms: O2_7  and  C5_8 
REMARK    7  A    between atoms: C8_11  and  N2_12 
REMARK    8  A    between atoms: N2_12  and  C9_13 
REMARK    9  A    between atoms: C18_25  and  O3_26 
ROOT
HETATM    1  C5  UNL     1      22.924   3.268  51.321  1.00  0.00     0.103 A 
HETATM    2  C6  UNL     1      23.636   2.156  51.705  1.00  0.00     0.057 A 
HETATM    3  C7  UNL     1      23.170   1.184  52.556  1.00  0.00     0.042 A 
HETATM    4  C8  UNL     1      24.018   0.137  52.833  1.00  0.00     0.142 A 
HETATM    5  N3  UNL     1      23.572  -0.819  53.665  1.00  0.00    -0.224 NA
HETATM    6  C15 UNL     1      22.320  -0.733  54.202  1.00  0.00     0.236 A 
HETATM    7  N4  UNL     1      21.522   0.325  53.894  1.00  0.00    -0.241 NA
HETATM    8  C16 UNL     1      21.911   1.313  53.069  1.00  0.00     0.075 A 
HETATM    9  C17 UNL     1      21.130   2.393  52.739  1.00  0.00     0.072 A 
HETATM   10  C18 UNL     1      21.642   3.363  51.867  1.00  0.00     0.103 A 
ENDROOT
BRANCH   1  11
HETATM   11  O2  UNL     1      23.169   4.326  50.516  1.00  0.00    -0.346 OA
BRANCH  11  12
HETATM   12  C4  UNL     1      24.236   5.216  50.500  1.00  0.00     0.209 C 
BRANCH  12  13
HETATM   13  C3  UNL     1      23.964   6.567  51.107  1.00  0.00     0.170 C 
BRANCH  13  14
HETATM   14  C2  UNL     1      24.736   7.592  50.284  1.00  0.00     0.302 C 
BRANCH  14  15
HETATM   15  N1  UNL     1      26.112   7.577  50.795  1.00  0.00     0.081 N 
HETATM   16  C1  UNL     1      26.822   8.656  50.120  1.00  0.00     0.306 C 
HETATM   17  H4  UNL     1      26.039   7.753  51.823  1.00  0.00     0.315 HD
ENDBRANCH  14  15
ENDBRANCH  13  14
BRANCH  13  18
HETATM   18  O1  UNL     1      24.422   6.617  52.428  1.00  0.00    -0.392 OA
HETATM   19  H8  UNL     1      24.057   5.847  52.936  1.00  0.00     0.210 HD
ENDBRANCH  13  18
ENDBRANCH  12  13
ENDBRANCH  11  12
ENDBRANCH   1  11
BRANCH  10  20
HETATM   20  O3  UNL     1      20.745   4.394  51.623  1.00  0.00    -0.353 OA
HETATM   21  C19 UNL     1      19.529   4.206  50.976  1.00  0.00     0.210 C 
ENDBRANCH  10  20
BRANCH   4  22
HETATM   22  N2  UNL     1      25.333  -0.036  52.323  1.00  0.00    -0.338 N 
HETATM   23  H12 UNL     1      25.648  -0.346  51.380  1.00  0.00     0.167 HD
BRANCH  22  24
HETATM   24  C9  UNL     1      26.512   0.204  53.083  1.00  0.00     0.069 A 
HETATM   25  C10 UNL     1      26.874   1.114  53.969  1.00  0.00     0.124 A 
HETATM   26  F1  UNL     1      26.155   2.156  54.435  1.00  0.00    -0.208 F 
HETATM   27  C11 UNL     1      28.257   0.835  54.421  1.00  0.00     0.106 A 
HETATM   28  C12 UNL     1      28.658  -0.392  53.657  1.00  0.00    -0.075 A 
HETATM   29  C13 UNL     1      29.987  -1.046  53.792  1.00  0.00     0.044 C 
HETATM   30  C14 UNL     1      27.626  -0.743  52.883  1.00  0.00     0.035 A 
ENDBRANCH  22  24
ENDBRANCH   4  22
TORSDOF 9
ENDMDL
MODEL 5
REMARK VINA RESULT:      -7.2      2.743      6.605
REMARK  9 active torsions:
REMARK  status: ('A' for Active; 'I' for Inactive)
REMARK    1  A    between atoms: N1_2  and  C2_3 
REMARK    2  A    between atoms: C2_3  and  C3_4 
REMARK    3  A    between atoms: C3_4  and  O1_5 
REMARK    4  A    between atoms: C3_4  and  C4_6 
REMARK    5  A    between atoms: C4_6  and  O2_7 
REMARK    6  A    between atoms: O2_7  and  C5_8 
REMARK    7  A    between atoms: C8_11  and  N2_12 
REMARK    8  A    between atoms: N2_12  and  C9_13 
REMARK    9  A    between atoms: C18_25  and  O3_26 
ROOT
HETATM    1  C5  UNL     1      22.867   2.046  50.756  1.00  0.00     0.103 A 
HETATM    2  C6  UNL     1      23.493   1.110  51.545  1.00  0.00     0.057 A 
HETATM    3  C7  UNL     1      22.955   0.559  52.682  1.00  0.00     0.042 A 
HETATM    4  C8  UNL     1      23.722  -0.366  53.350  1.00  0.00     0.142 A 
HETATM    5  N3  UNL     1      23.206  -0.911  54.465  1.00  0.00    -0.224 NA
HETATM    6  C15 UNL     1      21.964  -0.545  54.897  1.00  0.00     0.236 A 
HETATM    7  N4  UNL     1      21.247   0.377  54.196  1.00  0.00    -0.241 NA
HETATM    8  C16 UNL     1      21.709   0.957  53.075  1.00  0.00     0.075 A 
HETATM    9  C17 UNL     1      21.012   1.889  52.346  1.00  0.00     0.072 A 
HETATM   10  C18 UNL     1      21.595   2.426  51.192  1.00  0.00     0.103 A 
ENDROOT
BRANCH   1  11
HETATM   11  O2  UNL     1      23.189   2.709  49.623  1.00  0.00    -0.346 OA
BRANCH  11  12
HETATM   12  C4  UNL     1      24.033   3.796  49.427  1.00  0.00     0.209 C 
BRANCH  12  13
HETATM   13  C3  UNL     1      24.652   4.371  50.674  1.00  0.00     0.170 C 
BRANCH  13  14
HETATM   14  C2  UNL     1      24.012   5.735  50.904  1.00  0.00     0.302 C 
BRANCH  14  15
HETATM   15  N1  UNL     1      24.096   5.990  52.348  1.00  0.00     0.081 N 
HETATM   16  C1  UNL     1      23.599   4.793  53.015  1.00  0.00     0.306 C 
HETATM   17  H4  UNL     1      25.109   6.148  52.553  1.00  0.00     0.315 HD
ENDBRANCH  14  15
ENDBRANCH  13  14
BRANCH  13  18
HETATM   18  O1  UNL     1      26.030   4.544  50.507  1.00  0.00    -0.392 OA
HETATM   19  H8  UNL     1      26.211   5.457  50.164  1.00  0.00     0.210 HD
ENDBRANCH  13  18
ENDBRANCH  12  13
ENDBRANCH  11  12
ENDBRANCH   1  11
BRANCH  10  20
HETATM   20  O3  UNL     1      20.778   3.353  50.558  1.00  0.00    -0.353 OA
HETATM   21  C19 UNL     1      20.459   4.588  51.111  1.00  0.00     0.210 C 
ENDBRANCH  10  20
BRANCH   4  22
HETATM   22  N2  UNL     1      25.020  -0.808  52.978  1.00  0.00    -0.338 N 
HETATM   23  H12 UNL     1      25.308  -1.637  52.417  1.00  0.00     0.167 HD
BRANCH  22  24
HETATM   24  C9  UNL     1      26.218  -0.134  53.345  1.00  0.00     0.069 A 
HETATM   25  C10 UNL     1      26.499   1.067  53.817  1.00  0.00     0.124 A 
HETATM   26  F1  UNL     1      25.644   2.070  54.105  1.00  0.00    -0.208 F 
HETATM   27  C11 UNL     1      27.964   1.189  54.006  1.00  0.00     0.106 A 
HETATM   28  C12 UNL     1      28.508  -0.138  53.568  1.00  0.00    -0.075 A 
HETATM   29  C13 UNL     1      29.956  -0.478  53.585  1.00  0.00     0.044 C 
HETATM   30  C14 UNL     1      27.474  -0.895  53.187  1.00  0.00     0.035 A 
ENDBRANCH  22  24
ENDBRANCH   4  22
TORSDOF 9
ENDMDL
MODEL 6
REMARK VINA RESULT:      -6.9      3.800      7.531
REMARK  9 active torsions:
REMARK  status: ('A' for Active; 'I' for Inactive)
REMARK    1  A    between atoms: N1_2  and  C2_3 
REMARK    2  A    between atoms: C2_3  and  C3_4 
REMARK    3  A    between atoms: C3_4  and  O1_5 
REMARK    4  A    between atoms: C3_4  and  C4_6 
REMARK    5  A    between atoms: C4_6  and  O2_7 
REMARK    6  A    between atoms: O2_7  and  C5_8 
REMARK    7  A    between atoms: C8_11  and  N2_12 
REMARK    8  A    between atoms: N2_12  and  C9_13 
REMARK    9  A    between atoms: C18_25  and  O3_26 
ROOT
HETATM    1  C5  UNL     1      21.495   0.554  52.092  1.00  0.00     0.103 A 
HETATM    2  C6  UNL     1      22.814   0.454  52.466  1.00  0.00     0.057 A 
HETATM    3  C7  UNL     1      23.264  -0.210  53.581  1.00  0.00     0.042 A 
HETATM    4  C8  UNL     1      24.622  -0.210  53.802  1.00  0.00     0.142 A 
HETATM    5  N3  UNL     1      25.072  -0.857  54.891  1.00  0.00    -0.224 NA
HETATM    6  C15 UNL     1      24.196  -1.482  55.730  1.00  0.00     0.236 A 
HETATM    7  N4  UNL     1      22.861  -1.450  55.463  1.00  0.00    -0.241 NA
HETATM    8  C16 UNL     1      22.350  -0.820  54.392  1.00  0.00     0.075 A 
HETATM    9  C17 UNL     1      21.010  -0.769  54.094  1.00  0.00     0.072 A 
HETATM   10  C18 UNL     1      20.592  -0.083  52.947  1.00  0.00     0.103 A 
ENDROOT
BRANCH   1  11
HETATM   11  O2  UNL     1      20.835   1.137  51.066  1.00  0.00    -0.346 OA
BRANCH  11  12
HETATM   12  C4  UNL     1      20.868   0.862  49.705  1.00  0.00     0.209 C 
BRANCH  12  13
HETATM   13  C3  UNL     1      20.858   2.064  48.798  1.00  0.00     0.170 C 
BRANCH  13  14
HETATM   14  C2  UNL     1      21.030   3.294  49.683  1.00  0.00     0.302 C 
BRANCH  14  15
HETATM   15  N1  UNL     1      22.474   3.448  49.896  1.00  0.00     0.081 N 
HETATM   16  C1  UNL     1      23.074   3.640  48.582  1.00  0.00     0.306 C 
HETATM   17  H4  UNL     1      22.587   4.298  50.495  1.00  0.00     0.315 HD
ENDBRANCH  14  15
ENDBRANCH  13  14
BRANCH  13  18
HETATM   18  O1  UNL     1      19.637   2.165  48.124  1.00  0.00    -0.392 OA
HETATM   19  H8  UNL     1      19.134   1.315  48.217  1.00  0.00     0.210 HD
ENDBRANCH  13  18
ENDBRANCH  12  13
ENDBRANCH  11  12
ENDBRANCH   1  11
BRANCH  10  20
HETATM   20  O3  UNL     1      19.215  -0.114  52.773  1.00  0.00    -0.353 OA
HETATM   21  C19 UNL     1      18.408  -1.122  53.288  1.00  0.00     0.210 C 
ENDBRANCH  10  20
BRANCH   4  22
HETATM   22  N2  UNL     1      25.606   0.410  52.988  1.00  0.00    -0.338 N 
HETATM   23  H12 UNL     1      25.498   0.950  52.104  1.00  0.00     0.167 HD
BRANCH  22  24
HETATM   24  C9  UNL     1      26.999   0.386  53.277  1.00  0.00     0.069 A 
HETATM   25  C10 UNL     1      27.888   1.296  53.634  1.00  0.00     0.124 A 
HETATM   26  F1  UNL     1      27.694   2.615  53.838  1.00  0.00    -0.208 F 
HETATM   27  C11 UNL     1      29.212   0.651  53.794  1.00  0.00     0.106 A 
HETATM   28  C12 UNL     1      28.964  -0.793  53.474  1.00  0.00    -0.075 A 
HETATM   29  C13 UNL     1      30.026  -1.835  53.505  1.00  0.00     0.044 C 
HETATM   30  C14 UNL     1      27.668  -0.926  53.175  1.00  0.00     0.035 A 
ENDBRANCH  22  24
ENDBRANCH   4  22
TORSDOF 9
ENDMDL
MODEL 7
REMARK VINA RESULT:      -6.9      2.267      2.823
REMARK  9 active torsions:
REMARK  status: ('A' for Active; 'I' for Inactive)
REMARK    1  A    between atoms: N1_2  and  C2_3 
REMARK    2  A    between atoms: C2_3  and  C3_4 
REMARK    3  A    between atoms: C3_4  and  O1_5 
REMARK    4  A    between atoms: C3_4  and  C4_6 
REMARK    5  A    between atoms: C4_6  and  O2_7 
REMARK    6  A    between atoms: O2_7  and  C5_8 
REMARK    7  A    between atoms: C8_11  and  N2_12 
REMARK    8  A    between atoms: N2_12  and  C9_13 
REMARK    9  A    between atoms: C18_25  and  O3_26 
ROOT
HETATM    1  C5  UNL     1      23.487   0.621  52.572  1.00  0.00     0.103 A 
HETATM    2  C6  UNL     1      23.089   1.559  51.650  1.00  0.00     0.057 A 
HETATM    3  C7  UNL     1      21.875   2.203  51.662  1.00  0.00     0.042 A 
HETATM    4  C8  UNL     1      21.644   3.117  50.661  1.00  0.00     0.142 A 
HETATM    5  N3  UNL     1      20.459   3.752  50.663  1.00  0.00    -0.224 NA
HETATM    6  C15 UNL     1      19.538   3.484  51.634  1.00  0.00     0.236 A 
HETATM    7  N4  UNL     1      19.820   2.569  52.603  1.00  0.00    -0.241 NA
HETATM    8  C16 UNL     1      20.986   1.902  52.653  1.00  0.00     0.075 A 
HETATM    9  C17 UNL     1      21.301   0.974  53.615  1.00  0.00     0.072 A 
HETATM   10  C18 UNL     1      22.549   0.340  53.568  1.00  0.00     0.103 A 
ENDROOT
BRANCH   1  11
HETATM   11  O2  UNL     1      24.601  -0.122  52.757  1.00  0.00    -0.346 OA
BRANCH  11  12
HETATM   12  C4  UNL     1      25.891   0.262  53.104  1.00  0.00     0.209 C 
BRANCH  12  13
HETATM   13  C3  UNL     1      26.195   0.260  54.579  1.00  0.00     0.170 C 
BRANCH  13  14
HETATM   14  C2  UNL     1      27.712   0.237  54.724  1.00  0.00     0.302 C 
BRANCH  14  15
HETATM   15  N1  UNL     1      28.170  -0.985  54.052  1.00  0.00     0.081 N 
HETATM   16  C1  UNL     1      29.474  -0.682  53.475  1.00  0.00     0.306 C 
HETATM   17  H4  UNL     1      28.243  -1.714  54.798  1.00  0.00     0.315 HD
ENDBRANCH  14  15
ENDBRANCH  13  14
BRANCH  13  18
HETATM   18  O1  UNL     1      25.669  -0.884  55.190  1.00  0.00    -0.392 OA
HETATM   19  H8  UNL     1      24.997  -0.619  55.870  1.00  0.00     0.210 HD
ENDBRANCH  13  18
ENDBRANCH  12  13
ENDBRANCH  11  12
ENDBRANCH   1  11
BRANCH  10  20
HETATM   20  O3  UNL     1      22.730  -0.570  54.601  1.00  0.00    -0.353 OA
HETATM   21  C19 UNL     1      21.932  -1.697  54.768  1.00  0.00     0.210 C 
ENDBRANCH  10  20
BRANCH   4  22
HETATM   22  N2  UNL     1      22.538   3.460  49.612  1.00  0.00    -0.338 N 
HETATM   23  H12 UNL     1      22.539   3.168  48.612  1.00  0.00     0.167 HD
BRANCH  22  24
HETATM   24  C9  UNL     1      23.657   4.323  49.781  1.00  0.00     0.069 A 
HETATM   25  C10 UNL     1      23.852   5.481  50.387  1.00  0.00     0.124 A 
HETATM   26  F1  UNL     1      22.959   6.222  51.074  1.00  0.00    -0.208 F 
HETATM   27  C11 UNL     1      25.265   5.893  50.212  1.00  0.00     0.106 A 
HETATM   28  C12 UNL     1      25.877   4.791  49.400  1.00  0.00    -0.075 A 
HETATM   29  C13 UNL     1      27.303   4.777  48.977  1.00  0.00     0.044 C 
HETATM   30  C14 UNL     1      24.923   3.886  49.160  1.00  0.00     0.035 A 
ENDBRANCH  22  24
ENDBRANCH   4  22
TORSDOF 9
ENDMDL
MODEL 8
REMARK VINA RESULT:      -6.9      3.165      7.081
REMARK  9 active torsions:
REMARK  status: ('A' for Active; 'I' for Inactive)
REMARK    1  A    between atoms: N1_2  and  C2_3 
REMARK    2  A    between atoms: C2_3  and  C3_4 
REMARK    3  A    between atoms: C3_4  and  O1_5 
REMARK    4  A    between atoms: C3_4  and  C4_6 
REMARK    5  A    between atoms: C4_6  and  O2_7 
REMARK    6  A    between atoms: O2_7  and  C5_8 
REMARK    7  A    between atoms: C8_11  and  N2_12 
REMARK    8  A    between atoms: N2_12  and  C9_13 
REMARK    9  A    between atoms: C18_25  and  O3_26 
ROOT
HETATM    1  C5  UNL     1      24.094   2.798  50.461  1.00  0.00     0.103 A 
HETATM    2  C6  UNL     1      24.465   2.037  51.544  1.00  0.00     0.057 A 
HETATM    3  C7  UNL     1      23.672   1.088  52.142  1.00  0.00     0.042 A 
HETATM    4  C8  UNL     1      24.207   0.417  53.218  1.00  0.00     0.142 A 
HETATM    5  N3  UNL     1      23.439  -0.513  53.812  1.00  0.00    -0.224 NA
HETATM    6  C15 UNL     1      22.181  -0.765  53.346  1.00  0.00     0.236 A 
HETATM    7  N4  UNL     1      21.702  -0.071  52.277  1.00  0.00    -0.241 NA
HETATM    8  C16 UNL     1      22.421   0.871  51.642  1.00  0.00     0.075 A 
HETATM    9  C17 UNL     1      21.968   1.588  50.562  1.00  0.00     0.072 A 
HETATM   10  C18 UNL     1      22.807   2.546  49.979  1.00  0.00     0.103 A 
ENDROOT
BRANCH   1  11
HETATM   11  O2  UNL     1      24.688   3.762  49.722  1.00  0.00    -0.346 OA
BRANCH  11  12
HETATM   12  C4  UNL     1      25.406   4.883  50.119  1.00  0.00     0.209 C 
BRANCH  12  13
HETATM   13  C3  UNL     1      24.583   6.111  50.412  1.00  0.00     0.170 C 
BRANCH  13  14
HETATM   14  C2  UNL     1      25.302   7.295  49.777  1.00  0.00     0.302 C 
BRANCH  14  15
HETATM   15  N1  UNL     1      26.317   7.726  50.746  1.00  0.00     0.081 N 
HETATM   16  C1  UNL     1      26.976   8.893  50.172  1.00  0.00     0.306 C 
HETATM   17  H4  UNL     1      25.795   7.974  51.618  1.00  0.00     0.315 HD
ENDBRANCH  14  15
ENDBRANCH  13  14
BRANCH  13  18
HETATM   18  O1  UNL     1      24.494   6.328  51.791  1.00  0.00    -0.392 OA
HETATM   19  H8  UNL     1      24.935   7.186  52.023  1.00  0.00     0.210 HD
ENDBRANCH  13  18
ENDBRANCH  12  13
ENDBRANCH  11  12
ENDBRANCH   1  11
BRANCH  10  20
HETATM   20  O3  UNL     1      22.218   3.191  48.899  1.00  0.00    -0.353 OA
HETATM   21  C19 UNL     1      21.274   4.201  49.041  1.00  0.00     0.210 C 
ENDBRANCH  10  20
BRANCH   4  22
HETATM   22  N2  UNL     1      25.501   0.611  53.771  1.00  0.00    -0.338 N 
HETATM   23  H12 UNL     1      25.838   1.329  54.446  1.00  0.00     0.167 HD
BRANCH  22  24
HETATM   24  C9  UNL     1      26.621  -0.210  53.464  1.00  0.00     0.069 A 
HETATM   25  C10 UNL     1      26.782  -1.366  52.843  1.00  0.00     0.124 A 
HETATM   26  F1  UNL     1      25.837  -2.148  52.282  1.00  0.00    -0.208 F 
HETATM   27  C11 UNL     1      28.220  -1.722  52.836  1.00  0.00     0.106 A 
HETATM   28  C12 UNL     1      28.888  -0.589  53.556  1.00  0.00    -0.075 A 
HETATM   29  C13 UNL     1      30.355  -0.517  53.791  1.00  0.00     0.044 C 
HETATM   30  C14 UNL     1      27.938   0.281  53.913  1.00  0.00     0.035 A 
ENDBRANCH  22  24
ENDBRANCH   4  22
TORSDOF 9
ENDMDL
MODEL 9
REMARK VINA RESULT:      -6.9      2.031      2.597
REMARK  9 active torsions:
REMARK  status: ('A' for Active; 'I' for Inactive)
REMARK    1  A    between atoms: N1_2  and  C2_3 
REMARK    2  A    between atoms: C2_3  and  C3_4 
REMARK    3  A    between atoms: C3_4  and  O1_5 
REMARK    4  A    between atoms: C3_4  and  C4_6 
REMARK    5  A    between atoms: C4_6  and  O2_7 
REMARK    6  A    between atoms: O2_7  and  C5_8 
REMARK    7  A    between atoms: C8_11  and  N2_12 
REMARK    8  A    between atoms: N2_12  and  C9_13 
REMARK    9  A    between atoms: C18_25  and  O3_26 
ROOT
HETATM    1  C5  UNL     1      25.490   0.499  52.818  1.00  0.00     0.103 A 
HETATM    2  C6  UNL     1      25.346   1.423  51.811  1.00  0.00     0.057 A 
HETATM    3  C7  UNL     1      24.144   1.924  51.374  1.00  0.00     0.042 A 
HETATM    4  C8  UNL     1      24.185   2.846  50.354  1.00  0.00     0.142 A 
HETATM    5  N3  UNL     1      23.015   3.342  49.918  1.00  0.00    -0.224 NA
HETATM    6  C15 UNL     1      21.842   2.932  50.484  1.00  0.00     0.236 A 
HETATM    7  N4  UNL     1      21.859   2.017  51.493  1.00  0.00    -0.241 NA
HETATM    8  C16 UNL     1      22.997   1.484  51.970  1.00  0.00     0.075 A 
HETATM    9  C17 UNL     1      23.048   0.560  52.985  1.00  0.00     0.072 A 
HETATM   10  C18 UNL     1      24.294   0.074  53.402  1.00  0.00     0.103 A 
ENDROOT
BRANCH   1  11
HETATM   11  O2  UNL     1      26.541  -0.119  53.403  1.00  0.00    -0.346 OA
BRANCH  11  12
HETATM   12  C4  UNL     1      27.639  -0.755  52.836  1.00  0.00     0.209 C 
BRANCH  12  13
HETATM   13  C3  UNL     1      28.758  -1.088  53.787  1.00  0.00     0.170 C 
BRANCH  13  14
HETATM   14  C2  UNL     1      29.882  -0.093  53.522  1.00  0.00     0.302 C 
BRANCH  14  15
HETATM   15  N1  UNL     1      29.238   1.214  53.339  1.00  0.00     0.081 N 
HETATM   16  C1  UNL     1      29.432   1.954  54.580  1.00  0.00     0.306 C 
HETATM   17  H4  UNL     1      29.737   1.670  52.541  1.00  0.00     0.315 HD
ENDBRANCH  14  15
ENDBRANCH  13  14
BRANCH  13  18
HETATM   18  O1  UNL     1      29.239  -2.380  53.550  1.00  0.00    -0.392 OA
HETATM   19  H8  UNL     1      30.231  -2.367  53.524  1.00  0.00     0.210 HD
ENDBRANCH  13  18
ENDBRANCH  12  13
ENDBRANCH  11  12
ENDBRANCH   1  11
BRANCH  10  20
HETATM   20  O3  UNL     1      24.193  -0.850  54.432  1.00  0.00    -0.353 OA
HETATM   21  C19 UNL     1      22.994  -1.150  55.069  1.00  0.00     0.210 C 
ENDBRANCH  10  20
BRANCH   4  22
HETATM   22  N2  UNL     1      25.353   3.331  49.705  1.00  0.00    -0.338 N 
HETATM   23  H12 UNL     1      26.102   2.811  49.203  1.00  0.00     0.167 HD
BRANCH  22  24
HETATM   24  C9  UNL     1      25.704   4.708  49.639  1.00  0.00     0.069 A 
HETATM   25  C10 UNL     1      25.266   5.806  50.229  1.00  0.00     0.124 A 
HETATM   26  F1  UNL     1      24.277   5.925  51.138  1.00  0.00    -0.208 F 
HETATM   27  C11 UNL     1      26.045   6.968  49.741  1.00  0.00     0.106 A 
HETATM   28  C12 UNL     1      27.018   6.380  48.763  1.00  0.00    -0.075 A 
HETATM   29  C13 UNL     1      28.018   7.187  48.014  1.00  0.00     0.044 C 
HETATM   30  C14 UNL     1      26.803   5.061  48.719  1.00  0.00     0.035 A 
ENDBRANCH  22  24
ENDBRANCH   4  22
TORSDOF 9
ENDMDL
