MODEL 1
REMARK VINA RESULT:      -7.4      0.000      0.000
REMARK  7 active torsions:
REMARK  status: ('A' for Active; 'I' for Inactive)
REMARK    1  A    between atoms: C3_3  and  C4_4 
REMARK    2  A    between atoms: C5_5  and  C6_6 
REMARK    3  A    between atoms: C6_6  and  N1_7 
REMARK    4  A    between atoms: N1_7  and  C7_8 
REMARK    5  A    between atoms: C16_21  and  C17_22 
REMARK    6  A    between atoms: C17_22  and  C18_23 
REMARK    7  A    between atoms: C18_23  and  O2_24 
ROOT
HETATM    1  C7  UNL     1      21.956   2.542  50.515  1.00  0.00     0.137 A 
HETATM    2  N2  UNL     1      21.866   3.702  49.885  1.00  0.00    -0.224 NA
HETATM    3  C8  UNL     1      22.867   4.588  49.788  1.00  0.00     0.235 A 
HETATM    4  N3  UNL     1      24.076   4.326  50.357  1.00  0.00    -0.241 NA
HETATM    5  C9  UNL     1      24.215   3.171  51.002  1.00  0.00     0.075 A 
HETATM    6  C10 UNL     1      25.434   2.891  51.584  1.00  0.00     0.072 A 
HETATM    7  C11 UNL     1      25.654   1.709  52.272  1.00  0.00     0.105 A 
HETATM    8  C12 UNL     1      24.602   0.826  52.348  1.00  0.00     0.105 A 
HETATM    9  C13 UNL     1      23.362   1.094  51.764  1.00  0.00     0.057 A 
HETATM   10  C14 UNL     1      23.171   2.279  51.086  1.00  0.00     0.041 A 
HETATM   11  O1  UNL     1      24.737  -0.365  53.009  1.00  0.00    -0.325 OA
HETATM   12  C15 UNL     1      25.783  -0.692  53.912  1.00  0.00     0.254 C 
HETATM   13 CL1  UNL     1      24.991  -1.010  55.494  1.00  0.00    -0.092 Cl
HETATM   14  C16 UNL     1      26.660   0.489  54.090  1.00  0.00     0.175 C 
HETATM   15  O3  UNL     1      26.799   1.287  52.901  1.00  0.00    -0.339 OA
ENDROOT
BRANCH   1  16
HETATM   16  N1  UNL     1      20.828   1.644  50.571  1.00  0.00    -0.371 N 
HETATM   17  H10 UNL     1      20.628   0.874  49.910  1.00  0.00     0.161 HD
BRANCH  16  18
HETATM   18  C6  UNL     1      19.880   1.835  51.656  1.00  0.00     0.148 C 
BRANCH  18  19
HETATM   19  C5  UNL     1      19.384   0.545  52.143  1.00  0.00    -0.007 C 
HETATM   20  C4  UNL     1      19.654  -0.147  53.236  1.00  0.00    -0.003 C 
BRANCH  20  21
HETATM   21  C3  UNL     1      20.597   0.334  54.229  1.00  0.00    -0.005 C 
HETATM   22  C2  UNL     1      21.516  -0.439  54.734  1.00  0.00    -0.031 C 
HETATM   23  C1  UNL     1      21.800  -1.866  54.447  1.00  0.00     0.036 C 
ENDBRANCH  20  21
ENDBRANCH  18  19
ENDBRANCH  16  18
ENDBRANCH   1  16
BRANCH  14  24
HETATM   24  C17 UNL     1      27.995   0.261  54.724  1.00  0.00     0.062 C 
BRANCH  24  25
HETATM   25  C18 UNL     1      29.190   0.656  53.952  1.00  0.00     0.169 C 
BRANCH  25  26
HETATM   26  O2  UNL     1      30.111  -0.318  53.668  1.00  0.00    -0.396 OA
HETATM   27  C19 UNL     1      29.466  -1.531  53.393  1.00  0.00     0.201 C 
ENDBRANCH  25  26
ENDBRANCH  24  25
ENDBRANCH  14  24
TORSDOF 7
ENDMDL
MODEL 2
REMARK VINA RESULT:      -7.4      3.609      7.373
REMARK  7 active torsions:
REMARK  status: ('A' for Active; 'I' for Inactive)
REMARK    1  A    between atoms: C3_3  and  C4_4 
REMARK    2  A    between atoms: C5_5  and  C6_6 
REMARK    3  A    between atoms: C6_6  and  N1_7 
REMARK    4  A    between atoms: N1_7  and  C7_8 
REMARK    5  A    between atoms: C16_21  and  C17_22 
REMARK    6  A    between atoms: C17_22  and  C18_23 
REMARK    7  A    between atoms: C18_23  and  O2_24 
ROOT
HETATM    1  C7  UNL     1      26.328   0.509  54.540  1.00  0.00     0.137 A 
HETATM    2  N2  UNL     1      25.851  -0.477  55.280  1.00  0.00    -0.224 NA
HETATM    3  C8  UNL     1      24.666  -1.071  55.075  1.00  0.00     0.235 A 
HETATM    4  N3  UNL     1      23.864  -0.670  54.051  1.00  0.00    -0.241 NA
HETATM    5  C9  UNL     1      24.301   0.321  53.278  1.00  0.00     0.075 A 
HETATM    6  C10 UNL     1      23.498   0.738  52.237  1.00  0.00     0.072 A 
HETATM    7  C11 UNL     1      23.886   1.763  51.389  1.00  0.00     0.105 A 
HETATM    8  C12 UNL     1      25.108   2.346  51.632  1.00  0.00     0.105 A 
HETATM    9  C13 UNL     1      25.932   1.934  52.682  1.00  0.00     0.057 A 
HETATM   10  C14 UNL     1      25.520   0.911  53.511  1.00  0.00     0.041 A 
HETATM   11  O1  UNL     1      25.566   3.364  50.841  1.00  0.00    -0.325 OA
HETATM   12  C15 UNL     1      24.777   4.123  49.937  1.00  0.00     0.254 C 
HETATM   13 CL1  UNL     1      24.862   5.823  50.511  1.00  0.00    -0.092 Cl
HETATM   14  C16 UNL     1      23.363   3.693  50.045  1.00  0.00     0.175 C 
HETATM   15  O3  UNL     1      23.208   2.289  50.318  1.00  0.00    -0.339 OA
ENDROOT
BRANCH   1  16
HETATM   16  N1  UNL     1      27.616   1.092  54.829  1.00  0.00    -0.371 N 
HETATM   17  H10 UNL     1      27.821   2.101  54.926  1.00  0.00     0.161 HD
BRANCH  16  18
HETATM   18  C6  UNL     1      28.734   0.180  55.004  1.00  0.00     0.148 C 
BRANCH  18  19
HETATM   19  C5  UNL     1      29.465   0.009  53.747  1.00  0.00    -0.007 C 
HETATM   20  C4  UNL     1      29.694  -1.056  52.998  1.00  0.00    -0.003 C 
BRANCH  20  21
HETATM   21  C3  UNL     1      29.189  -2.367  53.363  1.00  0.00    -0.005 C 
HETATM   22  C2  UNL     1      28.017  -2.784  52.976  1.00  0.00    -0.031 C 
HETATM   23  C1  UNL     1      27.005  -2.088  52.143  1.00  0.00     0.036 C 
ENDBRANCH  20  21
ENDBRANCH  18  19
ENDBRANCH  16  18
ENDBRANCH   1  16
BRANCH  14  24
HETATM   24  C17 UNL     1      22.433   4.118  48.954  1.00  0.00     0.062 C 
BRANCH  24  25
HETATM   25  C18 UNL     1      21.014   4.314  49.309  1.00  0.00     0.169 C 
BRANCH  25  26
HETATM   26  O2  UNL     1      20.165   3.253  49.133  1.00  0.00    -0.396 OA
HETATM   27  C19 UNL     1      20.430   2.615  47.915  1.00  0.00     0.201 C 
ENDBRANCH  25  26
ENDBRANCH  24  25
ENDBRANCH  14  24
TORSDOF 7
ENDMDL
MODEL 3
REMARK VINA RESULT:      -7.3      3.589      7.741
REMARK  7 active torsions:
REMARK  status: ('A' for Active; 'I' for Inactive)
REMARK    1  A    between atoms: C3_3  and  C4_4 
REMARK    2  A    between atoms: C5_5  and  C6_6 
REMARK    3  A    between atoms: C6_6  and  N1_7 
REMARK    4  A    between atoms: N1_7  and  C7_8 
REMARK    5  A    between atoms: C16_21  and  C17_22 
REMARK    6  A    between atoms: C17_22  and  C18_23 
REMARK    7  A    between atoms: C18_23  and  O2_24 
ROOT
HETATM    1  C7  UNL     1      26.849   1.838  52.754  1.00  0.00     0.137 A 
HETATM    2  N2  UNL     1      27.935   1.440  53.396  1.00  0.00    -0.224 NA
HETATM    3  C8  UNL     1      27.978   0.389  54.229  1.00  0.00     0.235 A 
HETATM    4  N3  UNL     1      26.859  -0.350  54.462  1.00  0.00    -0.241 NA
HETATM    5  C9  UNL     1      25.741   0.013  53.838  1.00  0.00     0.075 A 
HETATM    6  C10 UNL     1      24.598  -0.726  54.065  1.00  0.00     0.072 A 
HETATM    7  C11 UNL     1      23.398  -0.411  53.451  1.00  0.00     0.105 A 
HETATM    8  C12 UNL     1      23.395   0.673  52.604  1.00  0.00     0.105 A 
HETATM    9  C13 UNL     1      24.543   1.431  52.365  1.00  0.00     0.057 A 
HETATM   10  C14 UNL     1      25.725   1.094  52.990  1.00  0.00     0.041 A 
HETATM   11  O1  UNL     1      22.250   1.052  51.958  1.00  0.00    -0.325 OA
HETATM   12  C15 UNL     1      20.937   0.622  52.288  1.00  0.00     0.254 C 
HETATM   13 CL1  UNL     1      20.027   2.106  52.733  1.00  0.00    -0.092 Cl
HETATM   14  C16 UNL     1      20.994  -0.236  53.495  1.00  0.00     0.175 C 
HETATM   15  O3  UNL     1      22.184  -1.042  53.572  1.00  0.00    -0.339 OA
ENDROOT
BRANCH   1  16
HETATM   16  N1  UNL     1      26.891   2.981  51.875  1.00  0.00    -0.371 N 
HETATM   17  H10 UNL     1      27.080   3.958  52.153  1.00  0.00     0.161 HD
BRANCH  16  18
HETATM   18  C6  UNL     1      26.646   2.741  50.462  1.00  0.00     0.148 C 
BRANCH  18  19
HETATM   19  C5  UNL     1      26.014   3.907  49.840  1.00  0.00    -0.007 C 
HETATM   20  C4  UNL     1      26.490   4.845  49.039  1.00  0.00    -0.003 C 
BRANCH  20  21
HETATM   21  C3  UNL     1      27.876   4.850  48.610  1.00  0.00    -0.005 C 
HETATM   22  C2  UNL     1      28.461   5.934  48.187  1.00  0.00    -0.031 C 
HETATM   23  C1  UNL     1      27.907   7.304  48.053  1.00  0.00     0.036 C 
ENDBRANCH  20  21
ENDBRANCH  18  19
ENDBRANCH  16  18
ENDBRANCH   1  16
BRANCH  14  24
HETATM   24  C17 UNL     1      19.786  -1.059  53.807  1.00  0.00     0.062 C 
BRANCH  24  25
HETATM   25  C18 UNL     1      18.593  -0.865  52.961  1.00  0.00     0.169 C 
BRANCH  25  26
HETATM   26  O2  UNL     1      17.366  -0.988  53.557  1.00  0.00    -0.396 OA
HETATM   27  C19 UNL     1      16.352  -0.629  52.659  1.00  0.00     0.201 C 
ENDBRANCH  25  26
ENDBRANCH  24  25
ENDBRANCH  14  24
TORSDOF 7
ENDMDL
MODEL 4
REMARK VINA RESULT:      -7.3      2.029      4.274
REMARK  7 active torsions:
REMARK  status: ('A' for Active; 'I' for Inactive)
REMARK    1  A    between atoms: C3_3  and  C4_4 
REMARK    2  A    between atoms: C5_5  and  C6_6 
REMARK    3  A    between atoms: C6_6  and  N1_7 
REMARK    4  A    between atoms: N1_7  and  C7_8 
REMARK    5  A    between atoms: C16_21  and  C17_22 
REMARK    6  A    between atoms: C17_22  and  C18_23 
REMARK    7  A    between atoms: C18_23  and  O2_24 
ROOT
HETATM    1  C7  UNL     1      20.067   0.896  52.325  1.00  0.00     0.137 A 
HETATM    2  N2  UNL     1      19.050   0.107  52.631  1.00  0.00    -0.224 NA
HETATM    3  C8  UNL     1      19.153  -1.001  53.380  1.00  0.00     0.235 A 
HETATM    4  N3  UNL     1      20.359  -1.382  53.883  1.00  0.00    -0.241 NA
HETATM    5  C9  UNL     1      21.412  -0.619  53.602  1.00  0.00     0.075 A 
HETATM    6  C10 UNL     1      22.641  -0.993  54.105  1.00  0.00     0.072 A 
HETATM    7  C11 UNL     1      23.782  -0.249  53.855  1.00  0.00     0.105 A 
HETATM    8  C12 UNL     1      23.636   0.880  53.084  1.00  0.00     0.105 A 
HETATM    9  C13 UNL     1      22.398   1.272  52.568  1.00  0.00     0.057 A 
HETATM   10  C14 UNL     1      21.278   0.512  52.832  1.00  0.00     0.041 A 
HETATM   11  O1  UNL     1      24.713   1.671  52.791  1.00  0.00    -0.325 OA
HETATM   12  C15 UNL     1      26.075   1.299  52.950  1.00  0.00     0.254 C 
HETATM   13 CL1  UNL     1      26.802   1.365  51.309  1.00  0.00    -0.092 Cl
HETATM   14  C16 UNL     1      26.145  -0.109  53.405  1.00  0.00     0.175 C 
HETATM   15  O3  UNL     1      25.066  -0.486  54.279  1.00  0.00    -0.339 OA
ENDROOT
BRANCH   1  16
HETATM   16  N1  UNL     1      19.868   2.072  51.513  1.00  0.00    -0.371 N 
HETATM   17  H10 UNL     1      19.936   3.053  51.833  1.00  0.00     0.161 HD
BRANCH  16  18
HETATM   18  C6  UNL     1      19.545   1.864  50.111  1.00  0.00     0.148 C 
BRANCH  18  19
HETATM   19  C5  UNL     1      20.576   1.057  49.455  1.00  0.00    -0.007 C 
HETATM   20  C4  UNL     1      21.565   1.383  48.640  1.00  0.00    -0.003 C 
BRANCH  20  21
HETATM   21  C3  UNL     1      21.794   2.757  48.233  1.00  0.00    -0.005 C 
HETATM   22  C2  UNL     1      22.817   3.439  48.663  1.00  0.00    -0.031 C 
HETATM   23  C1  UNL     1      23.898   3.021  49.588  1.00  0.00     0.036 C 
ENDBRANCH  20  21
ENDBRANCH  18  19
ENDBRANCH  16  18
ENDBRANCH   1  16
BRANCH  14  24
HETATM   24  C17 UNL     1      27.452  -0.586  53.955  1.00  0.00     0.062 C 
BRANCH  24  25
HETATM   25  C18 UNL     1      28.303   0.404  54.641  1.00  0.00     0.169 C 
BRANCH  25  26
HETATM   26  O2  UNL     1      29.596   0.537  54.209  1.00  0.00    -0.396 OA
HETATM   27  C19 UNL     1      29.998  -0.615  53.519  1.00  0.00     0.201 C 
ENDBRANCH  25  26
ENDBRANCH  24  25
ENDBRANCH  14  24
TORSDOF 7
ENDMDL
MODEL 5
REMARK VINA RESULT:      -7.2      3.639      5.584
REMARK  7 active torsions:
REMARK  status: ('A' for Active; 'I' for Inactive)
REMARK    1  A    between atoms: C3_3  and  C4_4 
REMARK    2  A    between atoms: C5_5  and  C6_6 
REMARK    3  A    between atoms: C6_6  and  N1_7 
REMARK    4  A    between atoms: N1_7  and  C7_8 
REMARK    5  A    between atoms: C16_21  and  C17_22 
REMARK    6  A    between atoms: C17_22  and  C18_23 
REMARK    7  A    between atoms: C18_23  and  O2_24 
ROOT
HETATM    1  C7  UNL     1      25.249  -0.531  53.202  1.00  0.00     0.137 A 
HETATM    2  N2  UNL     1      26.332  -1.105  53.701  1.00  0.00    -0.224 NA
HETATM    3  C8  UNL     1      27.572  -0.610  53.581  1.00  0.00     0.235 A 
HETATM    4  N3  UNL     1      27.786   0.556  52.913  1.00  0.00    -0.241 NA
HETATM    5  C9  UNL     1      26.727   1.171  52.392  1.00  0.00     0.075 A 
HETATM    6  C10 UNL     1      26.928   2.353  51.711  1.00  0.00     0.072 A 
HETATM    7  C11 UNL     1      25.874   3.050  51.144  1.00  0.00     0.105 A 
HETATM    8  C12 UNL     1      24.617   2.510  51.289  1.00  0.00     0.105 A 
HETATM    9  C13 UNL     1      24.398   1.314  51.976  1.00  0.00     0.057 A 
HETATM   10  C14 UNL     1      25.465   0.641  52.531  1.00  0.00     0.041 A 
HETATM   11  O1  UNL     1      23.522   3.136  50.758  1.00  0.00    -0.325 OA
HETATM   12  C15 UNL     1      23.556   4.170  49.785  1.00  0.00     0.254 C 
HETATM   13 CL1  UNL     1      22.683   3.531  48.352  1.00  0.00    -0.092 Cl
HETATM   14  C16 UNL     1      24.959   4.408  49.375  1.00  0.00     0.175 C 
HETATM   15  O3  UNL     1      25.909   4.229  50.441  1.00  0.00    -0.339 OA
ENDROOT
BRANCH   1  16
HETATM   16  N1  UNL     1      23.949  -1.132  53.379  1.00  0.00    -0.371 N 
HETATM   17  H10 UNL     1      23.427  -1.675  52.670  1.00  0.00     0.161 HD
BRANCH  16  18
HETATM   18  C6  UNL     1      23.309  -0.963  54.673  1.00  0.00     0.148 C 
BRANCH  18  19
HETATM   19  C5  UNL     1      21.910  -1.395  54.619  1.00  0.00    -0.007 C 
HETATM   20  C4  UNL     1      20.795  -0.740  54.347  1.00  0.00    -0.003 C 
BRANCH  20  21
HETATM   21  C3  UNL     1      20.802   0.674  54.022  1.00  0.00    -0.005 C 
HETATM   22  C2  UNL     1      20.811   1.095  52.789  1.00  0.00    -0.031 C 
HETATM   23  C1  UNL     1      20.814   0.308  51.532  1.00  0.00     0.036 C 
ENDBRANCH  20  21
ENDBRANCH  18  19
ENDBRANCH  16  18
ENDBRANCH   1  16
BRANCH  14  24
HETATM   24  C17 UNL     1      25.249   5.668  48.624  1.00  0.00     0.062 C 
BRANCH  24  25
HETATM   25  C18 UNL     1      26.433   6.447  49.036  1.00  0.00     0.169 C 
BRANCH  25  26
HETATM   26  O2  UNL     1      27.442   6.598  48.121  1.00  0.00    -0.396 OA
HETATM   27  C19 UNL     1      28.438   5.636  48.333  1.00  0.00     0.201 C 
ENDBRANCH  25  26
ENDBRANCH  24  25
ENDBRANCH  14  24
TORSDOF 7
ENDMDL
MODEL 6
REMARK VINA RESULT:      -7.2      2.626      6.685
REMARK  7 active torsions:
REMARK  status: ('A' for Active; 'I' for Inactive)
REMARK    1  A    between atoms: C3_3  and  C4_4 
REMARK    2  A    between atoms: C5_5  and  C6_6 
REMARK    3  A    between atoms: C6_6  and  N1_7 
REMARK    4  A    between atoms: N1_7  and  C7_8 
REMARK    5  A    between atoms: C16_21  and  C17_22 
REMARK    6  A    between atoms: C17_22  and  C18_23 
REMARK    7  A    between atoms: C18_23  and  O2_24 
ROOT
HETATM    1  C7  UNL     1      26.164   2.626  51.964  1.00  0.00     0.137 A 
HETATM    2  N2  UNL     1      26.759   3.113  50.887  1.00  0.00    -0.224 NA
HETATM    3  C8  UNL     1      26.148   3.306  49.709  1.00  0.00     0.235 A 
HETATM    4  N3  UNL     1      24.831   2.999  49.558  1.00  0.00    -0.241 NA
HETATM    5  C9  UNL     1      24.189   2.506  50.614  1.00  0.00     0.075 A 
HETATM    6  C10 UNL     1      22.854   2.189  50.476  1.00  0.00     0.072 A 
HETATM    7  C11 UNL     1      22.119   1.672  51.531  1.00  0.00     0.105 A 
HETATM    8  C12 UNL     1      22.781   1.489  52.723  1.00  0.00     0.105 A 
HETATM    9  C13 UNL     1      24.133   1.805  52.878  1.00  0.00     0.057 A 
HETATM   10  C14 UNL     1      24.840   2.318  51.811  1.00  0.00     0.041 A 
HETATM   11  O1  UNL     1      22.128   0.983  53.814  1.00  0.00    -0.325 OA
HETATM   12  C15 UNL     1      20.870   0.325  53.789  1.00  0.00     0.254 C 
HETATM   13 CL1  UNL     1      21.168  -1.337  54.403  1.00  0.00    -0.092 Cl
HETATM   14  C16 UNL     1      20.414   0.198  52.385  1.00  0.00     0.175 C 
HETATM   15  O3  UNL     1      20.795   1.310  51.553  1.00  0.00    -0.339 OA
ENDROOT
BRANCH   1  16
HETATM   16  N1  UNL     1      26.896   2.450  53.194  1.00  0.00    -0.371 N 
HETATM   17  H10 UNL     1      26.513   2.543  54.150  1.00  0.00     0.161 HD
BRANCH  16  18
HETATM   18  C6  UNL     1      28.305   2.109  53.087  1.00  0.00     0.148 C 
BRANCH  18  19
HETATM   19  C5  UNL     1      28.668   1.091  54.075  1.00  0.00    -0.007 C 
HETATM   20  C4  UNL     1      28.478  -0.217  54.104  1.00  0.00    -0.003 C 
BRANCH  20  21
HETATM   21  C3  UNL     1      27.798  -0.912  53.027  1.00  0.00    -0.005 C 
HETATM   22  C2  UNL     1      26.527  -1.190  53.083  1.00  0.00    -0.031 C 
HETATM   23  C1  UNL     1      25.551  -0.892  54.160  1.00  0.00     0.036 C 
ENDBRANCH  20  21
ENDBRANCH  18  19
ENDBRANCH  16  18
ENDBRANCH   1  16
BRANCH  14  24
HETATM   24  C17 UNL     1      18.978  -0.152  52.160  1.00  0.00     0.062 C 
BRANCH  24  25
HETATM   25  C18 UNL     1      18.358  -1.112  53.094  1.00  0.00     0.169 C 
BRANCH  25  26
HETATM   26  O2  UNL     1      17.056  -0.892  53.456  1.00  0.00    -0.396 OA
HETATM   27  C19 UNL     1      16.328  -0.388  52.370  1.00  0.00     0.201 C 
ENDBRANCH  25  26
ENDBRANCH  24  25
ENDBRANCH  14  24
TORSDOF 7
ENDMDL
MODEL 7
REMARK VINA RESULT:      -7.2      2.367      4.728
REMARK  7 active torsions:
REMARK  status: ('A' for Active; 'I' for Inactive)
REMARK    1  A    between atoms: C3_3  and  C4_4 
REMARK    2  A    between atoms: C5_5  and  C6_6 
REMARK    3  A    between atoms: C6_6  and  N1_7 
REMARK    4  A    between atoms: N1_7  and  C7_8 
REMARK    5  A    between atoms: C16_21  and  C17_22 
REMARK    6  A    between atoms: C17_22  and  C18_23 
REMARK    7  A    between atoms: C18_23  and  O2_24 
ROOT
HETATM    1  C7  UNL     1      22.124   5.109  51.557  1.00  0.00     0.137 A 
HETATM    2  N2  UNL     1      20.958   5.062  50.933  1.00  0.00    -0.224 NA
HETATM    3  C8  UNL     1      20.275   3.933  50.694  1.00  0.00     0.235 A 
HETATM    4  N3  UNL     1      20.769   2.731  51.100  1.00  0.00    -0.241 NA
HETATM    5  C9  UNL     1      21.939   2.728  51.732  1.00  0.00     0.075 A 
HETATM    6  C10 UNL     1      22.453   1.517  52.148  1.00  0.00     0.072 A 
HETATM    7  C11 UNL     1      23.665   1.435  52.812  1.00  0.00     0.105 A 
HETATM    8  C12 UNL     1      24.335   2.614  53.039  1.00  0.00     0.105 A 
HETATM    9  C13 UNL     1      23.828   3.848  52.624  1.00  0.00     0.057 A 
HETATM   10  C14 UNL     1      22.619   3.900  51.964  1.00  0.00     0.041 A 
HETATM   11  O1  UNL     1      25.539   2.621  53.689  1.00  0.00    -0.325 OA
HETATM   12  C15 UNL     1      26.359   1.483  53.915  1.00  0.00     0.254 C 
HETATM   13 CL1  UNL     1      27.908   1.812  53.068  1.00  0.00    -0.092 Cl
HETATM   14  C16 UNL     1      25.744   0.303  53.264  1.00  0.00     0.175 C 
HETATM   15  O3  UNL     1      24.306   0.316  53.287  1.00  0.00    -0.339 OA
ENDROOT
BRANCH   1  16
HETATM   16  N1  UNL     1      22.792   6.369  51.774  1.00  0.00    -0.371 N 
HETATM   17  H10 UNL     1      22.508   7.103  52.445  1.00  0.00     0.161 HD
BRANCH  16  18
HETATM   18  C6  UNL     1      23.979   6.637  50.979  1.00  0.00     0.148 C 
BRANCH  18  19
HETATM   19  C5  UNL     1      23.795   6.175  49.601  1.00  0.00    -0.007 C 
HETATM   20  C4  UNL     1      24.653   5.729  48.699  1.00  0.00    -0.003 C 
BRANCH  20  21
HETATM   21  C3  UNL     1      26.071   5.620  48.985  1.00  0.00    -0.005 C 
HETATM   22  C2  UNL     1      26.607   4.503  49.387  1.00  0.00    -0.031 C 
HETATM   23  C1  UNL     1      25.962   3.190  49.629  1.00  0.00     0.036 C 
ENDBRANCH  20  21
ENDBRANCH  18  19
ENDBRANCH  16  18
ENDBRANCH   1  16
BRANCH  14  24
HETATM   24  C17 UNL     1      26.259  -1.044  53.661  1.00  0.00     0.062 C 
BRANCH  24  25
HETATM   25  C18 UNL     1      26.998  -1.817  52.644  1.00  0.00     0.169 C 
BRANCH  25  26
HETATM   26  O2  UNL     1      28.090  -2.531  53.060  1.00  0.00    -0.396 OA
HETATM   27  C19 UNL     1      29.167  -1.670  53.312  1.00  0.00     0.201 C 
ENDBRANCH  25  26
ENDBRANCH  24  25
ENDBRANCH  14  24
TORSDOF 7
ENDMDL
MODEL 8
REMARK VINA RESULT:      -7.0      2.969      6.682
REMARK  7 active torsions:
REMARK  status: ('A' for Active; 'I' for Inactive)
REMARK    1  A    between atoms: C3_3  and  C4_4 
REMARK    2  A    between atoms: C5_5  and  C6_6 
REMARK    3  A    between atoms: C6_6  and  N1_7 
REMARK    4  A    between atoms: N1_7  and  C7_8 
REMARK    5  A    between atoms: C16_21  and  C17_22 
REMARK    6  A    between atoms: C17_22  and  C18_23 
REMARK    7  A    between atoms: C18_23  and  O2_24 
ROOT
HETATM    1  C7  UNL     1      27.006   2.195  52.229  1.00  0.00     0.137 A 
HETATM    2  N2  UNL     1      28.201   1.946  52.738  1.00  0.00    -0.224 NA
HETATM    3  C8  UNL     1      28.464   0.950  53.597  1.00  0.00     0.235 A 
HETATM    4  N3  UNL     1      27.471   0.110  54.001  1.00  0.00    -0.241 NA
HETATM    5  C9  UNL     1      26.251   0.321  53.515  1.00  0.00     0.075 A 
HETATM    6  C10 UNL     1      25.235  -0.521  53.916  1.00  0.00     0.072 A 
HETATM    7  C11 UNL     1      23.939  -0.365  53.452  1.00  0.00     0.105 A 
HETATM    8  C12 UNL     1      23.710   0.668  52.573  1.00  0.00     0.105 A 
HETATM    9  C13 UNL     1      24.729   1.529  52.158  1.00  0.00     0.057 A 
HETATM   10  C14 UNL     1      26.009   1.350  52.636  1.00  0.00     0.041 A 
HETATM   11  O1  UNL     1      22.458   0.891  52.068  1.00  0.00    -0.325 OA
HETATM   12  C15 UNL     1      21.253   0.343  52.582  1.00  0.00     0.254 C 
HETATM   13 CL1  UNL     1      20.247   1.744  53.086  1.00  0.00    -0.092 Cl
HETATM   14  C16 UNL     1      21.556  -0.441  53.801  1.00  0.00     0.175 C 
HETATM   15  O3  UNL     1      22.827  -1.113  53.753  1.00  0.00    -0.339 OA
ENDROOT
BRANCH   1  16
HETATM   16  N1  UNL     1      26.810   3.289  51.309  1.00  0.00    -0.371 N 
HETATM   17  H10 UNL     1      26.873   4.296  51.537  1.00  0.00     0.161 HD
BRANCH  16  18
HETATM   18  C6  UNL     1      26.496   2.951  49.931  1.00  0.00     0.148 C 
BRANCH  18  19
HETATM   19  C5  UNL     1      25.778   4.049  49.279  1.00  0.00    -0.007 C 
HETATM   20  C4  UNL     1      24.490   4.339  49.206  1.00  0.00    -0.003 C 
BRANCH  20  21
HETATM   21  C3  UNL     1      23.485   3.508  49.842  1.00  0.00    -0.005 C 
HETATM   22  C2  UNL     1      22.732   2.695  49.157  1.00  0.00    -0.031 C 
HETATM   23  C1  UNL     1      22.717   2.442  47.696  1.00  0.00     0.036 C 
ENDBRANCH  20  21
ENDBRANCH  18  19
ENDBRANCH  16  18
ENDBRANCH   1  16
BRANCH  14  24
HETATM   24  C17 UNL     1      20.495  -1.370  54.299  1.00  0.00     0.062 C 
BRANCH  24  25
HETATM   25  C18 UNL     1      19.351  -1.637  53.406  1.00  0.00     0.169 C 
BRANCH  25  26
HETATM   26  O2  UNL     1      18.150  -1.061  53.724  1.00  0.00    -0.396 OA
HETATM   27  C19 UNL     1      17.426  -0.772  52.559  1.00  0.00     0.201 C 
ENDBRANCH  25  26
ENDBRANCH  24  25
ENDBRANCH  14  24
TORSDOF 7
ENDMDL
MODEL 9
REMARK VINA RESULT:      -7.0      3.436      6.067
REMARK  7 active torsions:
REMARK  status: ('A' for Active; 'I' for Inactive)
REMARK    1  A    between atoms: C3_3  and  C4_4 
REMARK    2  A    between atoms: C5_5  and  C6_6 
REMARK    3  A    between atoms: C6_6  and  N1_7 
REMARK    4  A    between atoms: N1_7  and  C7_8 
REMARK    5  A    between atoms: C16_21  and  C17_22 
REMARK    6  A    between atoms: C17_22  and  C18_23 
REMARK    7  A    between atoms: C18_23  and  O2_24 
ROOT
HETATM    1  C7  UNL     1      26.684   0.184  54.773  1.00  0.00     0.137 A 
HETATM    2  N2  UNL     1      27.960  -0.122  54.942  1.00  0.00    -0.224 NA
HETATM    3  C8  UNL     1      28.957   0.344  54.175  1.00  0.00     0.235 A 
HETATM    4  N3  UNL     1      28.692   1.191  53.142  1.00  0.00    -0.241 NA
HETATM    5  C9  UNL     1      27.422   1.527  52.933  1.00  0.00     0.075 A 
HETATM    6  C10 UNL     1      27.138   2.384  51.890  1.00  0.00     0.072 A 
HETATM    7  C11 UNL     1      25.840   2.780  51.611  1.00  0.00     0.105 A 
HETATM    8  C12 UNL     1      24.847   2.281  52.420  1.00  0.00     0.105 A 
HETATM    9  C13 UNL     1      25.118   1.413  53.480  1.00  0.00     0.057 A 
HETATM   10  C14 UNL     1      26.420   1.035  53.735  1.00  0.00     0.041 A 
HETATM   11  O1  UNL     1      23.538   2.623  52.213  1.00  0.00    -0.325 OA
HETATM   12  C15 UNL     1      23.022   3.228  51.036  1.00  0.00     0.254 C 
HETATM   13 CL1  UNL     1      21.819   2.071  50.371  1.00  0.00    -0.092 Cl
HETATM   14  C16 UNL     1      24.108   3.354  50.036  1.00  0.00     0.175 C 
HETATM   15  O3  UNL     1      25.397   3.619  50.618  1.00  0.00    -0.339 OA
ENDROOT
BRANCH   1  16
HETATM   16  N1  UNL     1      25.674  -0.362  55.646  1.00  0.00    -0.371 N 
HETATM   17  H10 UNL     1      25.477  -0.060  56.615  1.00  0.00     0.161 HD
BRANCH  16  18
HETATM   18  C6  UNL     1      24.851  -1.438  55.119  1.00  0.00     0.148 C 
BRANCH  18  19
HETATM   19  C5  UNL     1      23.476  -1.329  55.613  1.00  0.00    -0.007 C 
HETATM   20  C4  UNL     1      22.322  -1.188  54.984  1.00  0.00    -0.003 C 
BRANCH  20  21
HETATM   21  C3  UNL     1      22.248  -1.112  53.537  1.00  0.00    -0.005 C 
HETATM   22  C2  UNL     1      21.488  -0.244  52.932  1.00  0.00    -0.031 C 
HETATM   23  C1  UNL     1      20.594   0.785  53.519  1.00  0.00     0.036 C 
ENDBRANCH  20  21
ENDBRANCH  18  19
ENDBRANCH  16  18
ENDBRANCH   1  16
BRANCH  14  24
HETATM   24  C17 UNL     1      23.865   4.261  48.872  1.00  0.00     0.062 C 
BRANCH  24  25
HETATM   25  C18 UNL     1      23.504   5.662  49.165  1.00  0.00     0.169 C 
BRANCH  25  26
HETATM   26  O2  UNL     1      24.488   6.608  49.047  1.00  0.00    -0.396 OA
HETATM   27  C19 UNL     1      24.114   7.783  49.712  1.00  0.00     0.201 C 
ENDBRANCH  25  26
ENDBRANCH  24  25
ENDBRANCH  14  24
TORSDOF 7
ENDMDL
