MODEL 1
REMARK VINA RESULT:      -7.8      0.000      0.000
REMARK  5 active torsions:
REMARK  status: ('A' for Active; 'I' for Inactive)
REMARK    1  A    between atoms: N1_1  and  C1_2 
REMARK    2  A    between atoms: C1_2  and  C15_20 
REMARK    3  A    between atoms: C2_3  and  C3_4 
REMARK    4  A    between atoms: C3_4  and  N2_5 
REMARK    5  A    between atoms: N2_5  and  C4_6 
ROOT
HETATM    1  C4  UNL     1      27.264   2.117  51.994  1.00  0.00     0.298 C 
HETATM    2  C5  UNL     1      28.229   2.606  53.155  1.00  0.00     0.175 C 
HETATM    3  N3  UNL     1      28.866   2.050  54.356  1.00  0.00    -0.277 NA
HETATM    4  C6  UNL     1      28.917   0.498  54.297  1.00  0.00     0.086 A 
HETATM    5  C7  UNL     1      30.155  -0.106  53.980  1.00  0.00     0.034 A 
HETATM    6  C8  UNL     1      30.039  -1.394  53.414  1.00  0.00     0.003 A 
HETATM    7  C9  UNL     1      28.900  -2.127  53.125  1.00  0.00     0.012 A 
HETATM    8  C10 UNL     1      27.841  -1.385  53.501  1.00  0.00    -0.004 A 
HETATM    9  C11 UNL     1      27.583  -0.108  54.105  1.00  0.00     0.111 A 
HETATM   10  O1  UNL     1      26.317   0.495  54.487  1.00  0.00    -0.318 OA
HETATM   11  C12 UNL     1      25.544   1.150  53.484  1.00  0.00     0.169 C 
HETATM   12  C13 UNL     1      26.395   0.989  52.411  1.00  0.00     0.063 C 
HETATM   13  N4  UNL     1      26.535  -0.327  51.689  1.00  0.00    -0.386 N 
HETATM   14  C14 UNL     1      26.594  -1.658  52.561  1.00  0.00     0.161 C 
HETATM   15  H13 UNL     1      26.568   0.206  50.752  1.00  0.00     0.159 HD
ENDROOT
BRANCH   1  16
HETATM   16  N2  UNL     1      26.683   3.238  51.420  1.00  0.00     0.099 N 
HETATM   17  H6  UNL     1      25.970   3.656  52.048  1.00  0.00     0.317 HD
BRANCH  16  18
HETATM   18  C3  UNL     1      26.137   3.107  50.103  1.00  0.00     0.299 C 
BRANCH  18  19
HETATM   19  C2  UNL     1      26.108   4.416  49.445  1.00  0.00     0.024 C 
HETATM   20  C1  UNL     1      27.034   5.238  49.012  1.00  0.00     0.009 C 
BRANCH  20  21
HETATM   21  N1  UNL     1      28.431   5.052  49.076  1.00  0.00    -0.304 NA
HETATM   22  H1  UNL     1      29.321   4.924  49.591  1.00  0.00     0.124 HD
HETATM   23  H2  UNL     1      29.335   4.923  49.575  1.00  0.00     0.124 HD
ENDBRANCH  20  21
BRANCH  20  24
HETATM   24  C15 UNL     1      26.643   6.513  48.378  1.00  0.00     0.272 C 
HETATM   25  F1  UNL     1      27.627   6.878  47.498  1.00  0.00    -0.250 F 
ENDBRANCH  20  24
ENDBRANCH  18  19
ENDBRANCH  16  18
ENDBRANCH   1  16
TORSDOF 5
ENDMDL
MODEL 2
REMARK VINA RESULT:      -7.4      2.181      2.622
REMARK  5 active torsions:
REMARK  status: ('A' for Active; 'I' for Inactive)
REMARK    1  A    between atoms: N1_1  and  C1_2 
REMARK    2  A    between atoms: C1_2  and  C15_20 
REMARK    3  A    between atoms: C2_3  and  C3_4 
REMARK    4  A    between atoms: C3_4  and  N2_5 
REMARK    5  A    between atoms: N2_5  and  C4_6 
ROOT
HETATM    1  C4  UNL     1      27.332   2.091  52.091  1.00  0.00     0.298 C 
HETATM    2  C5  UNL     1      28.321   2.526  53.254  1.00  0.00     0.175 C 
HETATM    3  N3  UNL     1      28.957   1.925  54.433  1.00  0.00    -0.277 NA
HETATM    4  C6  UNL     1      28.972   0.374  54.332  1.00  0.00     0.086 A 
HETATM    5  C7  UNL     1      30.192  -0.249  53.987  1.00  0.00     0.034 A 
HETATM    6  C8  UNL     1      30.041  -1.519  53.388  1.00  0.00     0.003 A 
HETATM    7  C9  UNL     1      28.882  -2.218  53.093  1.00  0.00     0.012 A 
HETATM    8  C10 UNL     1      27.845  -1.463  53.499  1.00  0.00    -0.004 A 
HETATM    9  C11 UNL     1      27.622  -0.196  54.139  1.00  0.00     0.111 A 
HETATM   10  O1  UNL     1      26.375   0.425  54.550  1.00  0.00    -0.318 OA
HETATM   11  C12 UNL     1      25.607   1.124  53.574  1.00  0.00     0.169 C 
HETATM   12  C13 UNL     1      26.442   0.972  52.488  1.00  0.00     0.063 C 
HETATM   13  N4  UNL     1      26.545  -0.327  51.730  1.00  0.00    -0.386 N 
HETATM   14  C14 UNL     1      26.582  -1.682  52.566  1.00  0.00     0.161 C 
HETATM   15  H13 UNL     1      26.580   0.229  50.807  1.00  0.00     0.159 HD
ENDROOT
BRANCH   1  16
HETATM   16  N2  UNL     1      26.772   3.240  51.553  1.00  0.00     0.099 N 
HETATM   17  H6  UNL     1      26.037   3.626  52.175  1.00  0.00     0.317 HD
BRANCH  16  18
HETATM   18  C3  UNL     1      26.273   3.175  50.213  1.00  0.00     0.299 C 
BRANCH  18  19
HETATM   19  C2  UNL     1      24.811   3.264  50.221  1.00  0.00     0.024 C 
HETATM   20  C1  UNL     1      23.932   3.733  51.074  1.00  0.00     0.009 C 
BRANCH  20  21
HETATM   21  N1  UNL     1      24.198   4.333  52.323  1.00  0.00    -0.304 NA
HETATM   22  H1  UNL     1      24.808   4.538  53.136  1.00  0.00     0.124 HD
HETATM   23  H2  UNL     1      24.795   4.550  53.147  1.00  0.00     0.124 HD
ENDBRANCH  20  21
BRANCH  20  24
HETATM   24  C15 UNL     1      22.492   3.661  50.756  1.00  0.00     0.272 C 
HETATM   25  F1  UNL     1      21.791   3.609  51.931  1.00  0.00    -0.250 F 
ENDBRANCH  20  24
ENDBRANCH  18  19
ENDBRANCH  16  18
ENDBRANCH   1  16
TORSDOF 5
ENDMDL
MODEL 3
REMARK VINA RESULT:      -7.4      2.531      3.953
REMARK  5 active torsions:
REMARK  status: ('A' for Active; 'I' for Inactive)
REMARK    1  A    between atoms: N1_1  and  C1_2 
REMARK    2  A    between atoms: C1_2  and  C15_20 
REMARK    3  A    between atoms: C2_3  and  C3_4 
REMARK    4  A    between atoms: C3_4  and  N2_5 
REMARK    5  A    between atoms: N2_5  and  C4_6 
ROOT
HETATM    1  C4  UNL     1      24.409   2.867  53.065  1.00  0.00     0.298 C 
HETATM    2  C5  UNL     1      23.232   2.070  52.360  1.00  0.00     0.175 C 
HETATM    3  N3  UNL     1      22.832   0.673  52.141  1.00  0.00    -0.277 NA
HETATM    4  C6  UNL     1      23.523  -0.274  53.161  1.00  0.00     0.086 A 
HETATM    5  C7  UNL     1      22.748  -0.753  54.241  1.00  0.00     0.034 A 
HETATM    6  C8  UNL     1      23.504  -1.120  55.375  1.00  0.00     0.003 A 
HETATM    7  C9  UNL     1      24.875  -1.066  55.571  1.00  0.00     0.012 A 
HETATM    8  C10 UNL     1      25.423  -0.591  54.437  1.00  0.00    -0.004 A 
HETATM    9  C11 UNL     1      24.996  -0.159  53.135  1.00  0.00     0.111 A 
HETATM   10  O1  UNL     1      25.790   0.279  52.001  1.00  0.00    -0.318 OA
HETATM   11  C12 UNL     1      26.246   1.629  51.969  1.00  0.00     0.169 C 
HETATM   12  C13 UNL     1      25.667   2.084  53.134  1.00  0.00     0.063 C 
HETATM   13  N4  UNL     1      26.225   1.745  54.492  1.00  0.00    -0.386 N 
HETATM   14  C14 UNL     1      26.726   0.255  54.747  1.00  0.00     0.161 C 
HETATM   15  H13 UNL     1      26.026   2.756  54.812  1.00  0.00     0.159 HD
ENDROOT
BRANCH   1  16
HETATM   16  N2  UNL     1      24.440   4.146  52.530  1.00  0.00     0.099 N 
HETATM   17  H6  UNL     1      24.157   4.855  53.233  1.00  0.00     0.317 HD
BRANCH  16  18
HETATM   18  C3  UNL     1      23.727   4.378  51.310  1.00  0.00     0.299 C 
BRANCH  18  19
HETATM   19  C2  UNL     1      24.662   4.783  50.258  1.00  0.00     0.024 C 
HETATM   20  C1  UNL     1      25.429   5.831  50.075  1.00  0.00     0.009 C 
BRANCH  20  21
HETATM   21  N1  UNL     1      25.562   6.945  50.931  1.00  0.00    -0.304 NA
HETATM   22  H1  UNL     1      25.447   7.949  51.162  1.00  0.00     0.124 HD
HETATM   23  H2  UNL     1      25.455   7.949  51.182  1.00  0.00     0.124 HD
ENDBRANCH  20  21
BRANCH  20  24
HETATM   24  C15 UNL     1      26.271   5.921  48.865  1.00  0.00     0.272 C 
HETATM   25  F1  UNL     1      26.888   4.713  48.677  1.00  0.00    -0.250 F 
ENDBRANCH  20  24
ENDBRANCH  18  19
ENDBRANCH  16  18
ENDBRANCH   1  16
TORSDOF 5
ENDMDL
MODEL 4
REMARK VINA RESULT:      -6.9      2.719      3.443
REMARK  5 active torsions:
REMARK  status: ('A' for Active; 'I' for Inactive)
REMARK    1  A    between atoms: N1_1  and  C1_2 
REMARK    2  A    between atoms: C1_2  and  C15_20 
REMARK    3  A    between atoms: C2_3  and  C3_4 
REMARK    4  A    between atoms: C3_4  and  N2_5 
REMARK    5  A    between atoms: N2_5  and  C4_6 
ROOT
HETATM    1  C4  UNL     1      25.082   2.659  50.630  1.00  0.00     0.298 C 
HETATM    2  C5  UNL     1      26.611   2.827  51.021  1.00  0.00     0.175 C 
HETATM    3  N3  UNL     1      27.517   2.415  52.101  1.00  0.00    -0.277 NA
HETATM    4  C6  UNL     1      26.942   1.200  52.882  1.00  0.00     0.086 A 
HETATM    5  C7  UNL     1      27.497  -0.071  52.619  1.00  0.00     0.034 A 
HETATM    6  C8  UNL     1      26.629  -1.149  52.900  1.00  0.00     0.003 A 
HETATM    7  C9  UNL     1      25.330  -1.127  53.382  1.00  0.00     0.012 A 
HETATM    8  C10 UNL     1      24.995   0.163  53.568  1.00  0.00    -0.004 A 
HETATM    9  C11 UNL     1      25.593   1.462  53.425  1.00  0.00     0.111 A 
HETATM   10  O1  UNL     1      25.049   2.770  53.749  1.00  0.00    -0.318 OA
HETATM   11  C12 UNL     1      24.180   3.398  52.810  1.00  0.00     0.169 C 
HETATM   12  C13 UNL     1      24.211   2.447  51.813  1.00  0.00     0.063 C 
HETATM   13  N4  UNL     1      23.447   1.152  51.915  1.00  0.00    -0.386 N 
HETATM   14  C14 UNL     1      23.447   0.390  53.313  1.00  0.00     0.161 C 
HETATM   15  H13 UNL     1      23.182   1.240  50.873  1.00  0.00     0.159 HD
ENDROOT
BRANCH   1  16
HETATM   16  N2  UNL     1      24.759   3.660  49.726  1.00  0.00     0.099 N 
HETATM   17  H6  UNL     1      24.786   3.309  48.751  1.00  0.00     0.317 HD
BRANCH  16  18
HETATM   18  C3  UNL     1      25.483   4.893  49.808  1.00  0.00     0.299 C 
BRANCH  18  19
HETATM   19  C2  UNL     1      24.547   6.020  49.804  1.00  0.00     0.024 C 
HETATM   20  C1  UNL     1      24.108   6.843  50.726  1.00  0.00     0.009 C 
BRANCH  20  21
HETATM   21  N1  UNL     1      24.462   6.853  52.092  1.00  0.00    -0.304 NA
HETATM   22  H1  UNL     1      25.039   6.547  52.897  1.00  0.00     0.124 HD
HETATM   23  H2  UNL     1      25.030   6.558  52.912  1.00  0.00     0.124 HD
ENDBRANCH  20  21
BRANCH  20  24
HETATM   24  C15 UNL     1      23.138   7.897  50.366  1.00  0.00     0.272 C 
HETATM   25  F1  UNL     1      21.958   7.638  51.010  1.00  0.00    -0.250 F 
ENDBRANCH  20  24
ENDBRANCH  18  19
ENDBRANCH  16  18
ENDBRANCH   1  16
TORSDOF 5
ENDMDL
MODEL 5
REMARK VINA RESULT:      -6.8      3.813      5.434
REMARK  5 active torsions:
REMARK  status: ('A' for Active; 'I' for Inactive)
REMARK    1  A    between atoms: N1_1  and  C1_2 
REMARK    2  A    between atoms: C1_2  and  C15_20 
REMARK    3  A    between atoms: C2_3  and  C3_4 
REMARK    4  A    between atoms: C3_4  and  N2_5 
REMARK    5  A    between atoms: N2_5  and  C4_6 
ROOT
HETATM    1  C4  UNL     1      22.590   4.172  52.429  1.00  0.00     0.298 C 
HETATM    2  C5  UNL     1      21.567   3.405  51.489  1.00  0.00     0.175 C 
HETATM    3  N3  UNL     1      21.457   2.099  50.826  1.00  0.00    -0.277 NA
HETATM    4  C6  UNL     1      22.391   1.051  51.493  1.00  0.00     0.086 A 
HETATM    5  C7  UNL     1      21.798   0.096  52.350  1.00  0.00     0.034 A 
HETATM    6  C8  UNL     1      22.681  -0.439  53.313  1.00  0.00     0.003 A 
HETATM    7  C9  UNL     1      24.018  -0.153  53.533  1.00  0.00     0.012 A 
HETATM    8  C10 UNL     1      24.387   0.765  52.621  1.00  0.00    -0.004 A 
HETATM    9  C11 UNL     1      23.802   1.485  51.523  1.00  0.00     0.111 A 
HETATM   10  O1  UNL     1      24.419   2.424  50.601  1.00  0.00    -0.318 OA
HETATM   11  C12 UNL     1      24.579   3.779  51.014  1.00  0.00     0.169 C 
HETATM   12  C13 UNL     1      23.987   3.701  52.256  1.00  0.00     0.063 C 
HETATM   13  N4  UNL     1      24.683   3.078  53.439  1.00  0.00    -0.386 N 
HETATM   14  C14 UNL     1      25.499   1.731  53.204  1.00  0.00     0.161 C 
HETATM   15  H13 UNL     1      24.296   3.865  54.066  1.00  0.00     0.159 HD
ENDROOT
BRANCH   1  16
HETATM   16  N2  UNL     1      22.321   5.529  52.337  1.00  0.00     0.099 N 
HETATM   17  H6  UNL     1      21.823   5.872  53.181  1.00  0.00     0.317 HD
BRANCH  16  18
HETATM   18  C3  UNL     1      21.646   5.999  51.165  1.00  0.00     0.299 C 
BRANCH  18  19
HETATM   19  C2  UNL     1      22.502   6.943  50.443  1.00  0.00     0.024 C 
HETATM   20  C1  UNL     1      23.685   7.460  50.674  1.00  0.00     0.009 C 
BRANCH  20  21
HETATM   21  N1  UNL     1      24.517   7.212  51.787  1.00  0.00    -0.304 NA
HETATM   22  H1  UNL     1      25.075   7.515  52.606  1.00  0.00     0.124 HD
HETATM   23  H2  UNL     1      25.082   7.496  52.613  1.00  0.00     0.124 HD
ENDBRANCH  20  21
BRANCH  20  24
HETATM   24  C15 UNL     1      24.272   8.409  49.707  1.00  0.00     0.272 C 
HETATM   25  F1  UNL     1      25.278   9.096  50.332  1.00  0.00    -0.250 F 
ENDBRANCH  20  24
ENDBRANCH  18  19
ENDBRANCH  16  18
ENDBRANCH   1  16
TORSDOF 5
ENDMDL
MODEL 6
REMARK VINA RESULT:      -6.7      3.973      6.854
REMARK  5 active torsions:
REMARK  status: ('A' for Active; 'I' for Inactive)
REMARK    1  A    between atoms: N1_1  and  C1_2 
REMARK    2  A    between atoms: C1_2  and  C15_20 
REMARK    3  A    between atoms: C2_3  and  C3_4 
REMARK    4  A    between atoms: C3_4  and  N2_5 
REMARK    5  A    between atoms: N2_5  and  C4_6 
ROOT
HETATM    1  C4  UNL     1      24.921   2.541  51.686  1.00  0.00     0.298 C 
HETATM    2  C5  UNL     1      23.788   1.807  52.520  1.00  0.00     0.175 C 
HETATM    3  N3  UNL     1      22.332   1.618  52.460  1.00  0.00    -0.277 NA
HETATM    4  C6  UNL     1      21.790   1.887  51.028  1.00  0.00     0.086 A 
HETATM    5  C7  UNL     1      21.458   0.769  50.232  1.00  0.00     0.034 A 
HETATM    6  C8  UNL     1      21.509   1.015  48.843  1.00  0.00     0.003 A 
HETATM    7  C9  UNL     1      21.843   2.179  48.169  1.00  0.00     0.012 A 
HETATM    8  C10 UNL     1      22.120   3.113  49.098  1.00  0.00    -0.004 A 
HETATM    9  C11 UNL     1      22.147   3.231  50.530  1.00  0.00     0.111 A 
HETATM   10  O1  UNL     1      22.431   4.393  51.355  1.00  0.00    -0.318 OA
HETATM   11  C12 UNL     1      23.792   4.738  51.601  1.00  0.00     0.169 C 
HETATM   12  C13 UNL     1      24.406   3.706  50.925  1.00  0.00     0.063 C 
HETATM   13  N4  UNL     1      24.503   3.678  49.421  1.00  0.00    -0.386 N 
HETATM   14  C14 UNL     1      23.227   4.121  48.578  1.00  0.00     0.161 C 
HETATM   15  H13 UNL     1      25.512   3.304  49.506  1.00  0.00     0.159 HD
ENDROOT
BRANCH   1  16
HETATM   16  N2  UNL     1      26.021   2.710  52.514  1.00  0.00     0.099 N 
HETATM   17  H6  UNL     1      26.896   2.417  52.040  1.00  0.00     0.317 HD
BRANCH  16  18
HETATM   18  C3  UNL     1      25.969   2.126  53.820  1.00  0.00     0.299 C 
BRANCH  18  19
HETATM   19  C2  UNL     1      27.047   1.146  53.969  1.00  0.00     0.024 C 
HETATM   20  C1  UNL     1      28.326   1.147  53.679  1.00  0.00     0.009 C 
BRANCH  20  21
HETATM   21  N1  UNL     1      29.062   2.198  53.091  1.00  0.00    -0.304 NA
HETATM   22  H1  UNL     1      29.523   3.126  53.115  1.00  0.00     0.124 HD
HETATM   23  H2  UNL     1      29.531   3.127  53.095  1.00  0.00     0.124 HD
ENDBRANCH  20  21
BRANCH  20  24
HETATM   24  C15 UNL     1      29.145  -0.046  53.973  1.00  0.00     0.272 C 
HETATM   25  F1  UNL     1      30.391   0.142  53.436  1.00  0.00    -0.250 F 
ENDBRANCH  20  24
ENDBRANCH  18  19
ENDBRANCH  16  18
ENDBRANCH   1  16
TORSDOF 5
ENDMDL
MODEL 7
REMARK VINA RESULT:      -6.5      2.811      3.996
REMARK  5 active torsions:
REMARK  status: ('A' for Active; 'I' for Inactive)
REMARK    1  A    between atoms: N1_1  and  C1_2 
REMARK    2  A    between atoms: C1_2  and  C15_20 
REMARK    3  A    between atoms: C2_3  and  C3_4 
REMARK    4  A    between atoms: C3_4  and  N2_5 
REMARK    5  A    between atoms: N2_5  and  C4_6 
ROOT
HETATM    1  C4  UNL     1      25.060   2.920  50.311  1.00  0.00     0.298 C 
HETATM    2  C5  UNL     1      26.243   2.590  51.316  1.00  0.00     0.175 C 
HETATM    3  N3  UNL     1      26.407   2.122  52.699  1.00  0.00    -0.277 NA
HETATM    4  C6  UNL     1      25.120   1.416  53.208  1.00  0.00     0.086 A 
HETATM    5  C7  UNL     1      25.126   0.004  53.267  1.00  0.00     0.034 A 
HETATM    6  C8  UNL     1      23.843  -0.581  53.194  1.00  0.00     0.003 A 
HETATM    7  C9  UNL     1      22.606   0.029  53.066  1.00  0.00     0.012 A 
HETATM    8  C10 UNL     1      22.817   1.358  53.031  1.00  0.00    -0.004 A 
HETATM    9  C11 UNL     1      23.922   2.274  53.103  1.00  0.00     0.111 A 
HETATM   10  O1  UNL     1      23.919   3.727  53.101  1.00  0.00    -0.318 OA
HETATM   11  C12 UNL     1      23.825   4.407  51.852  1.00  0.00     0.169 C 
HETATM   12  C13 UNL     1      23.812   3.317  51.010  1.00  0.00     0.063 C 
HETATM   13  N4  UNL     1      22.588   2.456  50.830  1.00  0.00    -0.386 N 
HETATM   14  C14 UNL     1      21.738   2.081  52.123  1.00  0.00     0.161 C 
HETATM   15  H13 UNL     1      22.797   2.402  49.773  1.00  0.00     0.159 HD
ENDROOT
BRANCH   1  16
HETATM   16  N2  UNL     1      25.563   3.741  49.313  1.00  0.00     0.099 N 
HETATM   17  H6  UNL     1      25.270   3.413  48.373  1.00  0.00     0.317 HD
BRANCH  16  18
HETATM   18  C3  UNL     1      26.971   3.999  49.307  1.00  0.00     0.299 C 
BRANCH  18  19
HETATM   19  C2  UNL     1      27.243   5.257  48.608  1.00  0.00     0.024 C 
HETATM   20  C1  UNL     1      28.322   5.977  48.414  1.00  0.00     0.009 C 
BRANCH  20  21
HETATM   21  N1  UNL     1      29.626   5.693  48.875  1.00  0.00    -0.304 NA
HETATM   22  H1  UNL     1      30.568   5.973  49.202  1.00  0.00     0.124 HD
HETATM   23  H2  UNL     1      30.577   5.954  49.206  1.00  0.00     0.124 HD
ENDBRANCH  20  21
BRANCH  20  24
HETATM   24  C15 UNL     1      28.237   7.231  47.639  1.00  0.00     0.272 C 
HETATM   25  F1  UNL     1      29.101   7.144  46.579  1.00  0.00    -0.250 F 
ENDBRANCH  20  24
ENDBRANCH  18  19
ENDBRANCH  16  18
ENDBRANCH   1  16
TORSDOF 5
ENDMDL
MODEL 8
REMARK VINA RESULT:      -6.4      3.559      6.996
REMARK  5 active torsions:
REMARK  status: ('A' for Active; 'I' for Inactive)
REMARK    1  A    between atoms: N1_1  and  C1_2 
REMARK    2  A    between atoms: C1_2  and  C15_20 
REMARK    3  A    between atoms: C2_3  and  C3_4 
REMARK    4  A    between atoms: C3_4  and  N2_5 
REMARK    5  A    between atoms: N2_5  and  C4_6 
ROOT
HETATM    1  C4  UNL     1      25.189   2.993  51.822  1.00  0.00     0.298 C 
HETATM    2  C5  UNL     1      26.157   3.210  50.583  1.00  0.00     0.175 C 
HETATM    3  N3  UNL     1      26.216   4.037  49.371  1.00  0.00    -0.277 NA
HETATM    4  C6  UNL     1      25.293   5.282  49.496  1.00  0.00     0.086 A 
HETATM    5  C7  UNL     1      25.905   6.527  49.761  1.00  0.00     0.034 A 
HETATM    6  C8  UNL     1      25.055   7.464  50.390  1.00  0.00     0.003 A 
HETATM    7  C9  UNL     1      23.733   7.325  50.781  1.00  0.00     0.012 A 
HETATM    8  C10 UNL     1      23.343   6.083  50.439  1.00  0.00    -0.004 A 
HETATM    9  C11 UNL     1      23.892   4.922  49.795  1.00  0.00     0.111 A 
HETATM   10  O1  UNL     1      23.253   3.659  49.467  1.00  0.00    -0.318 OA
HETATM   11  C12 UNL     1      23.135   2.669  50.485  1.00  0.00     0.169 C 
HETATM   12  C13 UNL     1      23.778   3.331  51.509  1.00  0.00     0.063 C 
HETATM   13  N4  UNL     1      23.122   4.449  52.278  1.00  0.00    -0.386 N 
HETATM   14  C14 UNL     1      22.273   5.521  51.464  1.00  0.00     0.161 C 
HETATM   15  H13 UNL     1      23.550   4.057  53.188  1.00  0.00     0.159 HD
ENDROOT
BRANCH   1  16
HETATM   16  N2  UNL     1      25.478   1.757  52.380  1.00  0.00     0.099 N 
HETATM   17  H6  UNL     1      25.648   1.836  53.401  1.00  0.00     0.317 HD
BRANCH  16  18
HETATM   18  C3  UNL     1      26.525   0.983  51.783  1.00  0.00     0.299 C 
BRANCH  18  19
HETATM   19  C2  UNL     1      27.565   0.704  52.776  1.00  0.00     0.024 C 
HETATM   20  C1  UNL     1      28.495   1.429  53.350  1.00  0.00     0.009 C 
BRANCH  20  21
HETATM   21  N1  UNL     1      28.755   2.800  53.135  1.00  0.00    -0.304 NA
HETATM   22  H1  UNL     1      29.304   3.581  52.732  1.00  0.00     0.124 HD
HETATM   23  H2  UNL     1      29.293   3.598  52.740  1.00  0.00     0.124 HD
ENDBRANCH  20  21
BRANCH  20  24
HETATM   24  C15 UNL     1      29.402   0.811  54.337  1.00  0.00     0.272 C 
HETATM   25  F1  UNL     1      28.661   0.004  55.160  1.00  0.00    -0.250 F 
ENDBRANCH  20  24
ENDBRANCH  18  19
ENDBRANCH  16  18
ENDBRANCH   1  16
TORSDOF 5
ENDMDL
MODEL 9
REMARK VINA RESULT:      -6.3      6.649      8.793
REMARK  5 active torsions:
REMARK  status: ('A' for Active; 'I' for Inactive)
REMARK    1  A    between atoms: N1_1  and  C1_2 
REMARK    2  A    between atoms: C1_2  and  C15_20 
REMARK    3  A    between atoms: C2_3  and  C3_4 
REMARK    4  A    between atoms: C3_4  and  N2_5 
REMARK    5  A    between atoms: N2_5  and  C4_6 
ROOT
HETATM    1  C4  UNL     1      31.246   6.576  48.235  1.00  0.00     0.298 C 
HETATM    2  C5  UNL     1      31.139   6.929  46.691  1.00  0.00     0.175 C 
HETATM    3  N3  UNL     1      32.003   6.919  45.503  1.00  0.00    -0.277 NA
HETATM    4  C6  UNL     1      33.229   5.986  45.710  1.00  0.00     0.086 A 
HETATM    5  C7  UNL     1      33.205   4.723  45.077  1.00  0.00     0.034 A 
HETATM    6  C8  UNL     1      34.013   3.749  45.704  1.00  0.00     0.003 A 
HETATM    7  C9  UNL     1      34.801   3.861  46.838  1.00  0.00     0.012 A 
HETATM    8  C10 UNL     1      34.689   5.127  47.280  1.00  0.00    -0.004 A 
HETATM    9  C11 UNL     1      34.018   6.341  46.907  1.00  0.00     0.111 A 
HETATM   10  O1  UNL     1      34.083   7.658  47.518  1.00  0.00    -0.318 OA
HETATM   11  C12 UNL     1      33.276   7.918  48.664  1.00  0.00     0.169 C 
HETATM   12  C13 UNL     1      32.629   6.705  48.756  1.00  0.00     0.063 C 
HETATM   13  N4  UNL     1      33.307   5.473  49.299  1.00  0.00    -0.386 N 
HETATM   14  C14 UNL     1      34.811   5.190  48.859  1.00  0.00     0.161 C 
HETATM   15  H13 UNL     1      32.397   5.217  49.819  1.00  0.00     0.159 HD
ENDROOT
BRANCH   1  16
HETATM   16  N2  UNL     1      30.213   7.226  48.895  1.00  0.00     0.099 N 
HETATM   17  H6  UNL     1      29.763   6.604  49.592  1.00  0.00     0.317 HD
BRANCH  16  18
HETATM   18  C3  UNL     1      29.204   7.857  48.098  1.00  0.00     0.299 C 
BRANCH  18  19
HETATM   19  C2  UNL     1      27.889   7.308  48.437  1.00  0.00     0.024 C 
HETATM   20  C1  UNL     1      27.459   6.117  48.780  1.00  0.00     0.009 C 
BRANCH  20  21
HETATM   21  N1  UNL     1      28.232   4.945  48.923  1.00  0.00    -0.304 NA
HETATM   22  H1  UNL     1      28.963   4.375  49.386  1.00  0.00     0.124 HD
HETATM   23  H2  UNL     1      28.962   4.357  49.374  1.00  0.00     0.124 HD
ENDBRANCH  20  21
BRANCH  20  24
HETATM   24  C15 UNL     1      26.024   5.909  49.061  1.00  0.00     0.272 C 
HETATM   25  F1  UNL     1      25.706   6.583  50.209  1.00  0.00    -0.250 F 
ENDBRANCH  20  24
ENDBRANCH  18  19
ENDBRANCH  16  18
ENDBRANCH   1  16
TORSDOF 5
ENDMDL
