MODEL 1
REMARK VINA RESULT:      -8.6      0.000      0.000
REMARK  4 active torsions:
REMARK  status: ('A' for Active; 'I' for Inactive)
REMARK    1  A    between atoms: N2_8  and  C6_9 
REMARK    2  A    between atoms: C6_9  and  C7_10 
REMARK    3  A    between atoms: C12_16  and  O2_17 
REMARK    4  A    between atoms: C13_18  and  C14_19 
ROOT
HETATM    1  C1  UNL     1      21.191   0.254  51.347  1.00  0.00     0.046 C 
HETATM    2  C2  UNL     1      22.043   0.392  52.591  1.00  0.00    -0.059 C 
HETATM    3  C3  UNL     1      21.438  -0.288  53.609  1.00  0.00    -0.003 C 
HETATM    4  C4  UNL     1      21.846  -0.476  55.032  1.00  0.00     0.151 C 
HETATM    5  N1  UNL     1      23.190  -1.065  55.111  1.00  0.00    -0.340 N 
HETATM    6  C5  UNL     1      24.271  -0.795  54.188  1.00  0.00     0.319 C 
HETATM    7  O1  UNL     1      25.276  -1.471  54.554  1.00  0.00    -0.247 OA
HETATM    8  N2  UNL     1      24.339   0.067  53.018  1.00  0.00    -0.317 N 
HETATM    9  C13 UNL     1      23.307   1.093  52.819  1.00  0.00     0.151 C 
HETATM   10  H7  UNL     1      23.350  -1.724  55.899  1.00  0.00     0.164 HD
ENDROOT
BRANCH   8  11
HETATM   11  C6  UNL     1      25.529  -0.362  52.299  1.00  0.00     0.170 C 
BRANCH  11  12
HETATM   12  C7  UNL     1      26.770   0.263  52.812  1.00  0.00    -0.005 A 
HETATM   13  C8  UNL     1      26.909   1.634  52.989  1.00  0.00     0.012 A 
HETATM   14  C9  UNL     1      28.036   2.261  53.474  1.00  0.00     0.002 A 
HETATM   15  C10 UNL     1      29.125   1.497  53.817  1.00  0.00     0.026 A 
HETATM   16  C11 UNL     1      29.064   0.138  53.669  1.00  0.00     0.067 A 
HETATM   17 CL1  UNL     1      30.459  -0.827  54.113  1.00  0.00    -0.081 Cl
HETATM   18  C12 UNL     1      27.905  -0.425  53.179  1.00  0.00     0.095 A 
BRANCH  18  19
HETATM   19  O2  UNL     1      27.933  -1.804  53.061  1.00  0.00    -0.358 OA
HETATM   20  H13 UNL     1      27.221  -2.425  53.437  1.00  0.00     0.217 HD
ENDBRANCH  18  19
ENDBRANCH  11  12
ENDBRANCH   8  11
BRANCH   9  21
HETATM   21  C14 UNL     1      23.689   2.184  51.960  1.00  0.00    -0.031 A 
HETATM   22  C15 UNL     1      24.137   2.293  50.669  1.00  0.00     0.012 A 
HETATM   23  C16 UNL     1      24.445   3.451  50.003  1.00  0.00     0.043 A 
HETATM   24  C17 UNL     1      24.293   4.641  50.691  1.00  0.00     0.116 A 
HETATM   25  F1  UNL     1      24.606   5.765  50.006  1.00  0.00    -0.206 F 
HETATM   26  C18 UNL     1      23.842   4.606  52.003  1.00  0.00     0.043 A 
HETATM   27  C19 UNL     1      23.544   3.411  52.633  1.00  0.00     0.012 A 
ENDBRANCH   9  21
TORSDOF 4
ENDMDL
MODEL 2
REMARK VINA RESULT:      -8.4      3.971      6.296
REMARK  4 active torsions:
REMARK  status: ('A' for Active; 'I' for Inactive)
REMARK    1  A    between atoms: N2_8  and  C6_9 
REMARK    2  A    between atoms: C6_9  and  C7_10 
REMARK    3  A    between atoms: C12_16  and  O2_17 
REMARK    4  A    between atoms: C13_18  and  C14_19 
ROOT
HETATM    1  C1  UNL     1      26.418   3.706  49.563  1.00  0.00     0.046 C 
HETATM    2  C2  UNL     1      25.339   3.900  50.608  1.00  0.00    -0.059 C 
HETATM    3  C3  UNL     1      24.810   5.149  50.459  1.00  0.00    -0.003 C 
HETATM    4  C4  UNL     1      23.729   5.846  51.216  1.00  0.00     0.151 C 
HETATM    5  N1  UNL     1      22.491   5.053  51.197  1.00  0.00    -0.340 N 
HETATM    6  C5  UNL     1      22.430   3.608  51.219  1.00  0.00     0.319 C 
HETATM    7  O1  UNL     1      21.211   3.268  51.189  1.00  0.00    -0.247 OA
HETATM    8  N2  UNL     1      23.482   2.605  51.267  1.00  0.00    -0.317 N 
HETATM    9  C13 UNL     1      24.842   3.006  51.654  1.00  0.00     0.151 C 
HETATM   10  H7  UNL     1      21.607   5.597  51.164  1.00  0.00     0.164 HD
ENDROOT
BRANCH   8  11
HETATM   11  C6  UNL     1      22.836   1.357  50.887  1.00  0.00     0.170 C 
BRANCH  11  12
HETATM   12  C7  UNL     1      22.324   0.595  52.051  1.00  0.00    -0.005 A 
HETATM   13  C8  UNL     1      23.136   0.181  53.100  1.00  0.00     0.012 A 
HETATM   14  C9  UNL     1      22.705  -0.518  54.206  1.00  0.00     0.002 A 
HETATM   15  C10 UNL     1      21.375  -0.845  54.309  1.00  0.00     0.026 A 
HETATM   16  C11 UNL     1      20.514  -0.472  53.314  1.00  0.00     0.067 A 
HETATM   17 CL1  UNL     1      18.818  -0.893  53.456  1.00  0.00    -0.081 Cl
HETATM   18  C12 UNL     1      21.011   0.226  52.234  1.00  0.00     0.095 A 
BRANCH  18  19
HETATM   19  O2  UNL     1      20.070   0.561  51.274  1.00  0.00    -0.358 OA
HETATM   20  H13 UNL     1      19.753   1.509  51.091  1.00  0.00     0.217 HD
ENDBRANCH  18  19
ENDBRANCH  11  12
ENDBRANCH   8  11
BRANCH   9  21
HETATM   21  C14 UNL     1      25.676   1.940  52.145  1.00  0.00    -0.031 A 
HETATM   22  C15 UNL     1      26.263   0.831  51.592  1.00  0.00     0.012 A 
HETATM   23  C16 UNL     1      27.054  -0.086  52.234  1.00  0.00     0.043 A 
HETATM   24  C17 UNL     1      27.295   0.115  53.581  1.00  0.00     0.116 A 
HETATM   25  F1  UNL     1      28.079  -0.808  54.186  1.00  0.00    -0.206 F 
HETATM   26  C18 UNL     1      26.732   1.218  54.208  1.00  0.00     0.043 A 
HETATM   27  C19 UNL     1      25.940   2.116  53.516  1.00  0.00     0.012 A 
ENDBRANCH   9  21
TORSDOF 4
ENDMDL
MODEL 3
REMARK VINA RESULT:      -8.1      5.012      7.023
REMARK  4 active torsions:
REMARK  status: ('A' for Active; 'I' for Inactive)
REMARK    1  A    between atoms: N2_8  and  C6_9 
REMARK    2  A    between atoms: C6_9  and  C7_10 
REMARK    3  A    between atoms: C12_16  and  O2_17 
REMARK    4  A    between atoms: C13_18  and  C14_19 
ROOT
HETATM    1  C1  UNL     1      23.193   6.260  47.256  1.00  0.00     0.046 C 
HETATM    2  C2  UNL     1      23.332   6.589  48.727  1.00  0.00    -0.059 C 
HETATM    3  C3  UNL     1      22.259   7.344  49.106  1.00  0.00    -0.003 C 
HETATM    4  C4  UNL     1      21.900   7.931  50.430  1.00  0.00     0.151 C 
HETATM    5  N1  UNL     1      21.838   6.884  51.460  1.00  0.00    -0.340 N 
HETATM    6  C5  UNL     1      22.691   5.718  51.511  1.00  0.00     0.319 C 
HETATM    7  O1  UNL     1      22.359   5.034  52.524  1.00  0.00    -0.247 OA
HETATM    8  N2  UNL     1      23.769   5.280  50.639  1.00  0.00    -0.317 N 
HETATM    9  C13 UNL     1      24.368   6.237  49.698  1.00  0.00     0.151 C 
HETATM   10  H7  UNL     1      21.115   7.017  52.195  1.00  0.00     0.164 HD
ENDROOT
BRANCH   8  11
HETATM   11  C6  UNL     1      23.984   3.879  50.972  1.00  0.00     0.170 C 
BRANCH  11  12
HETATM   12  C7  UNL     1      23.105   2.964  50.208  1.00  0.00    -0.005 A 
HETATM   13  C8  UNL     1      23.169   2.832  48.826  1.00  0.00     0.012 A 
HETATM   14  C9  UNL     1      22.382   1.987  48.074  1.00  0.00     0.002 A 
HETATM   15  C10 UNL     1      21.453   1.201  48.711  1.00  0.00     0.026 A 
HETATM   16  C11 UNL     1      21.332   1.276  50.071  1.00  0.00     0.067 A 
HETATM   17 CL1  UNL     1      20.144   0.266  50.875  1.00  0.00    -0.081 Cl
HETATM   18  C12 UNL     1      22.150   2.143  50.764  1.00  0.00     0.095 A 
BRANCH  18  19
HETATM   19  O2  UNL     1      21.957   2.155  52.135  1.00  0.00    -0.358 OA
HETATM   20  H13 UNL     1      22.244   1.406  52.760  1.00  0.00     0.217 HD
ENDBRANCH  18  19
ENDBRANCH  11  12
ENDBRANCH   8  11
BRANCH   9  21
HETATM   21  C14 UNL     1      25.693   5.901  49.246  1.00  0.00    -0.031 A 
HETATM   22  C15 UNL     1      26.421   4.743  49.145  1.00  0.00     0.012 A 
HETATM   23  C16 UNL     1      27.698   4.617  48.665  1.00  0.00     0.043 A 
HETATM   24  C17 UNL     1      28.333   5.768  48.232  1.00  0.00     0.116 A 
HETATM   25  F1  UNL     1      29.593   5.608  47.765  1.00  0.00    -0.206 F 
HETATM   26  C18 UNL     1      27.655   6.976  48.305  1.00  0.00     0.043 A 
HETATM   27  C19 UNL     1      26.365   7.053  48.798  1.00  0.00     0.012 A 
ENDBRANCH   9  21
TORSDOF 4
ENDMDL
MODEL 4
REMARK VINA RESULT:      -8.0      3.364      5.023
REMARK  4 active torsions:
REMARK  status: ('A' for Active; 'I' for Inactive)
REMARK    1  A    between atoms: N2_8  and  C6_9 
REMARK    2  A    between atoms: C6_9  and  C7_10 
REMARK    3  A    between atoms: C12_16  and  O2_17 
REMARK    4  A    between atoms: C13_18  and  C14_19 
ROOT
HETATM    1  C1  UNL     1      22.955   2.132  48.422  1.00  0.00     0.046 C 
HETATM    2  C2  UNL     1      22.591   3.458  49.055  1.00  0.00    -0.059 C 
HETATM    3  C3  UNL     1      21.241   3.634  48.950  1.00  0.00    -0.003 C 
HETATM    4  C4  UNL     1      20.366   4.754  49.403  1.00  0.00     0.151 C 
HETATM    5  N1  UNL     1      20.531   4.988  50.845  1.00  0.00    -0.340 N 
HETATM    6  C5  UNL     1      21.770   4.836  51.575  1.00  0.00     0.319 C 
HETATM    7  O1  UNL     1      21.545   5.113  52.789  1.00  0.00    -0.247 OA
HETATM    8  N2  UNL     1      23.101   4.447  51.134  1.00  0.00    -0.317 N 
HETATM    9  C13 UNL     1      23.421   4.476  49.700  1.00  0.00     0.151 C 
HETATM   10  H7  UNL     1      19.675   5.282  51.356  1.00  0.00     0.164 HD
ENDROOT
BRANCH   8  11
HETATM   11  C6  UNL     1      23.822   4.109  52.352  1.00  0.00     0.170 C 
BRANCH  11  12
HETATM   12  C7  UNL     1      23.980   2.648  52.541  1.00  0.00    -0.005 A 
HETATM   13  C8  UNL     1      22.906   1.767  52.566  1.00  0.00     0.012 A 
HETATM   14  C9  UNL     1      23.003   0.402  52.727  1.00  0.00     0.002 A 
HETATM   15  C10 UNL     1      24.246  -0.162  52.876  1.00  0.00     0.026 A 
HETATM   16  C11 UNL     1      25.353   0.642  52.862  1.00  0.00     0.067 A 
HETATM   17 CL1  UNL     1      26.936  -0.089  53.052  1.00  0.00    -0.081 Cl
HETATM   18  C12 UNL     1      25.185   2.000  52.698  1.00  0.00     0.095 A 
BRANCH  18  19
HETATM   19  O2  UNL     1      26.358   2.736  52.698  1.00  0.00    -0.358 OA
HETATM   20  H13 UNL     1      26.756   3.178  51.874  1.00  0.00     0.217 HD
ENDBRANCH  18  19
ENDBRANCH  11  12
ENDBRANCH   8  11
BRANCH   9  21
HETATM   21  C14 UNL     1      24.824   4.562  49.390  1.00  0.00    -0.031 A 
HETATM   22  C15 UNL     1      25.889   3.702  49.459  1.00  0.00     0.012 A 
HETATM   23  C16 UNL     1      27.184   3.969  49.097  1.00  0.00     0.043 A 
HETATM   24  C17 UNL     1      27.461   5.234  48.609  1.00  0.00     0.116 A 
HETATM   25  F1  UNL     1      28.749   5.465  48.261  1.00  0.00    -0.206 F 
HETATM   26  C18 UNL     1      26.430   6.156  48.511  1.00  0.00     0.043 A 
HETATM   27  C19 UNL     1      25.138   5.839  48.890  1.00  0.00     0.012 A 
ENDBRANCH   9  21
TORSDOF 4
ENDMDL
MODEL 5
REMARK VINA RESULT:      -7.9      4.895      7.527
REMARK  4 active torsions:
REMARK  status: ('A' for Active; 'I' for Inactive)
REMARK    1  A    between atoms: N2_8  and  C6_9 
REMARK    2  A    between atoms: C6_9  and  C7_10 
REMARK    3  A    between atoms: C12_16  and  O2_17 
REMARK    4  A    between atoms: C13_18  and  C14_19 
ROOT
HETATM    1  C1  UNL     1      23.005   2.481  48.396  1.00  0.00     0.046 C 
HETATM    2  C2  UNL     1      23.869   3.064  49.494  1.00  0.00    -0.059 C 
HETATM    3  C3  UNL     1      24.828   3.849  48.921  1.00  0.00    -0.003 C 
HETATM    4  C4  UNL     1      25.926   4.651  49.536  1.00  0.00     0.151 C 
HETATM    5  N1  UNL     1      25.385   5.604  50.514  1.00  0.00    -0.340 N 
HETATM    6  C5  UNL     1      24.244   5.359  51.369  1.00  0.00     0.319 C 
HETATM    7  O1  UNL     1      24.057   6.391  52.077  1.00  0.00    -0.247 OA
HETATM    8  N2  UNL     1      23.378   4.197  51.503  1.00  0.00    -0.317 N 
HETATM    9  C13 UNL     1      23.813   2.909  50.948  1.00  0.00     0.151 C 
HETATM   10  H7  UNL     1      25.877   6.517  50.575  1.00  0.00     0.164 HD
ENDROOT
BRANCH   8  11
HETATM   11  C6  UNL     1      22.208   4.676  52.224  1.00  0.00     0.170 C 
BRANCH  11  12
HETATM   12  C7  UNL     1      20.969   4.623  51.412  1.00  0.00    -0.005 A 
HETATM   13  C8  UNL     1      20.800   5.354  50.243  1.00  0.00     0.012 A 
HETATM   14  C9  UNL     1      19.673   5.329  49.450  1.00  0.00     0.002 A 
HETATM   15  C10 UNL     1      18.619   4.530  49.818  1.00  0.00     0.026 A 
HETATM   16  C11 UNL     1      18.712   3.780  50.958  1.00  0.00     0.067 A 
HETATM   17 CL1  UNL     1      17.361   2.762  51.417  1.00  0.00    -0.081 Cl
HETATM   18  C12 UNL     1      19.868   3.851  51.707  1.00  0.00     0.095 A 
BRANCH  18  19
HETATM   19  O2  UNL     1      19.874   3.062  52.845  1.00  0.00    -0.358 OA
HETATM   20  H13 UNL     1      19.565   2.094  52.870  1.00  0.00     0.217 HD
ENDBRANCH  18  19
ENDBRANCH  11  12
ENDBRANCH   8  11
BRANCH   9  21
HETATM   21  C14 UNL     1      23.177   1.751  51.522  1.00  0.00    -0.031 A 
HETATM   22  C15 UNL     1      22.042   1.031  51.253  1.00  0.00     0.012 A 
HETATM   23  C16 UNL     1      21.596  -0.079  51.922  1.00  0.00     0.043 A 
HETATM   24  C17 UNL     1      22.361  -0.533  52.982  1.00  0.00     0.116 A 
HETATM   25  F1  UNL     1      21.893  -1.630  53.621  1.00  0.00    -0.206 F 
HETATM   26  C18 UNL     1      23.524   0.147  53.311  1.00  0.00     0.043 A 
HETATM   27  C19 UNL     1      23.933   1.264  52.605  1.00  0.00     0.012 A 
ENDBRANCH   9  21
TORSDOF 4
ENDMDL
MODEL 6
REMARK VINA RESULT:      -7.9      9.308     11.666
REMARK  4 active torsions:
REMARK  status: ('A' for Active; 'I' for Inactive)
REMARK    1  A    between atoms: N2_8  and  C6_9 
REMARK    2  A    between atoms: C6_9  and  C7_10 
REMARK    3  A    between atoms: C12_16  and  O2_17 
REMARK    4  A    between atoms: C13_18  and  C14_19 
ROOT
HETATM    1  C1  UNL     1      30.939   7.961  44.706  1.00  0.00     0.046 C 
HETATM    2  C2  UNL     1      31.635   7.064  45.707  1.00  0.00    -0.059 C 
HETATM    3  C3  UNL     1      32.813   6.638  45.163  1.00  0.00    -0.003 C 
HETATM    4  C4  UNL     1      33.874   5.746  45.715  1.00  0.00     0.151 C 
HETATM    5  N1  UNL     1      34.373   6.268  46.996  1.00  0.00    -0.340 N 
HETATM    6  C5  UNL     1      33.569   6.957  47.981  1.00  0.00     0.319 C 
HETATM    7  O1  UNL     1      34.320   7.266  48.952  1.00  0.00    -0.247 OA
HETATM    8  N2  UNL     1      32.156   7.301  47.995  1.00  0.00    -0.317 N 
HETATM    9  C13 UNL     1      31.245   6.638  47.051  1.00  0.00     0.151 C 
HETATM   10  H7  UNL     1      35.384   6.118  47.181  1.00  0.00     0.164 HD
ENDROOT
BRANCH   8  11
HETATM   11  C6  UNL     1      32.017   8.299  49.044  1.00  0.00     0.170 C 
BRANCH  11  12
HETATM   12  C7  UNL     1      31.583   9.619  48.530  1.00  0.00    -0.005 A 
HETATM   13  C8  UNL     1      32.228  10.275  47.489  1.00  0.00     0.012 A 
HETATM   14  C9  UNL     1      31.856  11.496  46.970  1.00  0.00     0.002 A 
HETATM   15  C10 UNL     1      30.765  12.140  47.502  1.00  0.00     0.026 A 
HETATM   16  C11 UNL     1      30.079  11.556  48.531  1.00  0.00     0.067 A 
HETATM   17 CL1  UNL     1      28.687  12.386  49.201  1.00  0.00    -0.081 Cl
HETATM   18  C12 UNL     1      30.505  10.333  49.004  1.00  0.00     0.095 A 
BRANCH  18  19
HETATM   19  O2  UNL     1      29.753   9.818  50.046  1.00  0.00    -0.358 OA
HETATM   20  H13 UNL     1      29.194  10.383  50.681  1.00  0.00     0.217 HD
ENDBRANCH  18  19
ENDBRANCH  11  12
ENDBRANCH   8  11
BRANCH   9  21
HETATM   21  C14 UNL     1      29.857   6.648  47.434  1.00  0.00    -0.031 A 
HETATM   22  C15 UNL     1      28.819   7.535  47.304  1.00  0.00     0.012 A 
HETATM   23  C16 UNL     1      27.530   7.358  47.733  1.00  0.00     0.043 A 
HETATM   24  C17 UNL     1      27.227   6.165  48.364  1.00  0.00     0.116 A 
HETATM   25  F1  UNL     1      25.946   6.022  48.776  1.00  0.00    -0.206 F 
HETATM   26  C18 UNL     1      28.229   5.220  48.530  1.00  0.00     0.043 A 
HETATM   27  C19 UNL     1      29.517   5.445  48.079  1.00  0.00     0.012 A 
ENDBRANCH   9  21
TORSDOF 4
ENDMDL
MODEL 7
REMARK VINA RESULT:      -7.7      9.863     12.534
REMARK  4 active torsions:
REMARK  status: ('A' for Active; 'I' for Inactive)
REMARK    1  A    between atoms: N2_8  and  C6_9 
REMARK    2  A    between atoms: C6_9  and  C7_10 
REMARK    3  A    between atoms: C12_16  and  O2_17 
REMARK    4  A    between atoms: C13_18  and  C14_19 
ROOT
HETATM    1  C1  UNL     1      31.181   8.134  45.089  1.00  0.00     0.046 C 
HETATM    2  C2  UNL     1      31.752   9.225  45.969  1.00  0.00    -0.059 C 
HETATM    3  C3  UNL     1      31.545  10.428  45.359  1.00  0.00    -0.003 C 
HETATM    4  C4  UNL     1      31.904  11.812  45.788  1.00  0.00     0.151 C 
HETATM    5  N1  UNL     1      31.334  12.108  47.109  1.00  0.00    -0.340 N 
HETATM    6  C5  UNL     1      31.179  11.149  48.181  1.00  0.00     0.319 C 
HETATM    7  O1  UNL     1      30.653  11.745  49.166  1.00  0.00    -0.247 OA
HETATM    8  N2  UNL     1      31.517   9.736  48.260  1.00  0.00    -0.317 N 
HETATM    9  C13 UNL     1      32.430   9.159  47.264  1.00  0.00     0.151 C 
HETATM   10  H7  UNL     1      31.025  13.089  47.258  1.00  0.00     0.164 HD
ENDROOT
BRANCH   8  11
HETATM   11  C6  UNL     1      30.792   9.235  49.417  1.00  0.00     0.170 C 
BRANCH  11  12
HETATM   12  C7  UNL     1      29.505   8.594  49.059  1.00  0.00    -0.005 A 
HETATM   13  C8  UNL     1      29.425   7.411  48.335  1.00  0.00     0.012 A 
HETATM   14  C9  UNL     1      28.255   6.772  47.988  1.00  0.00     0.002 A 
HETATM   15  C10 UNL     1      27.057   7.324  48.372  1.00  0.00     0.026 A 
HETATM   16  C11 UNL     1      27.056   8.490  49.088  1.00  0.00     0.067 A 
HETATM   17 CL1  UNL     1      25.521   9.184  49.575  1.00  0.00    -0.081 Cl
HETATM   18  C12 UNL     1      28.262   9.078  49.402  1.00  0.00     0.095 A 
BRANCH  18  19
HETATM   19  O2  UNL     1      28.165  10.255  50.124  1.00  0.00    -0.358 OA
HETATM   20  H13 UNL     1      28.026  10.298  51.131  1.00  0.00     0.217 HD
ENDBRANCH  18  19
ENDBRANCH  11  12
ENDBRANCH   8  11
BRANCH   9  21
HETATM   21  C14 UNL     1      33.086   7.944  47.671  1.00  0.00    -0.031 A 
HETATM   22  C15 UNL     1      32.731   6.621  47.733  1.00  0.00     0.012 A 
HETATM   23  C16 UNL     1      33.518   5.578  48.148  1.00  0.00     0.043 A 
HETATM   24  C17 UNL     1      34.808   5.875  48.549  1.00  0.00     0.116 A 
HETATM   25  F1  UNL     1      35.559   4.823  48.953  1.00  0.00    -0.206 F 
HETATM   26  C18 UNL     1      35.237   7.194  48.511  1.00  0.00     0.043 A 
HETATM   27  C19 UNL     1      34.404   8.212  48.084  1.00  0.00     0.012 A 
ENDBRANCH   9  21
TORSDOF 4
ENDMDL
MODEL 8
REMARK VINA RESULT:      -7.7      4.157      5.905
REMARK  4 active torsions:
REMARK  status: ('A' for Active; 'I' for Inactive)
REMARK    1  A    between atoms: N2_8  and  C6_9 
REMARK    2  A    between atoms: C6_9  and  C7_10 
REMARK    3  A    between atoms: C12_16  and  O2_17 
REMARK    4  A    between atoms: C13_18  and  C14_19 
ROOT
HETATM    1  C1  UNL     1      23.813   0.411  53.378  1.00  0.00     0.046 C 
HETATM    2  C2  UNL     1      22.718   0.875  52.441  1.00  0.00    -0.059 C 
HETATM    3  C3  UNL     1      21.638   0.053  52.594  1.00  0.00    -0.003 C 
HETATM    4  C4  UNL     1      20.305   0.061  51.923  1.00  0.00     0.151 C 
HETATM    5  N1  UNL     1      19.646   1.364  52.099  1.00  0.00    -0.340 N 
HETATM    6  C5  UNL     1      20.326   2.640  52.140  1.00  0.00     0.319 C 
HETATM    7  O1  UNL     1      19.455   3.542  52.307  1.00  0.00    -0.247 OA
HETATM    8  N2  UNL     1      21.736   2.979  52.025  1.00  0.00    -0.317 N 
HETATM    9  C13 UNL     1      22.674   1.984  51.487  1.00  0.00     0.151 C 
HETATM   10  H7  UNL     1      18.612   1.337  52.200  1.00  0.00     0.164 HD
ENDROOT
BRANCH   8  11
HETATM   11  C6  UNL     1      21.841   4.344  52.517  1.00  0.00     0.170 C 
BRANCH  11  12
HETATM   12  C7  UNL     1      22.142   5.322  51.445  1.00  0.00    -0.005 A 
HETATM   13  C8  UNL     1      21.291   5.552  50.371  1.00  0.00     0.012 A 
HETATM   14  C9  UNL     1      21.521   6.457  49.358  1.00  0.00     0.002 A 
HETATM   15  C10 UNL     1      22.673   7.205  49.383  1.00  0.00     0.026 A 
HETATM   16  C11 UNL     1      23.561   7.032  50.410  1.00  0.00     0.067 A 
HETATM   17 CL1  UNL     1      25.028   7.993  50.434  1.00  0.00    -0.081 Cl
HETATM   18  C12 UNL     1      23.269   6.110  51.392  1.00  0.00     0.095 A 
BRANCH  18  19
HETATM   19  O2  UNL     1      24.224   6.000  52.389  1.00  0.00    -0.358 OA
HETATM   20  H13 UNL     1      24.104   6.353  53.336  1.00  0.00     0.217 HD
ENDBRANCH  18  19
ENDBRANCH  11  12
ENDBRANCH   8  11
BRANCH   9  21
HETATM   21  C14 UNL     1      23.898   2.524  50.956  1.00  0.00    -0.031 A 
HETATM   22  C15 UNL     1      25.174   2.688  51.430  1.00  0.00     0.012 A 
HETATM   23  C16 UNL     1      26.238   3.226  50.753  1.00  0.00     0.043 A 
HETATM   24  C17 UNL     1      26.017   3.653  49.456  1.00  0.00     0.116 A 
HETATM   25  F1  UNL     1      27.087   4.179  48.816  1.00  0.00    -0.206 F 
HETATM   26  C18 UNL     1      24.749   3.516  48.911  1.00  0.00     0.043 A 
HETATM   27  C19 UNL     1      23.706   2.966  49.634  1.00  0.00     0.012 A 
ENDBRANCH   9  21
TORSDOF 4
ENDMDL
MODEL 9
REMARK VINA RESULT:      -7.5      8.333     11.139
REMARK  4 active torsions:
REMARK  status: ('A' for Active; 'I' for Inactive)
REMARK    1  A    between atoms: N2_8  and  C6_9 
REMARK    2  A    between atoms: C6_9  and  C7_10 
REMARK    3  A    between atoms: C12_16  and  O2_17 
REMARK    4  A    between atoms: C13_18  and  C14_19 
ROOT
HETATM    1  C1  UNL     1      28.033   8.114  45.396  1.00  0.00     0.046 C 
HETATM    2  C2  UNL     1      29.064   7.841  46.470  1.00  0.00    -0.059 C 
HETATM    3  C3  UNL     1      30.302   8.117  45.963  1.00  0.00    -0.003 C 
HETATM    4  C4  UNL     1      31.653   8.022  46.589  1.00  0.00     0.151 C 
HETATM    5  N1  UNL     1      31.710   8.824  47.820  1.00  0.00    -0.340 N 
HETATM    6  C5  UNL     1      30.612   9.007  48.743  1.00  0.00     0.319 C 
HETATM    7  O1  UNL     1      31.012   9.754  49.683  1.00  0.00    -0.247 OA
HETATM    8  N2  UNL     1      29.251   8.492  48.729  1.00  0.00    -0.317 N 
HETATM    9  C13 UNL     1      28.918   7.366  47.846  1.00  0.00     0.151 C 
HETATM   10  H7  UNL     1      32.620   9.285  48.017  1.00  0.00     0.164 HD
ENDROOT
BRANCH   8  11
HETATM   11  C6  UNL     1      28.525   9.309  49.689  1.00  0.00     0.170 C 
BRANCH  11  12
HETATM   12  C7  UNL     1      27.683  10.344  49.045  1.00  0.00    -0.005 A 
HETATM   13  C8  UNL     1      26.389  10.098  48.602  1.00  0.00     0.012 A 
HETATM   14  C9  UNL     1      25.564  11.029  48.009  1.00  0.00     0.002 A 
HETATM   15  C10 UNL     1      26.029  12.309  47.828  1.00  0.00     0.026 A 
HETATM   16  C11 UNL     1      27.294  12.626  48.239  1.00  0.00     0.067 A 
HETATM   17 CL1  UNL     1      27.876  14.264  48.005  1.00  0.00    -0.081 Cl
HETATM   18  C12 UNL     1      28.067  11.647  48.825  1.00  0.00     0.095 A 
BRANCH  18  19
HETATM   19  O2  UNL     1      29.333  12.057  49.208  1.00  0.00    -0.358 OA
HETATM   20  H13 UNL     1      30.101  12.219  48.562  1.00  0.00     0.217 HD
ENDBRANCH  18  19
ENDBRANCH  11  12
ENDBRANCH   8  11
BRANCH   9  21
HETATM   21  C14 UNL     1      27.748   6.618  48.227  1.00  0.00    -0.031 A 
HETATM   22  C15 UNL     1      26.406   6.886  48.307  1.00  0.00     0.012 A 
HETATM   23  C16 UNL     1      25.416   6.018  48.691  1.00  0.00     0.043 A 
HETATM   24  C17 UNL     1      25.796   4.733  49.036  1.00  0.00     0.116 A 
HETATM   25  F1  UNL     1      24.796   3.902  49.410  1.00  0.00    -0.206 F 
HETATM   26  C18 UNL     1      27.139   4.391  48.978  1.00  0.00     0.043 A 
HETATM   27  C19 UNL     1      28.101   5.304  48.584  1.00  0.00     0.012 A 
ENDBRANCH   9  21
TORSDOF 4
ENDMDL
