MODEL 1
REMARK VINA RESULT:      -8.2      0.000      0.000
REMARK  7 active torsions:
REMARK  status: ('A' for Active; 'I' for Inactive)
REMARK    1  A    between atoms: C2_2  and  O1_3 
REMARK    2  A    between atoms: O1_3  and  C3_4 
REMARK    3  A    between atoms: C3_4  and  C4_5 
REMARK    4  A    between atoms: C4_5  and  C5_6 
REMARK    5  A    between atoms: C11_14  and  N2_15 
REMARK    6  A    between atoms: C17_23  and  O3_24 
REMARK    7  A    between atoms: O3_24  and  C18_25 
ROOT
HETATM    1  C5  UNL     1      24.948   2.940  51.449  1.00  0.00     0.044 C 
HETATM    2  C6  UNL     1      24.282   4.042  50.715  1.00  0.00     0.130 C 
HETATM    3  N1  UNL     1      22.838   4.111  51.003  1.00  0.00    -0.357 N 
HETATM    4  C7  UNL     1      21.855   4.255  51.994  1.00  0.00     0.241 C 
HETATM    5  O2  UNL     1      22.832   4.375  52.750  1.00  0.00    -0.269 OA
HETATM    6  C8  UNL     1      20.418   4.241  51.999  1.00  0.00     0.075 C 
HETATM    7  C9  UNL     1      19.619   4.041  51.030  1.00  0.00     0.023 C 
HETATM    8  C10 UNL     1      19.628   3.758  49.613  1.00  0.00     0.038 A 
HETATM    9  C11 UNL     1      19.023   4.631  48.758  1.00  0.00     0.135 A 
HETATM   10  N3  UNL     1      19.029   4.407  47.447  1.00  0.00    -0.224 NA
HETATM   11  C12 UNL     1      19.605   3.348  46.887  1.00  0.00     0.235 A 
HETATM   12  N4  UNL     1      20.210   2.463  47.676  1.00  0.00    -0.241 NA
HETATM   13  C13 UNL     1      20.228   2.650  49.006  1.00  0.00     0.071 A 
HETATM   14  C14 UNL     1      20.940   1.656  49.818  1.00  0.00     0.029 C 
HETATM   15  C15 UNL     1      21.735   0.916  50.564  1.00  0.00    -0.016 C 
HETATM   16  C16 UNL     1      23.033   1.472  51.024  1.00  0.00     0.057 C 
HETATM   17  C17 UNL     1      24.256   1.678  51.587  1.00  0.00     0.107 C 
HETATM   18  H13 UNL     1      22.310   4.072  50.119  1.00  0.00     0.162 HD
ENDROOT
BRANCH  17  19
HETATM   19  O3  UNL     1      25.065   0.968  52.300  1.00  0.00    -0.363 OA
BRANCH  19  20
HETATM   20  C18 UNL     1      25.872   0.252  53.014  1.00  0.00     0.172 C 
HETATM   21  C19 UNL     1      26.726  -0.651  52.140  1.00  0.00     0.021 C 
HETATM   22  C20 UNL     1      27.610  -1.344  52.830  1.00  0.00    -0.024 C 
HETATM   23  C21 UNL     1      28.565  -0.728  53.515  1.00  0.00     0.054 C 
HETATM   24  C22 UNL     1      28.122   0.534  54.108  1.00  0.00     0.116 C 
HETATM   25  F1  UNL     1      28.992   1.210  54.879  1.00  0.00    -0.206 F 
HETATM   26  C23 UNL     1      26.888   0.967  53.868  1.00  0.00     0.051 C 
ENDBRANCH  19  20
ENDBRANCH  17  19
BRANCH   1  27
HETATM   27  C4  UNL     1      26.356   2.840  50.934  1.00  0.00     0.035 C 
BRANCH  27  28
HETATM   28  C3  UNL     1      26.568   3.236  49.521  1.00  0.00     0.168 C 
BRANCH  28  29
HETATM   29  O1  UNL     1      27.600   4.124  49.342  1.00  0.00    -0.391 OA
BRANCH  29  30
HETATM   30  C2  UNL     1      27.186   5.277  48.657  1.00  0.00     0.163 C 
HETATM   31  C1  UNL     1      28.409   6.049  48.233  1.00  0.00     0.033 C 
ENDBRANCH  29  30
ENDBRANCH  28  29
ENDBRANCH  27  28
ENDBRANCH   1  27
BRANCH   9  32
HETATM   32  N2  UNL     1      18.382   5.777  49.294  1.00  0.00    -0.383 N 
HETATM   33  H16 UNL     1      18.948   6.390  49.882  1.00  0.00     0.157 HD
HETATM   34  H17 UNL     1      17.423   6.227  49.268  1.00  0.00     0.157 HD
ENDBRANCH   9  32
TORSDOF 7
ENDMDL
MODEL 2
REMARK VINA RESULT:      -7.9      3.554      5.717
REMARK  7 active torsions:
REMARK  status: ('A' for Active; 'I' for Inactive)
REMARK    1  A    between atoms: C2_2  and  O1_3 
REMARK    2  A    between atoms: O1_3  and  C3_4 
REMARK    3  A    between atoms: C3_4  and  C4_5 
REMARK    4  A    between atoms: C4_5  and  C5_6 
REMARK    5  A    between atoms: C11_14  and  N2_15 
REMARK    6  A    between atoms: C17_23  and  O3_24 
REMARK    7  A    between atoms: O3_24  and  C18_25 
ROOT
HETATM    1  C5  UNL     1      23.884   5.607  51.394  1.00  0.00     0.044 C 
HETATM    2  C6  UNL     1      22.734   5.077  52.163  1.00  0.00     0.130 C 
HETATM    3  N1  UNL     1      22.772   3.609  52.284  1.00  0.00    -0.357 N 
HETATM    4  C7  UNL     1      23.505   2.497  52.725  1.00  0.00     0.241 C 
HETATM    5  O2  UNL     1      24.307   3.356  53.121  1.00  0.00    -0.269 OA
HETATM    6  C8  UNL     1      23.309   1.074  52.672  1.00  0.00     0.075 C 
HETATM    7  C9  UNL     1      22.361   0.418  52.134  1.00  0.00     0.023 C 
HETATM    8  C10 UNL     1      21.140   0.625  51.389  1.00  0.00     0.038 A 
HETATM    9  C11 UNL     1      19.963   0.169  51.905  1.00  0.00     0.135 A 
HETATM   10  N3  UNL     1      18.820   0.359  51.251  1.00  0.00    -0.224 NA
HETATM   11  C12 UNL     1      18.740   0.987  50.083  1.00  0.00     0.235 A 
HETATM   12  N4  UNL     1      19.859   1.453  49.534  1.00  0.00    -0.241 NA
HETATM   13  C13 UNL     1      21.036   1.283  50.159  1.00  0.00     0.071 A 
HETATM   14  C14 UNL     1      22.229   1.849  49.519  1.00  0.00     0.029 C 
HETATM   15  C15 UNL     1      23.286   2.513  49.097  1.00  0.00    -0.016 C 
HETATM   16  C16 UNL     1      23.712   3.743  49.813  1.00  0.00     0.057 C 
HETATM   17  C17 UNL     1      24.341   4.875  50.233  1.00  0.00     0.107 C 
HETATM   18  H13 UNL     1      21.887   3.213  51.933  1.00  0.00     0.162 HD
ENDROOT
BRANCH  17  19
HETATM   19  O3  UNL     1      25.359   5.558  49.829  1.00  0.00    -0.363 OA
BRANCH  19  20
HETATM   20  C18 UNL     1      26.383   6.241  49.430  1.00  0.00     0.172 C 
HETATM   21  C19 UNL     1      27.378   5.362  48.691  1.00  0.00     0.021 C 
HETATM   22  C20 UNL     1      28.400   6.039  48.208  1.00  0.00    -0.024 C 
HETATM   23  C21 UNL     1      28.214   6.983  47.294  1.00  0.00     0.054 C 
HETATM   24  C22 UNL     1      26.972   7.731  47.487  1.00  0.00     0.116 C 
HETATM   25  F1  UNL     1      26.714   8.754  46.654  1.00  0.00    -0.206 F 
HETATM   26  C23 UNL     1      26.146   7.378  48.468  1.00  0.00     0.051 C 
ENDBRANCH  19  20
ENDBRANCH  17  19
BRANCH   1  27
HETATM   27  C4  UNL     1      23.640   7.072  51.166  1.00  0.00     0.035 C 
BRANCH  27  28
HETATM   28  C3  UNL     1      22.391   7.426  50.451  1.00  0.00     0.168 C 
BRANCH  28  29
HETATM   29  O1  UNL     1      22.574   7.707  49.120  1.00  0.00    -0.391 OA
BRANCH  29  30
HETATM   30  C2  UNL     1      21.853   6.830  48.295  1.00  0.00     0.163 C 
HETATM   31  C1  UNL     1      22.773   6.323  47.214  1.00  0.00     0.033 C 
ENDBRANCH  29  30
ENDBRANCH  28  29
ENDBRANCH  27  28
ENDBRANCH   1  27
BRANCH   9  32
HETATM   32  N2  UNL     1      19.983  -0.518  53.145  1.00  0.00    -0.383 N 
HETATM   33  H16 UNL     1      19.751   0.026  53.977  1.00  0.00     0.157 HD
HETATM   34  H17 UNL     1      20.178  -1.497  53.499  1.00  0.00     0.157 HD
ENDBRANCH   9  32
TORSDOF 7
ENDMDL
MODEL 3
REMARK VINA RESULT:      -7.8      3.897      6.345
REMARK  7 active torsions:
REMARK  status: ('A' for Active; 'I' for Inactive)
REMARK    1  A    between atoms: C2_2  and  O1_3 
REMARK    2  A    between atoms: O1_3  and  C3_4 
REMARK    3  A    between atoms: C3_4  and  C4_5 
REMARK    4  A    between atoms: C4_5  and  C5_6 
REMARK    5  A    between atoms: C11_14  and  N2_15 
REMARK    6  A    between atoms: C17_23  and  O3_24 
REMARK    7  A    between atoms: O3_24  and  C18_25 
ROOT
HETATM    1  C5  UNL     1      23.503   2.247  52.747  1.00  0.00     0.044 C 
HETATM    2  C6  UNL     1      24.543   3.282  52.959  1.00  0.00     0.130 C 
HETATM    3  N1  UNL     1      24.227   4.540  52.260  1.00  0.00    -0.357 N 
HETATM    4  C7  UNL     1      23.302   5.584  52.103  1.00  0.00     0.241 C 
HETATM    5  O2  UNL     1      22.684   4.985  52.997  1.00  0.00    -0.269 OA
HETATM    6  C8  UNL     1      23.222   6.743  51.257  1.00  0.00     0.075 C 
HETATM    7  C9  UNL     1      24.021   7.119  50.341  1.00  0.00     0.023 C 
HETATM    8  C10 UNL     1      25.249   6.716  49.693  1.00  0.00     0.038 A 
HETATM    9  C11 UNL     1      26.324   7.554  49.732  1.00  0.00     0.135 A 
HETATM   10  N3  UNL     1      27.473   7.204  49.160  1.00  0.00    -0.224 NA
HETATM   11  C12 UNL     1      27.655   6.050  48.526  1.00  0.00     0.235 A 
HETATM   12  N4  UNL     1      26.638   5.196  48.458  1.00  0.00    -0.241 NA
HETATM   13  C13 UNL     1      25.459   5.507  49.022  1.00  0.00     0.071 A 
HETATM   14  C14 UNL     1      24.387   4.509  48.941  1.00  0.00     0.029 C 
HETATM   15  C15 UNL     1      23.469   3.573  49.081  1.00  0.00    -0.016 C 
HETATM   16  C16 UNL     1      23.295   2.907  50.397  1.00  0.00     0.057 C 
HETATM   17  C17 UNL     1      22.900   2.124  51.438  1.00  0.00     0.107 C 
HETATM   18  H13 UNL     1      25.015   4.799  51.649  1.00  0.00     0.162 HD
ENDROOT
BRANCH  17  19
HETATM   19  O3  UNL     1      22.024   1.189  51.597  1.00  0.00    -0.363 OA
BRANCH  19  20
HETATM   20  C18 UNL     1      21.150   0.250  51.762  1.00  0.00     0.172 C 
HETATM   21  C19 UNL     1      20.654   0.206  53.198  1.00  0.00     0.021 C 
HETATM   22  C20 UNL     1      19.708  -0.693  53.386  1.00  0.00    -0.024 C 
HETATM   23  C21 UNL     1      18.547  -0.595  52.751  1.00  0.00     0.054 C 
HETATM   24  C22 UNL     1      18.678  -0.063  51.395  1.00  0.00     0.116 C 
HETATM   25  F1  UNL     1      17.570   0.018  50.638  1.00  0.00    -0.206 F 
HETATM   26  C23 UNL     1      19.875   0.319  50.959  1.00  0.00     0.051 C 
ENDBRANCH  19  20
ENDBRANCH  17  19
BRANCH   1  27
HETATM   27  C4  UNL     1      24.019   0.962  53.331  1.00  0.00     0.035 C 
BRANCH  27  28
HETATM   28  C3  UNL     1      25.464   0.689  53.145  1.00  0.00     0.168 C 
BRANCH  28  29
HETATM   29  O1  UNL     1      25.984  -0.193  54.059  1.00  0.00    -0.391 OA
BRANCH  29  30
HETATM   30  C2  UNL     1      27.261   0.195  54.494  1.00  0.00     0.163 C 
HETATM   31  C1  UNL     1      27.812   1.207  53.522  1.00  0.00     0.033 C 
ENDBRANCH  29  30
ENDBRANCH  28  29
ENDBRANCH  27  28
ENDBRANCH   1  27
BRANCH   9  32
HETATM   32  N2  UNL     1      26.191   8.804  50.387  1.00  0.00    -0.383 N 
HETATM   33  H16 UNL     1      26.237   8.799  51.406  1.00  0.00     0.157 HD
HETATM   34  H17 UNL     1      26.049   9.820  50.120  1.00  0.00     0.157 HD
ENDBRANCH   9  32
TORSDOF 7
ENDMDL
MODEL 4
REMARK VINA RESULT:      -7.8      2.542      4.713
REMARK  7 active torsions:
REMARK  status: ('A' for Active; 'I' for Inactive)
REMARK    1  A    between atoms: C2_2  and  O1_3 
REMARK    2  A    between atoms: O1_3  and  C3_4 
REMARK    3  A    between atoms: C3_4  and  C4_5 
REMARK    4  A    between atoms: C4_5  and  C5_6 
REMARK    5  A    between atoms: C11_14  and  N2_15 
REMARK    6  A    between atoms: C17_23  and  O3_24 
REMARK    7  A    between atoms: O3_24  and  C18_25 
ROOT
HETATM    1  C5  UNL     1      23.627   1.879  51.595  1.00  0.00     0.044 C 
HETATM    2  C6  UNL     1      22.252   2.360  51.324  1.00  0.00     0.130 C 
HETATM    3  N1  UNL     1      22.150   3.055  50.028  1.00  0.00    -0.357 N 
HETATM    4  C7  UNL     1      22.328   2.958  48.639  1.00  0.00     0.241 C 
HETATM    5  O2  UNL     1      22.647   1.789  48.901  1.00  0.00    -0.269 OA
HETATM    6  C8  UNL     1      22.183   3.871  47.538  1.00  0.00     0.075 C 
HETATM    7  C9  UNL     1      21.865   5.102  47.558  1.00  0.00     0.023 C 
HETATM    8  C10 UNL     1      21.525   6.154  48.489  1.00  0.00     0.038 A 
HETATM    9  C11 UNL     1      20.311   6.767  48.382  1.00  0.00     0.135 A 
HETATM   10  N3  UNL     1      19.963   7.727  49.235  1.00  0.00    -0.224 NA
HETATM   11  C12 UNL     1      20.745   8.150  50.222  1.00  0.00     0.235 A 
HETATM   12  N4  UNL     1      21.940   7.586  50.371  1.00  0.00    -0.241 NA
HETATM   13  C13 UNL     1      22.334   6.613  49.533  1.00  0.00     0.071 A 
HETATM   14  C14 UNL     1      23.650   6.008  49.771  1.00  0.00     0.029 C 
HETATM   15  C15 UNL     1      24.719   5.295  50.065  1.00  0.00    -0.016 C 
HETATM   16  C16 UNL     1      24.557   3.949  50.670  1.00  0.00     0.057 C 
HETATM   17  C17 UNL     1      24.745   2.718  51.222  1.00  0.00     0.107 C 
HETATM   18  H13 UNL     1      21.754   3.995  50.173  1.00  0.00     0.162 HD
ENDROOT
BRANCH  17  19
HETATM   19  O3  UNL     1      25.774   2.007  51.541  1.00  0.00    -0.363 OA
BRANCH  19  20
HETATM   20  C18 UNL     1      26.806   1.297  51.866  1.00  0.00     0.172 C 
HETATM   21  C19 UNL     1      27.324   1.678  53.243  1.00  0.00     0.021 C 
HETATM   22  C20 UNL     1      28.331   0.925  53.637  1.00  0.00    -0.024 C 
HETATM   23  C21 UNL     1      28.172  -0.380  53.811  1.00  0.00     0.054 C 
HETATM   24  C22 UNL     1      27.253  -0.980  52.843  1.00  0.00     0.116 C 
HETATM   25  F1  UNL     1      27.068  -2.311  52.888  1.00  0.00    -0.206 F 
HETATM   26  C23 UNL     1      26.637  -0.198  51.962  1.00  0.00     0.051 C 
ENDBRANCH  19  20
ENDBRANCH  17  19
BRANCH   1  27
HETATM   27  C4  UNL     1      23.658   1.371  53.008  1.00  0.00     0.035 C 
BRANCH  27  28
HETATM   28  C3  UNL     1      23.130   0.003  53.226  1.00  0.00     0.168 C 
BRANCH  28  29
HETATM   29  O1  UNL     1      23.788  -0.697  54.207  1.00  0.00    -0.391 OA
BRANCH  29  30
HETATM   30  C2  UNL     1      22.900  -1.251  55.141  1.00  0.00     0.163 C 
HETATM   31  C1  UNL     1      21.574  -1.485  54.463  1.00  0.00     0.033 C 
ENDBRANCH  29  30
ENDBRANCH  28  29
ENDBRANCH  27  28
ENDBRANCH   1  27
BRANCH   9  32
HETATM   32  N2  UNL     1      19.434   6.366  47.343  1.00  0.00    -0.383 N 
HETATM   33  H16 UNL     1      18.555   6.877  47.258  1.00  0.00     0.157 HD
HETATM   34  H17 UNL     1      19.411   5.643  46.568  1.00  0.00     0.157 HD
ENDBRANCH   9  32
TORSDOF 7
ENDMDL
MODEL 5
REMARK VINA RESULT:      -7.8      7.747     10.991
REMARK  7 active torsions:
REMARK  status: ('A' for Active; 'I' for Inactive)
REMARK    1  A    between atoms: C2_2  and  O1_3 
REMARK    2  A    between atoms: O1_3  and  C3_4 
REMARK    3  A    between atoms: C3_4  and  C4_5 
REMARK    4  A    between atoms: C4_5  and  C5_6 
REMARK    5  A    between atoms: C11_14  and  N2_15 
REMARK    6  A    between atoms: C17_23  and  O3_24 
REMARK    7  A    between atoms: O3_24  and  C18_25 
ROOT
HETATM    1  C5  UNL     1      32.953   6.412  47.309  1.00  0.00     0.044 C 
HETATM    2  C6  UNL     1      32.285   6.740  48.590  1.00  0.00     0.130 C 
HETATM    3  N1  UNL     1      30.830   6.508  48.535  1.00  0.00    -0.357 N 
HETATM    4  C7  UNL     1      29.809   5.573  48.308  1.00  0.00     0.241 C 
HETATM    5  O2  UNL     1      30.754   4.782  48.166  1.00  0.00    -0.269 OA
HETATM    6  C8  UNL     1      28.373   5.635  48.275  1.00  0.00     0.075 C 
HETATM    7  C9  UNL     1      27.615   6.646  48.420  1.00  0.00     0.023 C 
HETATM    8  C10 UNL     1      27.682   8.070  48.654  1.00  0.00     0.038 A 
HETATM    9  C11 UNL     1      27.084   8.588  49.765  1.00  0.00     0.135 A 
HETATM   10  N3  UNL     1      27.144   9.893  50.017  1.00  0.00    -0.224 NA
HETATM   11  C12 UNL     1      27.768  10.764  49.231  1.00  0.00     0.235 A 
HETATM   12  N4  UNL     1      28.367  10.312  48.132  1.00  0.00    -0.241 NA
HETATM   13  C13 UNL     1      28.333   9.001  47.838  1.00  0.00     0.071 A 
HETATM   14  C14 UNL     1      29.042   8.561  46.631  1.00  0.00     0.029 C 
HETATM   15  C15 UNL     1      29.830   8.090  45.686  1.00  0.00    -0.016 C 
HETATM   16  C16 UNL     1      31.095   7.408  46.060  1.00  0.00     0.057 C 
HETATM   17  C17 UNL     1      32.291   6.757  46.070  1.00  0.00     0.107 C 
HETATM   18  H13 UNL     1      30.336   7.371  48.803  1.00  0.00     0.162 HD
ENDROOT
BRANCH  17  19
HETATM   19  O3  UNL     1      33.093   6.305  45.165  1.00  0.00    -0.363 OA
BRANCH  19  20
HETATM   20  C18 UNL     1      33.901   5.850  44.263  1.00  0.00     0.172 C 
HETATM   21  C19 UNL     1      33.181   4.927  43.294  1.00  0.00     0.021 C 
HETATM   22  C20 UNL     1      33.958   4.501  42.318  1.00  0.00    -0.024 C 
HETATM   23  C21 UNL     1      34.490   5.358  41.456  1.00  0.00     0.054 C 
HETATM   24  C22 UNL     1      34.856   6.635  42.069  1.00  0.00     0.116 C 
HETATM   25  F1  UNL     1      35.464   7.554  41.298  1.00  0.00    -0.206 F 
HETATM   26  C23 UNL     1      34.579   6.843  43.353  1.00  0.00     0.051 C 
ENDBRANCH  19  20
ENDBRANCH  17  19
BRANCH   1  27
HETATM   27  C4  UNL     1      34.381   6.869  47.415  1.00  0.00     0.035 C 
BRANCH  27  28
HETATM   28  C3  UNL     1      34.596   8.233  47.955  1.00  0.00     0.168 C 
BRANCH  28  29
HETATM   29  O1  UNL     1      35.358   9.037  47.144  1.00  0.00    -0.391 OA
BRANCH  29  30
HETATM   30  C2  UNL     1      34.610   9.572  46.085  1.00  0.00     0.163 C 
HETATM   31  C1  UNL     1      33.494  10.407  46.660  1.00  0.00     0.033 C 
ENDBRANCH  29  30
ENDBRANCH  28  29
ENDBRANCH  27  28
ENDBRANCH   1  27
BRANCH   9  32
HETATM   32  N2  UNL     1      26.395   7.711  50.640  1.00  0.00    -0.383 N 
HETATM   33  H16 UNL     1      26.005   8.119  51.490  1.00  0.00     0.157 HD
HETATM   34  H17 UNL     1      26.140   6.683  50.684  1.00  0.00     0.157 HD
ENDBRANCH   9  32
TORSDOF 7
ENDMDL
MODEL 6
REMARK VINA RESULT:      -7.6      4.129      7.404
REMARK  7 active torsions:
REMARK  status: ('A' for Active; 'I' for Inactive)
REMARK    1  A    between atoms: C2_2  and  O1_3 
REMARK    2  A    between atoms: O1_3  and  C3_4 
REMARK    3  A    between atoms: C3_4  and  C4_5 
REMARK    4  A    between atoms: C4_5  and  C5_6 
REMARK    5  A    between atoms: C11_14  and  N2_15 
REMARK    6  A    between atoms: C17_23  and  O3_24 
REMARK    7  A    between atoms: O3_24  and  C18_25 
ROOT
HETATM    1  C5  UNL     1      22.304   4.555  50.972  1.00  0.00     0.044 C 
HETATM    2  C6  UNL     1      22.684   4.145  52.344  1.00  0.00     0.130 C 
HETATM    3  N1  UNL     1      23.501   2.918  52.353  1.00  0.00    -0.357 N 
HETATM    4  C7  UNL     1      24.679   2.302  51.904  1.00  0.00     0.241 C 
HETATM    5  O2  UNL     1      24.900   3.410  51.393  1.00  0.00    -0.269 OA
HETATM    6  C8  UNL     1      25.244   0.986  52.038  1.00  0.00     0.075 C 
HETATM    7  C9  UNL     1      24.755  -0.037  52.614  1.00  0.00     0.023 C 
HETATM    8  C10 UNL     1      23.578  -0.456  53.341  1.00  0.00     0.038 A 
HETATM    9  C11 UNL     1      23.716  -0.916  54.617  1.00  0.00     0.135 A 
HETATM   10  N3  UNL     1      22.650  -1.292  55.318  1.00  0.00    -0.224 NA
HETATM   11  C12 UNL     1      21.409  -1.253  54.844  1.00  0.00     0.235 A 
HETATM   12  N4  UNL     1      21.218  -0.813  53.603  1.00  0.00    -0.241 NA
HETATM   13  C13 UNL     1      22.266  -0.422  52.859  1.00  0.00     0.071 A 
HETATM   14  C14 UNL     1      21.985   0.084  51.510  1.00  0.00     0.029 C 
HETATM   15  C15 UNL     1      21.771   0.737  50.386  1.00  0.00    -0.016 C 
HETATM   16  C16 UNL     1      21.907   2.216  50.360  1.00  0.00     0.057 C 
HETATM   17  C17 UNL     1      21.943   3.533  50.015  1.00  0.00     0.107 C 
HETATM   18  H13 UNL     1      23.058   2.216  52.964  1.00  0.00     0.162 HD
ENDROOT
BRANCH  17  19
HETATM   19  O3  UNL     1      21.719   4.200  48.933  1.00  0.00    -0.363 OA
BRANCH  19  20
HETATM   20  C18 UNL     1      21.493   4.874  47.852  1.00  0.00     0.172 C 
HETATM   21  C19 UNL     1      22.705   5.702  47.457  1.00  0.00     0.021 C 
HETATM   22  C20 UNL     1      22.537   6.347  46.320  1.00  0.00    -0.024 C 
HETATM   23  C21 UNL     1      22.342   5.682  45.188  1.00  0.00     0.054 C 
HETATM   24  C22 UNL     1      21.551   4.464  45.368  1.00  0.00     0.116 C 
HETATM   25  F1  UNL     1      21.239   3.746  44.274  1.00  0.00    -0.206 F 
HETATM   26  C23 UNL     1      21.173   4.109  46.592  1.00  0.00     0.051 C 
ENDBRANCH  19  20
ENDBRANCH  17  19
BRANCH   1  27
HETATM   27  C4  UNL     1      21.322   5.685  51.094  1.00  0.00     0.035 C 
BRANCH  27  28
HETATM   28  C3  UNL     1      21.867   7.052  50.909  1.00  0.00     0.168 C 
BRANCH  28  29
HETATM   29  O1  UNL     1      23.238   7.100  50.860  1.00  0.00    -0.391 OA
BRANCH  29  30
HETATM   30  C2  UNL     1      23.695   8.140  50.036  1.00  0.00     0.163 C 
HETATM   31  C1  UNL     1      22.504   8.799  49.387  1.00  0.00     0.033 C 
ENDBRANCH  29  30
ENDBRANCH  28  29
ENDBRANCH  27  28
ENDBRANCH   1  27
BRANCH   9  32
HETATM   32  N2  UNL     1      25.016  -0.990  55.178  1.00  0.00    -0.383 N 
HETATM   33  H16 UNL     1      25.751  -1.386  54.592  1.00  0.00     0.157 HD
HETATM   34  H17 UNL     1      25.495  -0.740  56.091  1.00  0.00     0.157 HD
ENDBRANCH   9  32
TORSDOF 7
ENDMDL
MODEL 7
REMARK VINA RESULT:      -7.4      2.344      3.010
REMARK  7 active torsions:
REMARK  status: ('A' for Active; 'I' for Inactive)
REMARK    1  A    between atoms: C2_2  and  O1_3 
REMARK    2  A    between atoms: O1_3  and  C3_4 
REMARK    3  A    between atoms: C3_4  and  C4_5 
REMARK    4  A    between atoms: C4_5  and  C5_6 
REMARK    5  A    between atoms: C11_14  and  N2_15 
REMARK    6  A    between atoms: C17_23  and  O3_24 
REMARK    7  A    between atoms: O3_24  and  C18_25 
ROOT
HETATM    1  C5  UNL     1      23.099   2.873  52.597  1.00  0.00     0.044 C 
HETATM    2  C6  UNL     1      21.692   3.318  52.730  1.00  0.00     0.130 C 
HETATM    3  N1  UNL     1      20.734   2.241  52.420  1.00  0.00    -0.357 N 
HETATM    4  C7  UNL     1      20.295   0.948  52.740  1.00  0.00     0.241 C 
HETATM    5  O2  UNL     1      21.164   1.020  53.622  1.00  0.00    -0.269 OA
HETATM    6  C8  UNL     1      19.297   0.061  52.208  1.00  0.00     0.075 C 
HETATM    7  C9  UNL     1      18.528   0.233  51.209  1.00  0.00     0.023 C 
HETATM    8  C10 UNL     1      18.226   1.206  50.184  1.00  0.00     0.038 A 
HETATM    9  C11 UNL     1      16.963   1.713  50.104  1.00  0.00     0.135 A 
HETATM   10  N3  UNL     1      16.658   2.623  49.183  1.00  0.00    -0.224 NA
HETATM   11  C12 UNL     1      17.531   3.092  48.298  1.00  0.00     0.235 A 
HETATM   12  N4  UNL     1      18.779   2.630  48.331  1.00  0.00    -0.241 NA
HETATM   13  C13 UNL     1      19.131   1.710  49.245  1.00  0.00     0.071 A 
HETATM   14  C14 UNL     1      20.529   1.265  49.251  1.00  0.00     0.029 C 
HETATM   15  C15 UNL     1      21.805   0.992  49.435  1.00  0.00    -0.016 C 
HETATM   16  C16 UNL     1      22.527   1.602  50.581  1.00  0.00     0.057 C 
HETATM   17  C17 UNL     1      23.449   1.992  51.504  1.00  0.00     0.107 C 
HETATM   18  H13 UNL     1      20.085   2.561  51.687  1.00  0.00     0.162 HD
ENDROOT
BRANCH  17  19
HETATM   19  O3  UNL     1      24.704   1.760  51.696  1.00  0.00    -0.363 OA
BRANCH  19  20
HETATM   20  C18 UNL     1      25.963   1.524  51.882  1.00  0.00     0.172 C 
HETATM   21  C19 UNL     1      26.443   2.108  53.201  1.00  0.00     0.021 C 
HETATM   22  C20 UNL     1      27.704   1.825  53.457  1.00  0.00    -0.024 C 
HETATM   23  C21 UNL     1      28.096   0.567  53.614  1.00  0.00     0.054 C 
HETATM   24  C22 UNL     1      27.384  -0.368  52.742  1.00  0.00     0.116 C 
HETATM   25  F1  UNL     1      27.747  -1.663  52.773  1.00  0.00    -0.206 F 
HETATM   26  C23 UNL     1      26.411   0.086  51.958  1.00  0.00     0.051 C 
ENDBRANCH  19  20
ENDBRANCH  17  19
BRANCH   1  27
HETATM   27  C4  UNL     1      23.973   4.086  52.739  1.00  0.00     0.035 C 
BRANCH  27  28
HETATM   28  C3  UNL     1      23.571   5.281  51.958  1.00  0.00     0.168 C 
BRANCH  28  29
HETATM   29  O1  UNL     1      23.811   5.169  50.611  1.00  0.00    -0.391 OA
BRANCH  29  30
HETATM   30  C2  UNL     1      25.168   5.350  50.305  1.00  0.00     0.163 C 
HETATM   31  C1  UNL     1      25.592   4.269  49.344  1.00  0.00     0.033 C 
ENDBRANCH  29  30
ENDBRANCH  28  29
ENDBRANCH  27  28
ENDBRANCH   1  27
BRANCH   9  32
HETATM   32  N2  UNL     1      15.981   1.248  51.016  1.00  0.00    -0.383 N 
HETATM   33  H16 UNL     1      15.005   1.409  50.766  1.00  0.00     0.157 HD
HETATM   34  H17 UNL     1      15.949   0.745  51.948  1.00  0.00     0.157 HD
ENDBRANCH   9  32
TORSDOF 7
ENDMDL
MODEL 8
REMARK VINA RESULT:      -7.4      3.624      5.873
REMARK  7 active torsions:
REMARK  status: ('A' for Active; 'I' for Inactive)
REMARK    1  A    between atoms: C2_2  and  O1_3 
REMARK    2  A    between atoms: O1_3  and  C3_4 
REMARK    3  A    between atoms: C3_4  and  C4_5 
REMARK    4  A    between atoms: C4_5  and  C5_6 
REMARK    5  A    between atoms: C11_14  and  N2_15 
REMARK    6  A    between atoms: C17_23  and  O3_24 
REMARK    7  A    between atoms: O3_24  and  C18_25 
ROOT
HETATM    1  C5  UNL     1      22.663   2.142  49.603  1.00  0.00     0.044 C 
HETATM    2  C6  UNL     1      22.802   3.206  48.580  1.00  0.00     0.130 C 
HETATM    3  N1  UNL     1      23.612   4.340  49.061  1.00  0.00    -0.357 N 
HETATM    4  C7  UNL     1      24.853   4.748  49.572  1.00  0.00     0.241 C 
HETATM    5  O2  UNL     1      25.153   3.555  49.421  1.00  0.00    -0.269 OA
HETATM    6  C8  UNL     1      25.393   6.000  50.029  1.00  0.00     0.075 C 
HETATM    7  C9  UNL     1      24.817   7.130  50.124  1.00  0.00     0.023 C 
HETATM    8  C10 UNL     1      23.535   7.755  49.893  1.00  0.00     0.038 A 
HETATM    9  C11 UNL     1      23.452   8.794  49.014  1.00  0.00     0.135 A 
HETATM   10  N3  UNL     1      22.283   9.378  48.767  1.00  0.00    -0.224 NA
HETATM   11  C12 UNL     1      21.143   9.009  49.341  1.00  0.00     0.235 A 
HETATM   12  N4  UNL     1      21.167   8.000  50.208  1.00  0.00    -0.241 NA
HETATM   13  C13 UNL     1      22.325   7.381  50.488  1.00  0.00     0.071 A 
HETATM   14  C14 UNL     1      22.279   6.254  51.427  1.00  0.00     0.029 C 
HETATM   15  C15 UNL     1      22.260   5.116  52.092  1.00  0.00    -0.016 C 
HETATM   16  C16 UNL     1      22.391   3.834  51.354  1.00  0.00     0.057 C 
HETATM   17  C17 UNL     1      22.479   2.526  50.985  1.00  0.00     0.107 C 
HETATM   18  H13 UNL     1      23.074   5.212  48.959  1.00  0.00     0.162 HD
ENDROOT
BRANCH  17  19
HETATM   19  O3  UNL     1      22.441   1.397  51.608  1.00  0.00    -0.363 OA
BRANCH  19  20
HETATM   20  C18 UNL     1      22.406   0.261  52.228  1.00  0.00     0.172 C 
HETATM   21  C19 UNL     1      23.150   0.333  53.551  1.00  0.00     0.021 C 
HETATM   22  C20 UNL     1      23.074  -0.786  54.243  1.00  0.00    -0.024 C 
HETATM   23  C21 UNL     1      21.902  -1.238  54.670  1.00  0.00     0.054 C 
HETATM   24  C22 UNL     1      20.811  -0.979  53.731  1.00  0.00     0.116 C 
HETATM   25  F1  UNL     1      19.589  -1.452  54.035  1.00  0.00    -0.206 F 
HETATM   26  C23 UNL     1      21.059  -0.292  52.619  1.00  0.00     0.051 C 
ENDBRANCH  19  20
ENDBRANCH  17  19
BRANCH   1  27
HETATM   27  C4  UNL     1      21.668   1.143  49.083  1.00  0.00     0.035 C 
BRANCH  27  28
HETATM   28  C3  UNL     1      20.291   1.644  48.858  1.00  0.00     0.168 C 
BRANCH  28  29
HETATM   29  O1  UNL     1      19.360   1.114  49.717  1.00  0.00    -0.391 OA
BRANCH  29  30
HETATM   30  C2  UNL     1      18.922   2.056  50.660  1.00  0.00     0.163 C 
HETATM   31  C1  UNL     1      18.857   3.407  49.995  1.00  0.00     0.033 C 
ENDBRANCH  29  30
ENDBRANCH  28  29
ENDBRANCH  27  28
ENDBRANCH   1  27
BRANCH   9  32
HETATM   32  N2  UNL     1      24.636   9.241  48.374  1.00  0.00    -0.383 N 
HETATM   33  H16 UNL     1      25.468   8.660  48.482  1.00  0.00     0.157 HD
HETATM   34  H17 UNL     1      24.944  10.057  47.771  1.00  0.00     0.157 HD
ENDBRANCH   9  32
TORSDOF 7
ENDMDL
MODEL 9
REMARK VINA RESULT:      -7.4      1.687      2.129
REMARK  7 active torsions:
REMARK  status: ('A' for Active; 'I' for Inactive)
REMARK    1  A    between atoms: C2_2  and  O1_3 
REMARK    2  A    between atoms: O1_3  and  C3_4 
REMARK    3  A    between atoms: C3_4  and  C4_5 
REMARK    4  A    between atoms: C4_5  and  C5_6 
REMARK    5  A    between atoms: C11_14  and  N2_15 
REMARK    6  A    between atoms: C17_23  and  O3_24 
REMARK    7  A    between atoms: O3_24  and  C18_25 
ROOT
HETATM    1  C5  UNL     1      22.903   2.848  52.235  1.00  0.00     0.044 C 
HETATM    2  C6  UNL     1      21.937   3.949  52.011  1.00  0.00     0.130 C 
HETATM    3  N1  UNL     1      20.599   3.452  51.646  1.00  0.00    -0.357 N 
HETATM    4  C7  UNL     1      19.511   2.652  52.027  1.00  0.00     0.241 C 
HETATM    5  O2  UNL     1      20.180   2.474  53.056  1.00  0.00    -0.269 OA
HETATM    6  C8  UNL     1      18.264   2.286  51.413  1.00  0.00     0.075 C 
HETATM    7  C9  UNL     1      17.821   2.594  50.261  1.00  0.00     0.023 C 
HETATM    8  C10 UNL     1      18.196   3.338  49.080  1.00  0.00     0.038 A 
HETATM    9  C11 UNL     1      17.409   4.374  48.672  1.00  0.00     0.135 A 
HETATM   10  N3  UNL     1      17.737   5.089  47.600  1.00  0.00    -0.224 NA
HETATM   11  C12 UNL     1      18.820   4.857  46.867  1.00  0.00     0.235 A 
HETATM   12  N4  UNL     1      19.624   3.857  47.220  1.00  0.00    -0.241 NA
HETATM   13  C13 UNL     1      19.331   3.108  48.297  1.00  0.00     0.071 A 
HETATM   14  C14 UNL     1      20.274   2.042  48.654  1.00  0.00     0.029 C 
HETATM   15  C15 UNL     1      21.184   1.220  49.137  1.00  0.00    -0.016 C 
HETATM   16  C16 UNL     1      21.983   1.624  50.322  1.00  0.00     0.057 C 
HETATM   17  C17 UNL     1      22.859   1.696  51.362  1.00  0.00     0.107 C 
HETATM   18  H13 UNL     1      20.305   3.883  50.757  1.00  0.00     0.162 HD
ENDROOT
BRANCH  17  19
HETATM   19  O3  UNL     1      23.772   0.920  51.841  1.00  0.00    -0.363 OA
BRANCH  19  20
HETATM   20  C18 UNL     1      24.690   0.147  52.326  1.00  0.00     0.172 C 
HETATM   21  C19 UNL     1      26.077   0.627  51.934  1.00  0.00     0.021 C 
HETATM   22  C20 UNL     1      27.040  -0.096  52.470  1.00  0.00    -0.024 C 
HETATM   23  C21 UNL     1      27.188  -0.153  53.787  1.00  0.00     0.054 C 
HETATM   24  C22 UNL     1      25.916  -0.127  54.509  1.00  0.00     0.116 C 
HETATM   25  F1  UNL     1      25.946  -0.244  55.848  1.00  0.00    -0.206 F 
HETATM   26  C23 UNL     1      24.784   0.012  53.825  1.00  0.00     0.051 C 
ENDBRANCH  19  20
ENDBRANCH  17  19
BRANCH   1  27
HETATM   27  C4  UNL     1      24.262   3.466  52.404  1.00  0.00     0.035 C 
BRANCH  27  28
HETATM   28  C3  UNL     1      24.697   4.398  51.336  1.00  0.00     0.168 C 
BRANCH  28  29
HETATM   29  O1  UNL     1      25.473   3.809  50.368  1.00  0.00    -0.391 OA
BRANCH  29  30
HETATM   30  C2  UNL     1      25.762   4.695  49.319  1.00  0.00     0.163 C 
HETATM   31  C1  UNL     1      27.218   4.549  48.955  1.00  0.00     0.033 C 
ENDBRANCH  29  30
ENDBRANCH  28  29
ENDBRANCH  27  28
ENDBRANCH   1  27
BRANCH   9  32
HETATM   32  N2  UNL     1      16.233   4.668  49.408  1.00  0.00    -0.383 N 
HETATM   33  H16 UNL     1      16.285   4.566  50.422  1.00  0.00     0.157 HD
HETATM   34  H17 UNL     1      15.241   4.987  49.212  1.00  0.00     0.157 HD
ENDBRANCH   9  32
TORSDOF 7
ENDMDL
