MODEL 1
REMARK VINA RESULT:      -8.4      0.000      0.000
REMARK  0 active torsions:
REMARK  status: ('A' for Active; 'I' for Inactive)
ROOT
HETATM    1  C1  UNL     1      24.157   3.882  52.845  1.00  0.00     0.000 C 
HETATM    2  O1  UNL     1      24.134   2.548  53.119  1.00  0.00     0.000 OA
HETATM    3  C2  UNL     1      24.500   1.375  52.408  1.00  0.00     0.024 A 
HETATM    4  C3  UNL     1      25.074   1.795  53.682  1.00  0.00     0.046 A 
HETATM    5  C4  UNL     1      26.406   1.753  52.886  1.00  0.00     0.009 C 
HETATM    6  C5  UNL     1      27.297   2.539  53.507  1.00  0.00     0.117 C 
HETATM    7  N1  UNL     1      27.618   1.728  54.428  1.00  0.00    -0.172 NA
HETATM    8  N2  UNL     1      26.961   0.507  54.415  1.00  0.00    -0.281 N 
HETATM    9  C6  UNL     1      28.322  -0.057  54.751  1.00  0.00     0.176 C 
HETATM   10  C7  UNL     1      26.036  -0.531  54.341  1.00  0.00     0.249 C 
HETATM   11  C8  UNL     1      24.655  -0.629  54.064  1.00  0.00     0.020 C 
HETATM   12  C9  UNL     1      23.594  -0.162  53.337  1.00  0.00    -0.004 C 
HETATM   13  C10 UNL     1      23.204   0.830  52.301  1.00  0.00     0.059 A 
HETATM   14 BR1  UNL     1      21.548   1.068  51.446  1.00  0.00    -0.134 Br
HETATM   15  C11 UNL     1      23.503   1.885  51.470  1.00  0.00     0.059 A 
HETATM   16  C12 UNL     1      24.816   2.505  50.836  1.00  0.00    -0.001 C 
HETATM   17  C13 UNL     1      26.212   2.130  50.826  1.00  0.00     0.030 C 
HETATM   18  C14 UNL     1      26.579   0.938  51.688  1.00  0.00     0.067 C 
HETATM   19  N3  UNL     1      26.847   0.078  52.459  1.00  0.00    -0.242 NA
HETATM   20  C15 UNL     1      27.193  -1.234  52.368  1.00  0.00     0.230 C 
HETATM   21  N4  UNL     1      26.684  -1.546  53.509  1.00  0.00    -0.252 NA
ENDROOT
TORSDOF 0
ENDMDL
MODEL 2
REMARK VINA RESULT:      -7.6      2.426      4.025
REMARK  0 active torsions:
REMARK  status: ('A' for Active; 'I' for Inactive)
ROOT
HETATM    1  C1  UNL     1      22.508   3.915  49.591  1.00  0.00     0.000 C 
HETATM    2  O1  UNL     1      23.750   3.450  49.900  1.00  0.00     0.000 OA
HETATM    3  C2  UNL     1      24.694   3.724  50.924  1.00  0.00     0.024 A 
HETATM    4  C3  UNL     1      24.087   2.420  50.672  1.00  0.00     0.046 A 
HETATM    5  C4  UNL     1      23.617   2.560  52.145  1.00  0.00     0.009 C 
HETATM    6  C5  UNL     1      22.551   1.768  52.328  1.00  0.00     0.117 C 
HETATM    7  N1  UNL     1      23.179   0.673  52.447  1.00  0.00    -0.172 NA
HETATM    8  N2  UNL     1      24.558   0.749  52.327  1.00  0.00    -0.281 N 
HETATM    9  C6  UNL     1      24.560  -0.223  53.485  1.00  0.00     0.176 C 
HETATM   10  C7  UNL     1      25.870   1.024  51.952  1.00  0.00     0.249 C 
HETATM   11  C8  UNL     1      26.487   1.836  50.976  1.00  0.00     0.020 C 
HETATM   12  C9  UNL     1      26.460   3.011  50.276  1.00  0.00    -0.004 C 
HETATM   13  C10 UNL     1      25.692   4.271  50.092  1.00  0.00     0.059 A 
HETATM   14 BR1  UNL     1      26.103   5.771  49.039  1.00  0.00    -0.134 Br
HETATM   15  C11 UNL     1      24.603   5.068  50.358  1.00  0.00     0.059 A 
HETATM   16  C12 UNL     1      23.529   5.186  51.517  1.00  0.00    -0.001 C 
HETATM   17  C13 UNL     1      23.343   4.541  52.797  1.00  0.00     0.030 C 
HETATM   18  C14 UNL     1      24.305   3.411  53.110  1.00  0.00     0.067 C 
HETATM   19  N3  UNL     1      24.998   2.463  53.271  1.00  0.00    -0.242 NA
HETATM   20  C15 UNL     1      26.079   2.169  54.042  1.00  0.00     0.230 C 
HETATM   21  N4  UNL     1      26.561   1.314  53.210  1.00  0.00    -0.252 NA
ENDROOT
TORSDOF 0
ENDMDL
MODEL 3
REMARK VINA RESULT:      -7.2      2.317      4.145
REMARK  0 active torsions:
REMARK  status: ('A' for Active; 'I' for Inactive)
ROOT
HETATM    1  C1  UNL     1      26.499  -1.296  52.817  1.00  0.00     0.000 C 
HETATM    2  O1  UNL     1      25.312  -0.637  52.704  1.00  0.00     0.000 OA
HETATM    3  C2  UNL     1      24.681   0.415  53.418  1.00  0.00     0.024 A 
HETATM    4  C3  UNL     1      25.027   0.454  52.000  1.00  0.00     0.046 A 
HETATM    5  C4  UNL     1      25.844   1.706  52.423  1.00  0.00     0.009 C 
HETATM    6  C5  UNL     1      26.804   1.914  51.510  1.00  0.00     0.117 C 
HETATM    7  N1  UNL     1      26.077   2.468  50.631  1.00  0.00    -0.172 NA
HETATM    8  N2  UNL     1      24.732   2.589  50.946  1.00  0.00    -0.281 N 
HETATM    9  C6  UNL     1      24.868   3.962  50.330  1.00  0.00     0.176 C 
HETATM   10  C7  UNL     1      23.419   2.400  51.368  1.00  0.00     0.249 C 
HETATM   11  C8  UNL     1      22.708   1.359  52.004  1.00  0.00     0.020 C 
HETATM   12  C9  UNL     1      22.732   0.349  52.927  1.00  0.00    -0.004 C 
HETATM   13  C10 UNL     1      23.601  -0.341  53.916  1.00  0.00     0.059 A 
HETATM   14 BR1  UNL     1      23.165  -1.697  55.141  1.00  0.00    -0.134 Br
HETATM   15  C11 UNL     1      24.822  -0.531  54.522  1.00  0.00     0.059 A 
HETATM   16  C12 UNL     1      26.143   0.319  54.722  1.00  0.00    -0.001 C 
HETATM   17  C13 UNL     1      26.534   1.676  54.409  1.00  0.00     0.030 C 
HETATM   18  C14 UNL     1      25.526   2.484  53.615  1.00  0.00     0.067 C 
HETATM   19  N3  UNL     1      24.766   3.045  52.899  1.00  0.00    -0.242 NA
HETATM   20  C15 UNL     1      23.867   4.055  53.037  1.00  0.00     0.230 C 
HETATM   21  N4  UNL     1      23.089   3.620  52.108  1.00  0.00    -0.252 NA
ENDROOT
TORSDOF 0
ENDMDL
MODEL 4
REMARK VINA RESULT:      -7.0      3.502      5.216
REMARK  0 active torsions:
REMARK  status: ('A' for Active; 'I' for Inactive)
ROOT
HETATM    1  C1  UNL     1      19.765   1.642  52.284  1.00  0.00     0.000 C 
HETATM    2  O1  UNL     1      21.077   1.958  52.467  1.00  0.00     0.000 OA
HETATM    3  C2  UNL     1      22.280   1.671  51.771  1.00  0.00     0.024 A 
HETATM    4  C3  UNL     1      21.753   3.010  52.015  1.00  0.00     0.046 A 
HETATM    5  C4  UNL     1      21.797   3.109  50.466  1.00  0.00     0.009 C 
HETATM    6  C5  UNL     1      20.937   4.061  50.077  1.00  0.00     0.117 C 
HETATM    7  N1  UNL     1      21.671   5.062  50.338  1.00  0.00    -0.172 NA
HETATM    8  N2  UNL     1      22.914   4.776  50.881  1.00  0.00    -0.281 N 
HETATM    9  C6  UNL     1      23.401   5.864  49.952  1.00  0.00     0.176 C 
HETATM   10  C7  UNL     1      23.989   4.276  51.609  1.00  0.00     0.249 C 
HETATM   11  C8  UNL     1      24.159   3.277  52.593  1.00  0.00     0.020 C 
HETATM   12  C9  UNL     1      23.784   2.044  53.054  1.00  0.00    -0.004 C 
HETATM   13  C10 UNL     1      22.881   0.895  52.784  1.00  0.00     0.059 A 
HETATM   14 BR1  UNL     1      22.765  -0.760  53.665  1.00  0.00    -0.134 Br
HETATM   15  C11 UNL     1      21.874   0.297  52.060  1.00  0.00     0.059 A 
HETATM   16  C12 UNL     1      21.248   0.468  50.615  1.00  0.00    -0.001 C 
HETATM   17  C13 UNL     1      21.569   1.277  49.460  1.00  0.00     0.030 C 
HETATM   18  C14 UNL     1      22.685   2.285  49.653  1.00  0.00     0.067 C 
HETATM   19  N3  UNL     1      23.480   3.137  49.873  1.00  0.00    -0.242 NA
HETATM   20  C15 UNL     1      24.780   3.360  49.545  1.00  0.00     0.230 C 
HETATM   21  N4  UNL     1      25.034   4.036  50.611  1.00  0.00    -0.252 NA
ENDROOT
TORSDOF 0
ENDMDL
MODEL 5
REMARK VINA RESULT:      -6.9      9.210     10.900
REMARK  0 active torsions:
REMARK  status: ('A' for Active; 'I' for Inactive)
ROOT
HETATM    1  C1  UNL     1      34.818   4.167  45.311  1.00  0.00     0.000 C 
HETATM    2  O1  UNL     1      33.602   4.329  45.901  1.00  0.00     0.000 OA
HETATM    3  C2  UNL     1      33.136   4.347  47.242  1.00  0.00     0.024 A 
HETATM    4  C3  UNL     1      33.009   5.453  46.297  1.00  0.00     0.046 A 
HETATM    5  C4  UNL     1      33.800   6.230  47.385  1.00  0.00     0.009 C 
HETATM    6  C5  UNL     1      34.398   7.280  46.805  1.00  0.00     0.117 C 
HETATM    7  N1  UNL     1      33.382   8.038  46.751  1.00  0.00    -0.172 NA
HETATM    8  N2  UNL     1      32.201   7.504  47.243  1.00  0.00    -0.281 N 
HETATM    9  C6  UNL     1      32.009   8.877  47.845  1.00  0.00     0.176 C 
HETATM   10  C7  UNL     1      31.113   6.699  47.570  1.00  0.00     0.249 C 
HETATM   11  C8  UNL     1      30.738   5.362  47.312  1.00  0.00     0.020 C 
HETATM   12  C9  UNL     1      31.146   4.065  47.158  1.00  0.00    -0.004 C 
HETATM   13  C10 UNL     1      32.343   3.184  47.162  1.00  0.00     0.059 A 
HETATM   14 BR1  UNL     1      32.443   1.314  47.013  1.00  0.00    -0.134 Br
HETATM   15  C11 UNL     1      33.705   3.001  47.236  1.00  0.00     0.059 A 
HETATM   16  C12 UNL     1      34.938   3.816  47.806  1.00  0.00    -0.001 C 
HETATM   17  C13 UNL     1      35.083   5.044  48.555  1.00  0.00     0.030 C 
HETATM   18  C14 UNL     1      33.806   5.828  48.787  1.00  0.00     0.067 C 
HETATM   19  N3  UNL     1      32.810   6.469  48.850  1.00  0.00    -0.242 NA
HETATM   20  C15 UNL     1      31.913   6.775  49.824  1.00  0.00     0.230 C 
HETATM   21  N4  UNL     1      30.924   6.898  49.008  1.00  0.00    -0.252 NA
ENDROOT
TORSDOF 0
ENDMDL
MODEL 6
REMARK VINA RESULT:      -6.7      3.905      5.750
REMARK  0 active torsions:
REMARK  status: ('A' for Active; 'I' for Inactive)
ROOT
HETATM    1  C1  UNL     1      25.677   2.433  51.225  1.00  0.00     0.000 C 
HETATM    2  O1  UNL     1      24.402   1.969  51.107  1.00  0.00     0.000 OA
HETATM    3  C2  UNL     1      23.190   2.185  51.814  1.00  0.00     0.024 A 
HETATM    4  C3  UNL     1      23.394   2.467  50.397  1.00  0.00     0.046 A 
HETATM    5  C4  UNL     1      22.984   3.906  50.813  1.00  0.00     0.009 C 
HETATM    6  C5  UNL     1      23.460   4.764  49.900  1.00  0.00     0.117 C 
HETATM    7  N1  UNL     1      22.569   4.576  49.017  1.00  0.00    -0.172 NA
HETATM    8  N2  UNL     1      21.595   3.641  49.330  1.00  0.00    -0.281 N 
HETATM    9  C6  UNL     1      20.650   4.643  48.707  1.00  0.00     0.176 C 
HETATM   10  C7  UNL     1      20.874   2.528  49.753  1.00  0.00     0.249 C 
HETATM   11  C8  UNL     1      21.190   1.310  50.393  1.00  0.00     0.020 C 
HETATM   12  C9  UNL     1      21.964   0.669  51.322  1.00  0.00    -0.004 C 
HETATM   13  C10 UNL     1      23.050   0.875  52.316  1.00  0.00     0.059 A 
HETATM   14 BR1  UNL     1      23.782  -0.340  53.548  1.00  0.00    -0.134 Br
HETATM   15  C11 UNL     1      23.991   1.674  52.924  1.00  0.00     0.059 A 
HETATM   16  C12 UNL     1      24.215   3.230  53.120  1.00  0.00    -0.001 C 
HETATM   17  C13 UNL     1      23.449   4.413  52.800  1.00  0.00     0.030 C 
HETATM   18  C14 UNL     1      22.182   4.180  52.001  1.00  0.00     0.067 C 
HETATM   19  N3  UNL     1      21.263   3.973  51.280  1.00  0.00    -0.242 NA
HETATM   20  C15 UNL     1      19.910   3.957  51.413  1.00  0.00     0.230 C 
HETATM   21  N4  UNL     1      19.733   3.081  50.485  1.00  0.00    -0.252 NA
ENDROOT
TORSDOF 0
ENDMDL
MODEL 7
REMARK VINA RESULT:      -6.5      8.810     10.151
REMARK  0 active torsions:
REMARK  status: ('A' for Active; 'I' for Inactive)
ROOT
HETATM    1  C1  UNL     1      30.684   9.409  49.449  1.00  0.00     0.000 C 
HETATM    2  O1  UNL     1      30.560   8.140  48.969  1.00  0.00     0.000 OA
HETATM    3  C2  UNL     1      30.593   7.553  47.677  1.00  0.00     0.024 A 
HETATM    4  C3  UNL     1      31.507   7.228  48.767  1.00  0.00     0.046 A 
HETATM    5  C4  UNL     1      32.590   7.663  47.743  1.00  0.00     0.009 C 
HETATM    6  C5  UNL     1      33.697   8.009  48.417  1.00  0.00     0.117 C 
HETATM    7  N1  UNL     1      34.126   6.836  48.640  1.00  0.00    -0.172 NA
HETATM    8  N2  UNL     1      33.338   5.801  48.162  1.00  0.00    -0.281 N 
HETATM    9  C6  UNL     1      34.658   5.183  47.764  1.00  0.00     0.176 C 
HETATM   10  C7  UNL     1      32.300   4.945  47.804  1.00  0.00     0.249 C 
HETATM   11  C8  UNL     1      30.892   4.976  47.904  1.00  0.00     0.020 C 
HETATM   12  C9  UNL     1      29.754   5.734  47.856  1.00  0.00    -0.004 C 
HETATM   13  C10 UNL     1      29.252   7.118  47.654  1.00  0.00     0.059 A 
HETATM   14 BR1  UNL     1      27.482   7.738  47.543  1.00  0.00    -0.134 Br
HETATM   15  C11 UNL     1      29.470   8.464  47.464  1.00  0.00     0.059 A 
HETATM   16  C12 UNL     1      30.658   9.364  46.927  1.00  0.00    -0.001 C 
HETATM   17  C13 UNL     1      31.952   9.094  46.341  1.00  0.00     0.030 C 
HETATM   18  C14 UNL     1      32.364   7.635  46.302  1.00  0.00     0.067 C 
HETATM   19  N3  UNL     1      32.700   6.502  46.393  1.00  0.00    -0.242 NA
HETATM   20  C15 UNL     1      32.846   5.460  45.532  1.00  0.00     0.230 C 
HETATM   21  N4  UNL     1      32.594   4.564  46.421  1.00  0.00    -0.252 NA
ENDROOT
TORSDOF 0
ENDMDL
MODEL 8
REMARK VINA RESULT:      -6.5      3.418      4.668
REMARK  0 active torsions:
REMARK  status: ('A' for Active; 'I' for Inactive)
ROOT
HETATM    1  C1  UNL     1      23.911   5.829  51.414  1.00  0.00     0.000 C 
HETATM    2  O1  UNL     1      22.769   5.105  51.574  1.00  0.00     0.000 OA
HETATM    3  C2  UNL     1      22.069   4.154  50.786  1.00  0.00     0.024 A 
HETATM    4  C3  UNL     1      22.614   3.900  52.117  1.00  0.00     0.046 A 
HETATM    5  C4  UNL     1      23.393   2.776  51.382  1.00  0.00     0.009 C 
HETATM    6  C5  UNL     1      24.477   2.467  52.108  1.00  0.00     0.117 C 
HETATM    7  N1  UNL     1      23.896   1.743  52.971  1.00  0.00    -0.172 NA
HETATM    8  N2  UNL     1      22.524   1.611  52.826  1.00  0.00    -0.281 N 
HETATM    9  C6  UNL     1      22.780   0.163  53.177  1.00  0.00     0.176 C 
HETATM   10  C7  UNL     1      21.160   1.803  52.624  1.00  0.00     0.249 C 
HETATM   11  C8  UNL     1      20.340   2.898  52.275  1.00  0.00     0.020 C 
HETATM   12  C9  UNL     1      20.209   4.046  51.541  1.00  0.00    -0.004 C 
HETATM   13  C10 UNL     1      20.911   4.929  50.574  1.00  0.00     0.059 A 
HETATM   14 BR1  UNL     1      20.272   6.444  49.666  1.00  0.00    -0.134 Br
HETATM   15  C11 UNL     1      22.028   5.274  49.848  1.00  0.00     0.059 A 
HETATM   16  C12 UNL     1      23.329   4.532  49.330  1.00  0.00    -0.001 C 
HETATM   17  C13 UNL     1      23.793   3.163  49.354  1.00  0.00     0.030 C 
HETATM   18  C14 UNL     1      22.928   2.188  50.130  1.00  0.00     0.067 C 
HETATM   19  N3  UNL     1      22.292   1.482  50.838  1.00  0.00    -0.242 NA
HETATM   20  C15 UNL     1      21.407   0.466  50.654  1.00  0.00     0.230 C 
HETATM   21  N4  UNL     1      20.759   0.706  51.741  1.00  0.00    -0.252 NA
ENDROOT
TORSDOF 0
ENDMDL
MODEL 9
REMARK VINA RESULT:      -6.4      4.173      6.156
REMARK  0 active torsions:
REMARK  status: ('A' for Active; 'I' for Inactive)
ROOT
HETATM    1  C1  UNL     1      24.167   3.608  53.231  1.00  0.00     0.000 C 
HETATM    2  O1  UNL     1      23.763   3.807  51.946  1.00  0.00     0.000 OA
HETATM    3  C2  UNL     1      23.440   2.957  50.856  1.00  0.00     0.024 A 
HETATM    4  C3  UNL     1      22.526   3.916  51.468  1.00  0.00     0.046 A 
HETATM    5  C4  UNL     1      21.650   2.655  51.698  1.00  0.00     0.009 C 
HETATM    6  C5  UNL     1      20.801   2.907  52.705  1.00  0.00     0.117 C 
HETATM    7  N1  UNL     1      19.959   3.587  52.043  1.00  0.00    -0.172 NA
HETATM    8  N2  UNL     1      20.257   3.780  50.703  1.00  0.00    -0.281 N 
HETATM    9  C6  UNL     1      18.782   3.523  50.495  1.00  0.00     0.176 C 
HETATM   10  C7  UNL     1      20.859   4.033  49.474  1.00  0.00     0.249 C 
HETATM   11  C8  UNL     1      22.171   4.323  49.038  1.00  0.00     0.020 C 
HETATM   12  C9  UNL     1      23.511   4.098  49.202  1.00  0.00    -0.004 C 
HETATM   13  C10 UNL     1      24.503   3.348  50.015  1.00  0.00     0.059 A 
HETATM   14 BR1  UNL     1      26.367   3.233  49.810  1.00  0.00    -0.134 Br
HETATM   15  C11 UNL     1      24.818   2.515  51.065  1.00  0.00     0.059 A 
HETATM   16  C12 UNL     1      24.051   1.442  51.942  1.00  0.00    -0.001 C 
HETATM   17  C13 UNL     1      22.728   0.861  51.907  1.00  0.00     0.030 C 
HETATM   18  C14 UNL     1      21.777   1.452  50.883  1.00  0.00     0.067 C 
HETATM   19  N3  UNL     1      21.030   2.013  50.154  1.00  0.00    -0.242 NA
HETATM   20  C15 UNL     1      20.448   1.733  48.958  1.00  0.00     0.230 C 
HETATM   21  N4  UNL     1      20.373   2.966  48.596  1.00  0.00    -0.252 NA
ENDROOT
TORSDOF 0
ENDMDL
