MODEL 1
REMARK VINA RESULT:      -8.2      0.000      0.000
REMARK  7 active torsions:
REMARK  status: ('A' for Active; 'I' for Inactive)
REMARK    1  A    between atoms: O1_2  and  C2_3 
REMARK    2  A    between atoms: N2_9  and  C7_10 
REMARK    3  A    between atoms: C9_12  and  O2_13 
REMARK    4  A    between atoms: O2_13  and  C10_14 
REMARK    5  A    between atoms: C10_14  and  C11_15 
REMARK    6  A    between atoms: C11_15  and  C12_16 
REMARK    7  A    between atoms: C12_16  and  N3_17 
ROOT
HETATM    1  C2  UNL     1      26.853   2.114  52.148  1.00  0.00     0.098 A 
HETATM    2  C3  UNL     1      26.225   1.294  53.099  1.00  0.00     0.033 A 
HETATM    3  C4  UNL     1      24.919   1.197  52.613  1.00  0.00     0.072 A 
HETATM    4  C5  UNL     1      24.190   0.392  53.436  1.00  0.00     0.049 A 
HETATM    5  N1  UNL     1      23.377   0.732  52.497  1.00  0.00     0.000 N 
HETATM    6  C6  UNL     1      22.202   0.468  52.263  1.00  0.00     0.056 A 
HETATM    7  N2  UNL     1      22.797   1.254  51.415  1.00  0.00    -0.190 NA
HETATM    8  C7  UNL     1      24.100   1.636  51.535  1.00  0.00     0.100 A 
HETATM    9  C8  UNL     1      24.833   2.432  50.670  1.00  0.00     0.044 A 
HETATM   10  C9  UNL     1      26.136   2.612  51.030  1.00  0.00     0.100 A 
HETATM   11  C18 UNL     1      21.336  -0.315  52.931  1.00  0.00    -0.037 C 
HETATM   12  C19 UNL     1      20.415   0.211  51.944  1.00  0.00     0.050 C 
HETATM   13  C20 UNL     1      21.450  -1.133  53.970  1.00  0.00     0.010 C 
HETATM   14  C21 UNL     1      22.494  -1.542  54.926  1.00  0.00     0.018 C 
HETATM   15  C22 UNL     1      23.811  -1.221  55.076  1.00  0.00     0.088 C 
HETATM   16  N5  UNL     1      24.681  -0.194  54.593  1.00  0.00    -0.367 N 
HETATM   17  H29 UNL     1      25.517   0.313  54.738  1.00  0.00     0.165 HD
ENDROOT
BRANCH  10  18
HETATM   18  O2  UNL     1      26.882   3.360  50.242  1.00  0.00    -0.348 OA
BRANCH  18  19
HETATM   19  C10 UNL     1      26.912   4.254  49.269  1.00  0.00     0.177 C 
BRANCH  19  20
HETATM   20  C11 UNL     1      26.268   5.590  49.355  1.00  0.00     0.057 C 
BRANCH  20  21
HETATM   21  C12 UNL     1      24.980   5.827  48.674  1.00  0.00     0.274 C 
BRANCH  21  22
HETATM   22  N3  UNL     1      23.889   5.475  49.592  1.00  0.00     0.091 N 
HETATM   23  C13 UNL     1      24.054   6.067  50.902  1.00  0.00     0.302 C 
HETATM   24  C14 UNL     1      23.084   5.403  51.842  1.00  0.00     0.302 C 
HETATM   25  N4  UNL     1      21.774   5.254  51.348  1.00  0.00     0.087 N 
HETATM   26  C15 UNL     1      21.103   4.163  52.024  1.00  0.00     0.310 C 
HETATM   27  C16 UNL     1      21.573   5.130  49.950  1.00  0.00     0.302 C 
HETATM   28  C17 UNL     1      22.597   5.862  49.113  1.00  0.00     0.302 C 
ENDBRANCH  21  22
ENDBRANCH  20  21
ENDBRANCH  19  20
ENDBRANCH  18  19
ENDBRANCH  10  18
BRANCH   1  29
HETATM   29  O1  UNL     1      28.176   2.407  52.353  1.00  0.00    -0.353 OA
HETATM   30  C1  UNL     1      28.707   2.453  53.659  1.00  0.00     0.210 C 
ENDBRANCH   1  29
TORSDOF 7
ENDMDL
MODEL 2
REMARK VINA RESULT:      -7.9      2.564      8.057
REMARK  7 active torsions:
REMARK  status: ('A' for Active; 'I' for Inactive)
REMARK    1  A    between atoms: O1_2  and  C2_3 
REMARK    2  A    between atoms: N2_9  and  C7_10 
REMARK    3  A    between atoms: C9_12  and  O2_13 
REMARK    4  A    between atoms: O2_13  and  C10_14 
REMARK    5  A    between atoms: C10_14  and  C11_15 
REMARK    6  A    between atoms: C11_15  and  C12_16 
REMARK    7  A    between atoms: C12_16  and  N3_17 
ROOT
HETATM    1  C2  UNL     1      23.455   4.239  49.979  1.00  0.00     0.098 A 
HETATM    2  C3  UNL     1      23.881   5.422  49.355  1.00  0.00     0.033 A 
HETATM    3  C4  UNL     1      25.248   5.202  49.175  1.00  0.00     0.072 A 
HETATM    4  C5  UNL     1      25.798   6.277  48.541  1.00  0.00     0.049 A 
HETATM    5  N1  UNL     1      26.773   5.452  48.703  1.00  0.00     0.000 N 
HETATM    6  C6  UNL     1      27.963   5.484  48.406  1.00  0.00     0.056 A 
HETATM    7  N2  UNL     1      27.549   4.413  49.016  1.00  0.00    -0.190 NA
HETATM    8  C7  UNL     1      26.257   4.226  49.408  1.00  0.00     0.100 A 
HETATM    9  C8  UNL     1      25.711   3.112  50.025  1.00  0.00     0.044 A 
HETATM   10  C9  UNL     1      24.371   3.194  50.262  1.00  0.00     0.100 A 
HETATM   11  C18 UNL     1      28.675   6.429  47.766  1.00  0.00    -0.037 C 
HETATM   12  C19 UNL     1      29.770   5.542  48.102  1.00  0.00     0.050 C 
HETATM   13  C20 UNL     1      28.356   7.564  47.157  1.00  0.00     0.010 C 
HETATM   14  C21 UNL     1      27.148   8.377  46.929  1.00  0.00     0.018 C 
HETATM   15  C22 UNL     1      25.835   8.227  47.265  1.00  0.00     0.088 C 
HETATM   16  N5  UNL     1      25.094   7.416  48.180  1.00  0.00    -0.367 N 
HETATM   17  H29 UNL     1      24.261   7.313  48.701  1.00  0.00     0.165 HD
ENDROOT
BRANCH  10  18
HETATM   18  O2  UNL     1      23.797   2.161  50.846  1.00  0.00    -0.348 OA
BRANCH  18  19
HETATM   19  C10 UNL     1      23.365   1.629  51.976  1.00  0.00     0.177 C 
BRANCH  19  20
HETATM   20  C11 UNL     1      24.251   1.268  53.112  1.00  0.00     0.057 C 
BRANCH  20  21
HETATM   21  C12 UNL     1      25.388   2.143  53.460  1.00  0.00     0.274 C 
BRANCH  21  22
HETATM   22  N3  UNL     1      26.612   1.334  53.500  1.00  0.00     0.091 N 
HETATM   23  C13 UNL     1      26.581   0.233  52.562  1.00  0.00     0.302 C 
HETATM   24  C14 UNL     1      27.711  -0.703  52.898  1.00  0.00     0.302 C 
HETATM   25  N4  UNL     1      28.951  -0.084  53.144  1.00  0.00     0.087 N 
HETATM   26  C15 UNL     1      29.781  -0.933  53.974  1.00  0.00     0.310 C 
HETATM   27  C16 UNL     1      28.974   1.237  53.659  1.00  0.00     0.302 C 
HETATM   28  C17 UNL     1      27.800   2.086  53.230  1.00  0.00     0.302 C 
ENDBRANCH  21  22
ENDBRANCH  20  21
ENDBRANCH  19  20
ENDBRANCH  18  19
ENDBRANCH  10  18
BRANCH   1  29
HETATM   29  O1  UNL     1      22.125   4.147  50.299  1.00  0.00    -0.353 OA
HETATM   30  C1  UNL     1      21.585   4.916  51.351  1.00  0.00     0.210 C 
ENDBRANCH   1  29
TORSDOF 7
ENDMDL
MODEL 3
REMARK VINA RESULT:      -7.9      2.970      4.697
REMARK  7 active torsions:
REMARK  status: ('A' for Active; 'I' for Inactive)
REMARK    1  A    between atoms: O1_2  and  C2_3 
REMARK    2  A    between atoms: N2_9  and  C7_10 
REMARK    3  A    between atoms: C9_12  and  O2_13 
REMARK    4  A    between atoms: O2_13  and  C10_14 
REMARK    5  A    between atoms: C10_14  and  C11_15 
REMARK    6  A    between atoms: C11_15  and  C12_16 
REMARK    7  A    between atoms: C12_16  and  N3_17 
ROOT
HETATM    1  C2  UNL     1      26.634   2.177  52.087  1.00  0.00     0.098 A 
HETATM    2  C3  UNL     1      26.058   1.325  53.042  1.00  0.00     0.033 A 
HETATM    3  C4  UNL     1      24.731   1.232  52.616  1.00  0.00     0.072 A 
HETATM    4  C5  UNL     1      24.047   0.397  53.448  1.00  0.00     0.049 A 
HETATM    5  N1  UNL     1      23.188   0.758  52.560  1.00  0.00     0.000 N 
HETATM    6  C6  UNL     1      22.005   0.493  52.375  1.00  0.00     0.056 A 
HETATM    7  N2  UNL     1      22.553   1.309  51.523  1.00  0.00    -0.190 NA
HETATM    8  C7  UNL     1      23.858   1.697  51.593  1.00  0.00     0.100 A 
HETATM    9  C8  UNL     1      24.544   2.524  50.718  1.00  0.00     0.044 A 
HETATM   10  C9  UNL     1      25.861   2.703  51.020  1.00  0.00     0.100 A 
HETATM   11  C18 UNL     1      21.176  -0.316  53.059  1.00  0.00    -0.037 C 
HETATM   12  C19 UNL     1      20.206   0.232  52.134  1.00  0.00     0.050 C 
HETATM   13  C20 UNL     1      21.346  -1.164  54.066  1.00  0.00     0.010 C 
HETATM   14  C21 UNL     1      22.437  -1.593  54.958  1.00  0.00     0.018 C 
HETATM   15  C22 UNL     1      23.758  -1.267  55.054  1.00  0.00     0.088 C 
HETATM   16  N5  UNL     1      24.597  -0.220  54.562  1.00  0.00    -0.367 N 
HETATM   17  H29 UNL     1      25.436   0.290  54.682  1.00  0.00     0.165 HD
ENDROOT
BRANCH  10  18
HETATM   18  O2  UNL     1      26.564   3.480  50.220  1.00  0.00    -0.348 OA
BRANCH  18  19
HETATM   19  C10 UNL     1      26.543   4.364  49.237  1.00  0.00     0.177 C 
BRANCH  19  20
HETATM   20  C11 UNL     1      27.764   4.900  48.583  1.00  0.00     0.057 C 
BRANCH  20  21
HETATM   21  C12 UNL     1      27.904   6.355  48.378  1.00  0.00     0.274 C 
BRANCH  21  22
HETATM   22  N3  UNL     1      29.280   6.641  47.953  1.00  0.00     0.091 N 
HETATM   23  C13 UNL     1      29.805   7.850  48.549  1.00  0.00     0.302 C 
HETATM   24  C14 UNL     1      31.068   8.223  47.821  1.00  0.00     0.302 C 
HETATM   25  N4  UNL     1      31.964   7.162  47.588  1.00  0.00     0.087 N 
HETATM   26  C15 UNL     1      32.813   7.460  46.453  1.00  0.00     0.310 C 
HETATM   27  C16 UNL     1      31.456   5.845  47.456  1.00  0.00     0.302 C 
HETATM   28  C17 UNL     1      30.199   5.587  48.256  1.00  0.00     0.302 C 
ENDBRANCH  21  22
ENDBRANCH  20  21
ENDBRANCH  19  20
ENDBRANCH  18  19
ENDBRANCH  10  18
BRANCH   1  29
HETATM   29  O1  UNL     1      27.964   2.474  52.237  1.00  0.00    -0.353 OA
HETATM   30  C1  UNL     1      28.574   2.413  53.507  1.00  0.00     0.210 C 
ENDBRANCH   1  29
TORSDOF 7
ENDMDL
MODEL 4
REMARK VINA RESULT:      -7.8      1.789      2.351
REMARK  7 active torsions:
REMARK  status: ('A' for Active; 'I' for Inactive)
REMARK    1  A    between atoms: O1_2  and  C2_3 
REMARK    2  A    between atoms: N2_9  and  C7_10 
REMARK    3  A    between atoms: C9_12  and  O2_13 
REMARK    4  A    between atoms: O2_13  and  C10_14 
REMARK    5  A    between atoms: C10_14  and  C11_15 
REMARK    6  A    between atoms: C11_15  and  C12_16 
REMARK    7  A    between atoms: C12_16  and  N3_17 
ROOT
HETATM    1  C2  UNL     1      26.603   2.165  52.080  1.00  0.00     0.098 A 
HETATM    2  C3  UNL     1      26.032   1.306  53.033  1.00  0.00     0.033 A 
HETATM    3  C4  UNL     1      24.702   1.221  52.617  1.00  0.00     0.072 A 
HETATM    4  C5  UNL     1      24.022   0.381  53.448  1.00  0.00     0.049 A 
HETATM    5  N1  UNL     1      23.157   0.752  52.570  1.00  0.00     0.000 N 
HETATM    6  C6  UNL     1      21.972   0.491  52.393  1.00  0.00     0.056 A 
HETATM    7  N2  UNL     1      22.515   1.313  51.543  1.00  0.00    -0.190 NA
HETATM    8  C7  UNL     1      23.821   1.697  51.605  1.00  0.00     0.100 A 
HETATM    9  C8  UNL     1      24.502   2.529  50.732  1.00  0.00     0.044 A 
HETATM   10  C9  UNL     1      25.822   2.702  51.025  1.00  0.00     0.100 A 
HETATM   11  C18 UNL     1      21.146  -0.322  53.077  1.00  0.00    -0.037 C 
HETATM   12  C19 UNL     1      20.170   0.237  52.164  1.00  0.00     0.050 C 
HETATM   13  C20 UNL     1      21.322  -1.178  54.076  1.00  0.00     0.010 C 
HETATM   14  C21 UNL     1      22.419  -1.618  54.955  1.00  0.00     0.018 C 
HETATM   15  C22 UNL     1      23.742  -1.296  55.043  1.00  0.00     0.088 C 
HETATM   16  N5  UNL     1      24.580  -0.247  54.552  1.00  0.00    -0.367 N 
HETATM   17  H29 UNL     1      25.421   0.259  54.670  1.00  0.00     0.165 HD
ENDROOT
BRANCH  10  18
HETATM   18  O2  UNL     1      26.521   3.484  50.226  1.00  0.00    -0.348 OA
BRANCH  18  19
HETATM   19  C10 UNL     1      26.494   4.437  49.310  1.00  0.00     0.177 C 
BRANCH  19  20
HETATM   20  C11 UNL     1      27.698   4.923  48.589  1.00  0.00     0.057 C 
BRANCH  20  21
HETATM   21  C12 UNL     1      27.959   6.373  48.494  1.00  0.00     0.274 C 
BRANCH  21  22
HETATM   22  N3  UNL     1      26.687   7.092  48.641  1.00  0.00     0.091 N 
HETATM   23  C13 UNL     1      26.749   8.129  49.648  1.00  0.00     0.302 C 
HETATM   24  C14 UNL     1      25.344   8.579  49.945  1.00  0.00     0.302 C 
HETATM   25  N4  UNL     1      24.534   8.807  48.816  1.00  0.00     0.087 N 
HETATM   26  C15 UNL     1      23.135   8.675  49.166  1.00  0.00     0.310 C 
HETATM   27  C16 UNL     1      24.787   8.079  47.626  1.00  0.00     0.302 C 
HETATM   28  C17 UNL     1      26.239   7.707  47.428  1.00  0.00     0.302 C 
ENDBRANCH  21  22
ENDBRANCH  20  21
ENDBRANCH  19  20
ENDBRANCH  18  19
ENDBRANCH  10  18
BRANCH   1  29
HETATM   29  O1  UNL     1      27.935   2.457  52.223  1.00  0.00    -0.353 OA
HETATM   30  C1  UNL     1      28.538   2.458  53.497  1.00  0.00     0.210 C 
ENDBRANCH   1  29
TORSDOF 7
ENDMDL
MODEL 5
REMARK VINA RESULT:      -7.6      3.813      6.234
REMARK  7 active torsions:
REMARK  status: ('A' for Active; 'I' for Inactive)
REMARK    1  A    between atoms: O1_2  and  C2_3 
REMARK    2  A    between atoms: N2_9  and  C7_10 
REMARK    3  A    between atoms: C9_12  and  O2_13 
REMARK    4  A    between atoms: O2_13  and  C10_14 
REMARK    5  A    between atoms: C10_14  and  C11_15 
REMARK    6  A    between atoms: C11_15  and  C12_16 
REMARK    7  A    between atoms: C12_16  and  N3_17 
ROOT
HETATM    1  C2  UNL     1      24.467   4.528  49.377  1.00  0.00     0.098 A 
HETATM    2  C3  UNL     1      23.781   3.563  50.131  1.00  0.00     0.033 A 
HETATM    3  C4  UNL     1      24.817   2.798  50.673  1.00  0.00     0.072 A 
HETATM    4  C5  UNL     1      24.290   1.822  51.466  1.00  0.00     0.049 A 
HETATM    5  N1  UNL     1      25.565   1.669  51.551  1.00  0.00     0.000 N 
HETATM    6  C6  UNL     1      26.280   0.882  52.164  1.00  0.00     0.056 A 
HETATM    7  N2  UNL     1      26.891   1.765  51.430  1.00  0.00    -0.190 NA
HETATM    8  C7  UNL     1      26.237   2.707  50.694  1.00  0.00     0.100 A 
HETATM    9  C8  UNL     1      26.792   3.711  49.917  1.00  0.00     0.044 A 
HETATM   10  C9  UNL     1      25.884   4.537  49.323  1.00  0.00     0.100 A 
HETATM   11  C18 UNL     1      25.955  -0.117  53.005  1.00  0.00    -0.037 C 
HETATM   12  C19 UNL     1      27.384  -0.352  52.953  1.00  0.00     0.050 C 
HETATM   13  C20 UNL     1      24.814  -0.533  53.538  1.00  0.00     0.010 C 
HETATM   14  C21 UNL     1      23.382  -0.193  53.452  1.00  0.00     0.018 C 
HETATM   15  C22 UNL     1      22.678   0.750  52.764  1.00  0.00     0.088 C 
HETATM   16  N5  UNL     1      22.932   1.618  51.656  1.00  0.00    -0.367 N 
HETATM   17  H29 UNL     1      22.542   2.154  50.923  1.00  0.00     0.165 HD
ENDROOT
BRANCH  10  18
HETATM   18  O2  UNL     1      26.356   5.512  48.572  1.00  0.00    -0.348 OA
BRANCH  18  19
HETATM   19  C10 UNL     1      26.962   6.687  48.536  1.00  0.00     0.177 C 
BRANCH  19  20
HETATM   20  C11 UNL     1      28.331   6.894  47.999  1.00  0.00     0.057 C 
BRANCH  20  21
HETATM   21  C12 UNL     1      29.348   5.837  48.160  1.00  0.00     0.274 C 
BRANCH  21  22
HETATM   22  N3  UNL     1      30.670   6.466  48.268  1.00  0.00     0.091 N 
HETATM   23  C13 UNL     1      30.596   7.844  48.704  1.00  0.00     0.302 C 
HETATM   24  C14 UNL     1      31.940   8.481  48.477  1.00  0.00     0.302 C 
HETATM   25  N4  UNL     1      33.046   7.718  48.897  1.00  0.00     0.087 N 
HETATM   26  C15 UNL     1      34.233   8.108  48.165  1.00  0.00     0.310 C 
HETATM   27  C16 UNL     1      32.947   6.304  48.904  1.00  0.00     0.302 C 
HETATM   28  C17 UNL     1      31.552   5.785  49.167  1.00  0.00     0.302 C 
ENDBRANCH  21  22
ENDBRANCH  20  21
ENDBRANCH  19  20
ENDBRANCH  18  19
ENDBRANCH  10  18
BRANCH   1  29
HETATM   29  O1  UNL     1      23.707   5.448  48.702  1.00  0.00    -0.353 OA
HETATM   30  C1  UNL     1      23.129   6.540  49.382  1.00  0.00     0.210 C 
ENDBRANCH   1  29
TORSDOF 7
ENDMDL
MODEL 6
REMARK VINA RESULT:      -7.6      3.077      8.582
REMARK  7 active torsions:
REMARK  status: ('A' for Active; 'I' for Inactive)
REMARK    1  A    between atoms: O1_2  and  C2_3 
REMARK    2  A    between atoms: N2_9  and  C7_10 
REMARK    3  A    between atoms: C9_12  and  O2_13 
REMARK    4  A    between atoms: O2_13  and  C10_14 
REMARK    5  A    between atoms: C10_14  and  C11_15 
REMARK    6  A    between atoms: C11_15  and  C12_16 
REMARK    7  A    between atoms: C12_16  and  N3_17 
ROOT
HETATM    1  C2  UNL     1      24.370   5.403  49.450  1.00  0.00     0.098 A 
HETATM    2  C3  UNL     1      25.090   6.508  48.968  1.00  0.00     0.033 A 
HETATM    3  C4  UNL     1      26.373   5.986  48.784  1.00  0.00     0.072 A 
HETATM    4  C5  UNL     1      27.188   6.958  48.283  1.00  0.00     0.049 A 
HETATM    5  N1  UNL     1      27.931   5.910  48.366  1.00  0.00     0.000 N 
HETATM    6  C6  UNL     1      29.106   5.686  48.092  1.00  0.00     0.056 A 
HETATM    7  N2  UNL     1      28.426   4.688  48.574  1.00  0.00    -0.190 NA
HETATM    8  C7  UNL     1      27.111   4.777  48.923  1.00  0.00     0.100 A 
HETATM    9  C8  UNL     1      26.292   3.769  49.403  1.00  0.00     0.044 A 
HETATM   10  C9  UNL     1      25.001   4.145  49.629  1.00  0.00     0.100 A 
HETATM   11  C18 UNL     1      30.048   6.493  47.572  1.00  0.00    -0.037 C 
HETATM   12  C19 UNL     1      30.887   5.339  47.824  1.00  0.00     0.050 C 
HETATM   13  C20 UNL     1      30.033   7.729  47.089  1.00  0.00     0.010 C 
HETATM   14  C21 UNL     1      29.063   8.828  46.935  1.00  0.00     0.018 C 
HETATM   15  C22 UNL     1      27.739   8.964  47.233  1.00  0.00     0.088 C 
HETATM   16  N5  UNL     1      26.790   8.263  48.040  1.00  0.00    -0.367 N 
HETATM   17  H29 UNL     1      25.935   8.310  48.535  1.00  0.00     0.165 HD
ENDROOT
BRANCH  10  18
HETATM   18  O2  UNL     1      24.175   3.225  50.085  1.00  0.00    -0.348 OA
BRANCH  18  19
HETATM   19  C10 UNL     1      23.887   2.384  51.064  1.00  0.00     0.177 C 
BRANCH  19  20
HETATM   20  C11 UNL     1      24.910   1.635  51.837  1.00  0.00     0.057 C 
BRANCH  20  21
HETATM   21  C12 UNL     1      25.781   2.354  52.788  1.00  0.00     0.274 C 
BRANCH  21  22
HETATM   22  N3  UNL     1      26.904   1.481  53.151  1.00  0.00     0.091 N 
HETATM   23  C13 UNL     1      28.072   2.226  53.569  1.00  0.00     0.302 C 
HETATM   24  C14 UNL     1      29.242   1.280  53.608  1.00  0.00     0.302 C 
HETATM   25  N4  UNL     1      28.995   0.042  54.231  1.00  0.00     0.087 N 
HETATM   26  C15 UNL     1      29.919  -0.960  53.742  1.00  0.00     0.310 C 
HETATM   27  C16 UNL     1      27.680  -0.489  54.214  1.00  0.00     0.302 C 
HETATM   28  C17 UNL     1      26.592   0.560  54.201  1.00  0.00     0.302 C 
ENDBRANCH  21  22
ENDBRANCH  20  21
ENDBRANCH  19  20
ENDBRANCH  18  19
ENDBRANCH  10  18
BRANCH   1  29
HETATM   29  O1  UNL     1      23.045   5.601  49.738  1.00  0.00    -0.353 OA
HETATM   30  C1  UNL     1      22.128   5.923  48.716  1.00  0.00     0.210 C 
ENDBRANCH   1  29
TORSDOF 7
ENDMDL
MODEL 7
REMARK VINA RESULT:      -7.5      2.408      5.061
REMARK  7 active torsions:
REMARK  status: ('A' for Active; 'I' for Inactive)
REMARK    1  A    between atoms: O1_2  and  C2_3 
REMARK    2  A    between atoms: N2_9  and  C7_10 
REMARK    3  A    between atoms: C9_12  and  O2_13 
REMARK    4  A    between atoms: O2_13  and  C10_14 
REMARK    5  A    between atoms: C10_14  and  C11_15 
REMARK    6  A    between atoms: C11_15  and  C12_16 
REMARK    7  A    between atoms: C12_16  and  N3_17 
ROOT
HETATM    1  C2  UNL     1      23.319   1.049  52.246  1.00  0.00     0.098 A 
HETATM    2  C3  UNL     1      24.352   0.099  52.219  1.00  0.00     0.033 A 
HETATM    3  C4  UNL     1      25.433   0.799  52.761  1.00  0.00     0.072 A 
HETATM    4  C5  UNL     1      26.518  -0.025  52.824  1.00  0.00     0.049 A 
HETATM    5  N1  UNL     1      26.917   1.092  53.325  1.00  0.00     0.000 N 
HETATM    6  C6  UNL     1      27.986   1.470  53.794  1.00  0.00     0.056 A 
HETATM    7  N2  UNL     1      27.022   2.344  53.775  1.00  0.00    -0.190 NA
HETATM    8  C7  UNL     1      25.777   2.074  53.290  1.00  0.00     0.100 A 
HETATM    9  C8  UNL     1      24.678   2.916  53.262  1.00  0.00     0.044 A 
HETATM   10  C9  UNL     1      23.545   2.355  52.752  1.00  0.00     0.100 A 
HETATM   11  C18 UNL     1      29.145   0.810  53.964  1.00  0.00    -0.037 C 
HETATM   12  C19 UNL     1      29.597   2.122  54.379  1.00  0.00     0.050 C 
HETATM   13  C20 UNL     1      29.514  -0.455  53.800  1.00  0.00     0.010 C 
HETATM   14  C21 UNL     1      28.916  -1.710  53.312  1.00  0.00     0.018 C 
HETATM   15  C22 UNL     1      27.678  -2.046  52.848  1.00  0.00     0.088 C 
HETATM   16  N5  UNL     1      26.530  -1.337  52.375  1.00  0.00    -0.367 N 
HETATM   17  H29 UNL     1      25.705  -1.373  51.832  1.00  0.00     0.165 HD
ENDROOT
BRANCH  10  18
HETATM   18  O2  UNL     1      22.466   3.111  52.702  1.00  0.00    -0.348 OA
BRANCH  18  19
HETATM   19  C10 UNL     1      21.976   4.335  52.609  1.00  0.00     0.177 C 
BRANCH  19  20
HETATM   20  C11 UNL     1      22.215   5.235  51.452  1.00  0.00     0.057 C 
BRANCH  20  21
HETATM   21  C12 UNL     1      22.714   4.675  50.180  1.00  0.00     0.274 C 
BRANCH  21  22
HETATM   22  N3  UNL     1      23.964   5.356  49.822  1.00  0.00     0.091 N 
HETATM   23  C13 UNL     1      24.299   6.421  50.743  1.00  0.00     0.302 C 
HETATM   24  C14 UNL     1      25.395   7.248  50.125  1.00  0.00     0.302 C 
HETATM   25  N4  UNL     1      26.453   6.515  49.554  1.00  0.00     0.087 N 
HETATM   26  C15 UNL     1      27.121   7.304  48.539  1.00  0.00     0.310 C 
HETATM   27  C16 UNL     1      26.197   5.218  49.043  1.00  0.00     0.302 C 
HETATM   28  C17 UNL     1      25.092   4.478  49.762  1.00  0.00     0.302 C 
ENDBRANCH  21  22
ENDBRANCH  20  21
ENDBRANCH  19  20
ENDBRANCH  18  19
ENDBRANCH  10  18
BRANCH   1  29
HETATM   29  O1  UNL     1      22.098   0.657  51.762  1.00  0.00    -0.353 OA
HETATM   30  C1  UNL     1      21.192  -0.045  52.583  1.00  0.00     0.210 C 
ENDBRANCH   1  29
TORSDOF 7
ENDMDL
MODEL 8
REMARK VINA RESULT:      -7.5      2.052      3.256
REMARK  7 active torsions:
REMARK  status: ('A' for Active; 'I' for Inactive)
REMARK    1  A    between atoms: O1_2  and  C2_3 
REMARK    2  A    between atoms: N2_9  and  C7_10 
REMARK    3  A    between atoms: C9_12  and  O2_13 
REMARK    4  A    between atoms: O2_13  and  C10_14 
REMARK    5  A    between atoms: C10_14  and  C11_15 
REMARK    6  A    between atoms: C11_15  and  C12_16 
REMARK    7  A    between atoms: C12_16  and  N3_17 
ROOT
HETATM    1  C2  UNL     1      23.863   0.152  53.332  1.00  0.00     0.098 A 
HETATM    2  C3  UNL     1      22.634  -0.414  53.707  1.00  0.00     0.033 A 
HETATM    3  C4  UNL     1      21.760   0.064  52.727  1.00  0.00     0.072 A 
HETATM    4  C5  UNL     1      20.513  -0.437  52.953  1.00  0.00     0.049 A 
HETATM    5  N1  UNL     1      20.398   0.273  51.885  1.00  0.00     0.000 N 
HETATM    6  C6  UNL     1      19.459   0.527  51.139  1.00  0.00     0.056 A 
HETATM    7  N2  UNL     1      20.601   1.068  50.832  1.00  0.00    -0.190 NA
HETATM    8  C7  UNL     1      21.738   0.879  51.561  1.00  0.00     0.100 A 
HETATM    9  C8  UNL     1      23.005   1.373  51.298  1.00  0.00     0.044 A 
HETATM   10  C9  UNL     1      23.963   0.982  52.186  1.00  0.00     0.100 A 
HETATM   11  C18 UNL     1      18.179   0.114  51.177  1.00  0.00    -0.037 C 
HETATM   12  C19 UNL     1      18.059   1.042  50.071  1.00  0.00     0.050 C 
HETATM   13  C20 UNL     1      17.518  -0.757  51.930  1.00  0.00     0.010 C 
HETATM   14  C21 UNL     1      17.793  -1.627  53.088  1.00  0.00     0.018 C 
HETATM   15  C22 UNL     1      18.907  -1.879  53.832  1.00  0.00     0.088 C 
HETATM   16  N5  UNL     1      20.181  -1.259  54.019  1.00  0.00    -0.367 N 
HETATM   17  H29 UNL     1      20.964  -1.146  54.613  1.00  0.00     0.165 HD
ENDROOT
BRANCH  10  18
HETATM   18  O2  UNL     1      25.189   1.421  51.984  1.00  0.00    -0.348 OA
BRANCH  18  19
HETATM   19  C10 UNL     1      25.963   2.462  51.728  1.00  0.00     0.177 C 
BRANCH  19  20
HETATM   20  C11 UNL     1      26.417   2.838  50.365  1.00  0.00     0.057 C 
BRANCH  20  21
HETATM   21  C12 UNL     1      26.005   4.132  49.786  1.00  0.00     0.274 C 
BRANCH  21  22
HETATM   22  N3  UNL     1      24.592   4.366  50.110  1.00  0.00     0.091 N 
HETATM   23  C13 UNL     1      24.389   5.589  50.856  1.00  0.00     0.302 C 
HETATM   24  C14 UNL     1      22.988   5.575  51.406  1.00  0.00     0.302 C 
HETATM   25  N4  UNL     1      21.987   5.186  50.495  1.00  0.00     0.087 N 
HETATM   26  C15 UNL     1      20.835   4.668  51.204  1.00  0.00     0.310 C 
HETATM   27  C16 UNL     1      22.321   4.301  49.439  1.00  0.00     0.302 C 
HETATM   28  C17 UNL     1      23.748   4.428  48.956  1.00  0.00     0.302 C 
ENDBRANCH  21  22
ENDBRANCH  20  21
ENDBRANCH  19  20
ENDBRANCH  18  19
ENDBRANCH  10  18
BRANCH   1  29
HETATM   29  O1  UNL     1      24.947  -0.133  54.121  1.00  0.00    -0.353 OA
HETATM   30  C1  UNL     1      24.815  -0.970  55.248  1.00  0.00     0.210 C 
ENDBRANCH   1  29
TORSDOF 7
ENDMDL
MODEL 9
REMARK VINA RESULT:      -7.5      3.406      5.514
REMARK  7 active torsions:
REMARK  status: ('A' for Active; 'I' for Inactive)
REMARK    1  A    between atoms: O1_2  and  C2_3 
REMARK    2  A    between atoms: N2_9  and  C7_10 
REMARK    3  A    between atoms: C9_12  and  O2_13 
REMARK    4  A    between atoms: O2_13  and  C10_14 
REMARK    5  A    between atoms: C10_14  and  C11_15 
REMARK    6  A    between atoms: C11_15  and  C12_16 
REMARK    7  A    between atoms: C12_16  and  N3_17 
ROOT
HETATM    1  C2  UNL     1      24.257   3.802  49.493  1.00  0.00     0.098 A 
HETATM    2  C3  UNL     1      23.300   2.994  50.129  1.00  0.00     0.033 A 
HETATM    3  C4  UNL     1      24.073   2.232  51.009  1.00  0.00     0.072 A 
HETATM    4  C5  UNL     1      23.257   1.408  51.726  1.00  0.00     0.049 A 
HETATM    5  N1  UNL     1      24.443   1.173  52.171  1.00  0.00     0.000 N 
HETATM    6  C6  UNL     1      24.886   0.423  53.034  1.00  0.00     0.056 A 
HETATM    7  N2  UNL     1      25.756   1.157  52.406  1.00  0.00    -0.190 NA
HETATM    8  C7  UNL     1      25.420   2.041  51.425  1.00  0.00     0.100 A 
HETATM    9  C8  UNL     1      26.261   2.893  50.727  1.00  0.00     0.044 A 
HETATM   10  C9  UNL     1      25.632   3.700  49.826  1.00  0.00     0.100 A 
HETATM   11  C18 UNL     1      24.250  -0.433  53.854  1.00  0.00    -0.037 C 
HETATM   12  C19 UNL     1      25.610  -0.776  54.218  1.00  0.00     0.050 C 
HETATM   13  C20 UNL     1      22.971  -0.693  54.097  1.00  0.00     0.010 C 
HETATM   14  C21 UNL     1      21.656  -0.264  53.590  1.00  0.00     0.018 C 
HETATM   15  C22 UNL     1      21.259   0.632  52.641  1.00  0.00     0.088 C 
HETATM   16  N5  UNL     1      21.883   1.329  51.560  1.00  0.00    -0.367 N 
HETATM   17  H29 UNL     1      21.756   1.793  50.697  1.00  0.00     0.165 HD
ENDROOT
BRANCH  10  18
HETATM   18  O2  UNL     1      26.383   4.533  49.134  1.00  0.00    -0.348 OA
BRANCH  18  19
HETATM   19  C10 UNL     1      27.587   4.803  48.659  1.00  0.00     0.177 C 
BRANCH  19  20
HETATM   20  C11 UNL     1      28.035   6.165  48.269  1.00  0.00     0.057 C 
BRANCH  20  21
HETATM   21  C12 UNL     1      29.467   6.422  48.021  1.00  0.00     0.274 C 
BRANCH  21  22
HETATM   22  N3  UNL     1      29.747   7.837  48.290  1.00  0.00     0.091 N 
HETATM   23  C13 UNL     1      28.657   8.498  48.974  1.00  0.00     0.302 C 
HETATM   24  C14 UNL     1      28.898   9.983  48.917  1.00  0.00     0.302 C 
HETATM   25  N4  UNL     1      30.210  10.391  49.223  1.00  0.00     0.087 N 
HETATM   26  C15 UNL     1      30.491  11.677  48.618  1.00  0.00     0.310 C 
HETATM   27  C16 UNL     1      31.287   9.508  48.961  1.00  0.00     0.302 C 
HETATM   28  C17 UNL     1      30.926   8.044  49.075  1.00  0.00     0.302 C 
ENDBRANCH  21  22
ENDBRANCH  20  21
ENDBRANCH  19  20
ENDBRANCH  18  19
ENDBRANCH  10  18
BRANCH   1  29
HETATM   29  O1  UNL     1      23.800   4.680  48.545  1.00  0.00    -0.353 OA
HETATM   30  C1  UNL     1      22.438   4.699  48.180  1.00  0.00     0.210 C 
ENDBRANCH   1  29
TORSDOF 7
ENDMDL
