MODEL 1
REMARK VINA RESULT:      -7.2      0.000      0.000
REMARK  7 active torsions:
REMARK  status: ('A' for Active; 'I' for Inactive)
REMARK    1  A    between atoms: C2_2  and  C15_18 
REMARK    2  A    between atoms: C3_3  and  C4_4 
REMARK    3  A    between atoms: C5_5  and  C6_6 
REMARK    4  A    between atoms: C7_7  and  N1_8 
REMARK    5  A    between atoms: C7_7  and  C8_9 
REMARK       I    between atoms: C8_9  and  N2_11 
REMARK    6  A    between atoms: N2_11  and  C9_12 
REMARK    7  A    between atoms: C15_18  and  O2_20 
ROOT
HETATM    1  C6  UNL     1      26.899   2.633  51.614  1.00  0.00     0.029 C 
HETATM    2  C7  UNL     1      25.608   2.683  51.341  1.00  0.00     0.074 C 
ENDROOT
BRANCH   2   3
HETATM    3  N1  UNL     1      25.142   2.955  50.049  1.00  0.00    -0.298 NA
HETATM    4  H8  UNL     1      24.266   3.521  49.898  1.00  0.00     0.124 HD
HETATM    5  H9  UNL     1      24.266   3.529  50.222  1.00  0.00     0.124 HD
ENDBRANCH   2   3
BRANCH   2   6
HETATM    6  C8  UNL     1      24.656   2.434  52.416  1.00  0.00     0.262 C 
HETATM    7  O1  UNL     1      24.297   3.135  53.396  1.00  0.00    -0.267 OA
HETATM    8  N2  UNL     1      23.952   1.191  52.446  1.00  0.00    -0.351 N 
HETATM    9  H10 UNL     1      24.165   0.501  51.665  1.00  0.00     0.163 HD
BRANCH   8  10
HETATM   10  C9  UNL     1      22.967   0.696  53.392  1.00  0.00     0.084 C 
HETATM   11  C10 UNL     1      21.763   0.204  52.617  1.00  0.00     0.025 C 
HETATM   12  C11 UNL     1      20.839  -0.618  53.455  1.00  0.00     0.002 C 
HETATM   13  C12 UNL     1      21.539  -1.776  54.132  1.00  0.00     0.000 C 
HETATM   14  C13 UNL     1      22.668  -1.237  54.985  1.00  0.00     0.002 C 
HETATM   15  C14 UNL     1      23.593  -0.479  54.084  1.00  0.00     0.025 C 
ENDBRANCH   8  10
ENDBRANCH   2   6
BRANCH   1  16
HETATM   16  C5  UNL     1      27.847   2.410  52.697  1.00  0.00     0.002 C 
HETATM   17  C4  UNL     1      28.200   1.397  53.437  1.00  0.00     0.000 C 
BRANCH  17  18
HETATM   18  C3  UNL     1      27.626   0.090  53.299  1.00  0.00     0.005 C 
HETATM   19  C2  UNL     1      28.307  -1.044  53.269  1.00  0.00    -0.056 C 
HETATM   20  C1  UNL     1      29.806  -0.991  53.384  1.00  0.00     0.046 C 
BRANCH  19  21
HETATM   21  C15 UNL     1      27.651  -2.353  53.127  1.00  0.00     0.142 C 
HETATM   22  C16 UNL     1      26.609  -2.375  52.033  1.00  0.00     0.044 C 
BRANCH  21  23
HETATM   23  O2  UNL     1      28.532  -3.386  52.875  1.00  0.00    -0.392 OA
HETATM   24  H26 UNL     1      29.368  -3.339  53.412  1.00  0.00     0.210 HD
ENDBRANCH  21  23
ENDBRANCH  19  21
ENDBRANCH  17  18
ENDBRANCH   1  16
TORSDOF 7
ENDMDL
MODEL 2
REMARK VINA RESULT:      -7.1      3.259      5.540
REMARK  7 active torsions:
REMARK  status: ('A' for Active; 'I' for Inactive)
REMARK    1  A    between atoms: C2_2  and  C15_18 
REMARK    2  A    between atoms: C3_3  and  C4_4 
REMARK    3  A    between atoms: C5_5  and  C6_6 
REMARK    4  A    between atoms: C7_7  and  N1_8 
REMARK    5  A    between atoms: C7_7  and  C8_9 
REMARK       I    between atoms: C8_9  and  N2_11 
REMARK    6  A    between atoms: N2_11  and  C9_12 
REMARK    7  A    between atoms: C15_18  and  O2_20 
ROOT
HETATM    1  C6  UNL     1      26.928   2.437  51.686  1.00  0.00     0.029 C 
HETATM    2  C7  UNL     1      27.174   1.466  52.548  1.00  0.00     0.074 C 
ENDROOT
BRANCH   2   3
HETATM    3  N1  UNL     1      28.285   1.508  53.400  1.00  0.00    -0.298 NA
HETATM    4  H8  UNL     1      28.307   2.161  54.226  1.00  0.00     0.124 HD
HETATM    5  H9  UNL     1      28.014   2.242  54.117  1.00  0.00     0.124 HD
ENDBRANCH   2   3
BRANCH   2   6
HETATM    6  C8  UNL     1      26.253   0.339  52.613  1.00  0.00     0.262 C 
HETATM    7  O1  UNL     1      26.393  -0.874  52.313  1.00  0.00    -0.267 OA
HETATM    8  N2  UNL     1      24.925   0.554  53.093  1.00  0.00    -0.351 N 
HETATM    9  H10 UNL     1      24.675   1.546  53.383  1.00  0.00     0.163 HD
BRANCH   8  10
HETATM   10  C9  UNL     1      23.826  -0.382  53.255  1.00  0.00     0.084 C 
HETATM   11  C10 UNL     1      23.771  -0.811  54.705  1.00  0.00     0.025 C 
HETATM   12  C11 UNL     1      22.493  -1.506  55.049  1.00  0.00     0.002 C 
HETATM   13  C12 UNL     1      21.270  -0.690  54.694  1.00  0.00     0.000 C 
HETATM   14  C13 UNL     1      21.303  -0.373  53.214  1.00  0.00     0.002 C 
HETATM   15  C14 UNL     1      22.570   0.377  52.941  1.00  0.00     0.025 C 
ENDBRANCH   8  10
ENDBRANCH   2   6
BRANCH   1  16
HETATM   16  C5  UNL     1      25.993   2.859  50.653  1.00  0.00     0.002 C 
HETATM   17  C4  UNL     1      26.066   3.548  49.549  1.00  0.00     0.000 C 
BRANCH  17  18
HETATM   18  C3  UNL     1      27.289   4.114  49.062  1.00  0.00     0.005 C 
HETATM   19  C2  UNL     1      27.440   5.360  48.639  1.00  0.00    -0.056 C 
HETATM   20  C1  UNL     1      26.249   6.278  48.659  1.00  0.00     0.046 C 
BRANCH  19  21
HETATM   21  C15 UNL     1      28.728   5.876  48.153  1.00  0.00     0.142 C 
HETATM   22  C16 UNL     1      28.670   7.336  47.768  1.00  0.00     0.044 C 
BRANCH  21  23
HETATM   23  O2  UNL     1      29.758   5.732  49.061  1.00  0.00    -0.392 OA
HETATM   24  H26 UNL     1      29.518   5.181  49.854  1.00  0.00     0.210 HD
ENDBRANCH  21  23
ENDBRANCH  19  21
ENDBRANCH  17  18
ENDBRANCH   1  16
TORSDOF 7
ENDMDL
MODEL 3
REMARK VINA RESULT:      -7.0      2.980      5.715
REMARK  7 active torsions:
REMARK  status: ('A' for Active; 'I' for Inactive)
REMARK    1  A    between atoms: C2_2  and  C15_18 
REMARK    2  A    between atoms: C3_3  and  C4_4 
REMARK    3  A    between atoms: C5_5  and  C6_6 
REMARK    4  A    between atoms: C7_7  and  N1_8 
REMARK    5  A    between atoms: C7_7  and  C8_9 
REMARK       I    between atoms: C8_9  and  N2_11 
REMARK    6  A    between atoms: N2_11  and  C9_12 
REMARK    7  A    between atoms: C15_18  and  O2_20 
ROOT
HETATM    1  C6  UNL     1      26.958   2.756  51.499  1.00  0.00     0.029 C 
HETATM    2  C7  UNL     1      26.922   2.033  52.604  1.00  0.00     0.074 C 
ENDROOT
BRANCH   2   3
HETATM    3  N1  UNL     1      27.582   2.443  53.770  1.00  0.00    -0.298 NA
HETATM    4  H8  UNL     1      27.886   3.444  53.894  1.00  0.00     0.124 HD
HETATM    5  H9  UNL     1      27.752   3.477  53.601  1.00  0.00     0.124 HD
ENDBRANCH   2   3
BRANCH   2   6
HETATM    6  C8  UNL     1      26.164   0.788  52.601  1.00  0.00     0.262 C 
HETATM    7  O1  UNL     1      26.408  -0.339  52.102  1.00  0.00    -0.267 OA
HETATM    8  N2  UNL     1      24.898   0.746  53.261  1.00  0.00    -0.351 N 
HETATM    9  H10 UNL     1      24.571   1.642  53.730  1.00  0.00     0.163 HD
BRANCH   8  10
HETATM   10  C9  UNL     1      23.954  -0.350  53.404  1.00  0.00     0.084 C 
HETATM   11  C10 UNL     1      23.882  -0.734  54.866  1.00  0.00     0.025 C 
HETATM   12  C11 UNL     1      22.713  -1.614  55.170  1.00  0.00     0.002 C 
HETATM   13  C12 UNL     1      21.399  -1.018  54.717  1.00  0.00     0.000 C 
HETATM   14  C13 UNL     1      21.469  -0.749  53.229  1.00  0.00     0.002 C 
HETATM   15  C14 UNL     1      22.614   0.186  52.992  1.00  0.00     0.025 C 
ENDBRANCH   8  10
ENDBRANCH   2   6
BRANCH   1  16
HETATM   16  C5  UNL     1      26.487   2.791  50.122  1.00  0.00     0.002 C 
HETATM   17  C4  UNL     1      25.896   3.665  49.357  1.00  0.00     0.000 C 
BRANCH  17  18
HETATM   18  C3  UNL     1      25.538   4.979  49.803  1.00  0.00     0.005 C 
HETATM   19  C2  UNL     1      26.134   6.101  49.432  1.00  0.00    -0.056 C 
HETATM   20  C1  UNL     1      27.284   6.022  48.465  1.00  0.00     0.046 C 
BRANCH  19  21
HETATM   21  C15 UNL     1      25.713   7.419  49.929  1.00  0.00     0.142 C 
HETATM   22  C16 UNL     1      24.461   7.358  50.773  1.00  0.00     0.044 C 
BRANCH  21  23
HETATM   23  O2  UNL     1      26.681   8.061  50.675  1.00  0.00    -0.392 OA
HETATM   24  H26 UNL     1      27.606   7.924  50.336  1.00  0.00     0.210 HD
ENDBRANCH  21  23
ENDBRANCH  19  21
ENDBRANCH  17  18
ENDBRANCH   1  16
TORSDOF 7
ENDMDL
MODEL 4
REMARK VINA RESULT:      -7.0      2.212      5.525
REMARK  7 active torsions:
REMARK  status: ('A' for Active; 'I' for Inactive)
REMARK    1  A    between atoms: C2_2  and  C15_18 
REMARK    2  A    between atoms: C3_3  and  C4_4 
REMARK    3  A    between atoms: C5_5  and  C6_6 
REMARK    4  A    between atoms: C7_7  and  N1_8 
REMARK    5  A    between atoms: C7_7  and  C8_9 
REMARK       I    between atoms: C8_9  and  N2_11 
REMARK    6  A    between atoms: N2_11  and  C9_12 
REMARK    7  A    between atoms: C15_18  and  O2_20 
ROOT
HETATM    1  C6  UNL     1      23.904   4.127  49.932  1.00  0.00     0.029 C 
HETATM    2  C7  UNL     1      25.096   4.495  50.367  1.00  0.00     0.074 C 
ENDROOT
BRANCH   2   3
HETATM    3  N1  UNL     1      25.368   5.822  50.724  1.00  0.00    -0.298 NA
HETATM    4  H8  UNL     1      25.904   6.457  50.075  1.00  0.00     0.124 HD
HETATM    5  H9  UNL     1      25.906   6.193  49.888  1.00  0.00     0.124 HD
ENDBRANCH   2   3
BRANCH   2   6
HETATM    6  C8  UNL     1      26.139   3.485  50.486  1.00  0.00     0.262 C 
HETATM    7  O1  UNL     1      26.931   2.996  49.642  1.00  0.00    -0.267 OA
HETATM    8  N2  UNL     1      26.378   2.881  51.759  1.00  0.00    -0.351 N 
HETATM    9  H10 UNL     1      25.769   3.209  52.567  1.00  0.00     0.163 HD
BRANCH   8  10
HETATM   10  C9  UNL     1      27.340   1.863  52.145  1.00  0.00     0.084 C 
HETATM   11  C10 UNL     1      28.010   2.300  53.430  1.00  0.00     0.025 C 
HETATM   12  C11 UNL     1      28.767   1.191  54.087  1.00  0.00     0.002 C 
HETATM   13  C12 UNL     1      27.917  -0.036  54.326  1.00  0.00     0.000 C 
HETATM   14  C13 UNL     1      27.353  -0.509  53.003  1.00  0.00     0.002 C 
HETATM   15  C14 UNL     1      26.553   0.616  52.425  1.00  0.00     0.025 C 
ENDBRANCH   8  10
ENDBRANCH   2   6
BRANCH   1  16
HETATM   16  C5  UNL     1      23.146   2.976  49.464  1.00  0.00     0.002 C 
HETATM   17  C4  UNL     1      22.755   1.842  49.975  1.00  0.00     0.000 C 
BRANCH  17  18
HETATM   18  C3  UNL     1      23.047   1.451  51.324  1.00  0.00     0.005 C 
HETATM   19  C2  UNL     1      22.248   0.739  52.103  1.00  0.00    -0.056 C 
HETATM   20  C1  UNL     1      20.919   0.291  51.558  1.00  0.00     0.046 C 
BRANCH  19  21
HETATM   21  C15 UNL     1      22.613   0.371  53.479  1.00  0.00     0.142 C 
HETATM   22  C16 UNL     1      21.417   0.011  54.330  1.00  0.00     0.044 C 
BRANCH  21  23
HETATM   23  O2  UNL     1      23.500  -0.685  53.550  1.00  0.00    -0.392 OA
HETATM   24  H26 UNL     1      23.533  -1.236  52.723  1.00  0.00     0.210 HD
ENDBRANCH  21  23
ENDBRANCH  19  21
ENDBRANCH  17  18
ENDBRANCH   1  16
TORSDOF 7
ENDMDL
MODEL 5
REMARK VINA RESULT:      -6.9      3.122      6.075
REMARK  7 active torsions:
REMARK  status: ('A' for Active; 'I' for Inactive)
REMARK    1  A    between atoms: C2_2  and  C15_18 
REMARK    2  A    between atoms: C3_3  and  C4_4 
REMARK    3  A    between atoms: C5_5  and  C6_6 
REMARK    4  A    between atoms: C7_7  and  N1_8 
REMARK    5  A    between atoms: C7_7  and  C8_9 
REMARK       I    between atoms: C8_9  and  N2_11 
REMARK    6  A    between atoms: N2_11  and  C9_12 
REMARK    7  A    between atoms: C15_18  and  O2_20 
ROOT
HETATM    1  C6  UNL     1      23.812   2.704  52.886  1.00  0.00     0.029 C 
HETATM    2  C7  UNL     1      23.952   3.908  52.361  1.00  0.00     0.074 C 
ENDROOT
BRANCH   2   3
HETATM    3  N1  UNL     1      23.716   5.067  53.112  1.00  0.00    -0.298 NA
HETATM    4  H8  UNL     1      24.516   5.651  53.470  1.00  0.00     0.124 HD
HETATM    5  H9  UNL     1      24.693   5.425  53.320  1.00  0.00     0.124 HD
ENDBRANCH   2   3
BRANCH   2   6
HETATM    6  C8  UNL     1      24.378   4.020  50.972  1.00  0.00     0.262 C 
HETATM    7  O1  UNL     1      23.988   3.438  49.928  1.00  0.00    -0.267 OA
HETATM    8  N2  UNL     1      25.424   4.933  50.637  1.00  0.00    -0.351 N 
HETATM    9  H10 UNL     1      25.845   5.494  51.437  1.00  0.00     0.163 HD
BRANCH   8  10
HETATM   10  C9  UNL     1      26.029   5.232  49.351  1.00  0.00     0.084 C 
HETATM   11  C10 UNL     1      26.180   6.733  49.228  1.00  0.00     0.025 C 
HETATM   12  C11 UNL     1      27.081   7.128  48.104  1.00  0.00     0.002 C 
HETATM   13  C12 UNL     1      28.439   6.467  48.182  1.00  0.00     0.000 C 
HETATM   14  C13 UNL     1      28.254   4.965  48.191  1.00  0.00     0.002 C 
HETATM   15  C14 UNL     1      27.400   4.622  49.372  1.00  0.00     0.025 C 
ENDBRANCH   8  10
ENDBRANCH   2   6
BRANCH   1  16
HETATM   16  C5  UNL     1      23.920   1.286  52.577  1.00  0.00     0.002 C 
HETATM   17  C4  UNL     1      24.765   0.331  52.846  1.00  0.00     0.000 C 
BRANCH  17  18
HETATM   18  C3  UNL     1      25.947   0.533  53.633  1.00  0.00     0.005 C 
HETATM   19  C2  UNL     1      27.015  -0.249  53.622  1.00  0.00    -0.056 C 
HETATM   20  C1  UNL     1      27.017  -1.456  52.724  1.00  0.00     0.046 C 
BRANCH  19  21
HETATM   21  C15 UNL     1      28.196   0.019  54.456  1.00  0.00     0.142 C 
HETATM   22  C16 UNL     1      29.474  -0.521  53.859  1.00  0.00     0.044 C 
BRANCH  21  23
HETATM   23  O2  UNL     1      28.397   1.361  54.711  1.00  0.00    -0.392 OA
HETATM   24  H26 UNL     1      28.711   1.876  53.921  1.00  0.00     0.210 HD
ENDBRANCH  21  23
ENDBRANCH  19  21
ENDBRANCH  17  18
ENDBRANCH   1  16
TORSDOF 7
ENDMDL
MODEL 6
REMARK VINA RESULT:      -6.8      1.647      2.267
REMARK  7 active torsions:
REMARK  status: ('A' for Active; 'I' for Inactive)
REMARK    1  A    between atoms: C2_2  and  C15_18 
REMARK    2  A    between atoms: C3_3  and  C4_4 
REMARK    3  A    between atoms: C5_5  and  C6_6 
REMARK    4  A    between atoms: C7_7  and  N1_8 
REMARK    5  A    between atoms: C7_7  and  C8_9 
REMARK       I    between atoms: C8_9  and  N2_11 
REMARK    6  A    between atoms: N2_11  and  C9_12 
REMARK    7  A    between atoms: C15_18  and  O2_20 
ROOT
HETATM    1  C6  UNL     1      24.685   3.111  49.587  1.00  0.00     0.029 C 
HETATM    2  C7  UNL     1      23.449   2.756  49.893  1.00  0.00     0.074 C 
ENDROOT
BRANCH   2   3
HETATM    3  N1  UNL     1      22.485   2.531  48.901  1.00  0.00    -0.298 NA
HETATM    4  H8  UNL     1      22.533   1.677  48.285  1.00  0.00     0.124 HD
HETATM    5  H9  UNL     1      22.797   1.616  48.463  1.00  0.00     0.124 HD
ENDBRANCH   2   3
BRANCH   2   6
HETATM    6  C8  UNL     1      23.098   2.585  51.296  1.00  0.00     0.262 C 
HETATM    7  O1  UNL     1      23.051   3.399  52.253  1.00  0.00    -0.267 OA
HETATM    8  N2  UNL     1      22.723   1.288  51.765  1.00  0.00    -0.351 N 
HETATM    9  H10 UNL     1      22.720   0.502  51.049  1.00  0.00     0.163 HD
BRANCH   8  10
HETATM   10  C9  UNL     1      22.335   0.851  53.095  1.00  0.00     0.084 C 
HETATM   11  C10 UNL     1      20.885   0.416  53.053  1.00  0.00     0.025 C 
HETATM   12  C11 UNL     1      20.483  -0.353  54.269  1.00  0.00     0.002 C 
HETATM   13  C12 UNL     1      21.381  -1.540  54.534  1.00  0.00     0.000 C 
HETATM   14  C13 UNL     1      22.807  -1.054  54.680  1.00  0.00     0.002 C 
HETATM   15  C14 UNL     1      23.177  -0.351  53.411  1.00  0.00     0.025 C 
ENDBRANCH   8  10
ENDBRANCH   2   6
BRANCH   1  16
HETATM   16  C5  UNL     1      25.973   3.443  50.177  1.00  0.00     0.002 C 
HETATM   17  C4  UNL     1      26.778   2.891  51.040  1.00  0.00     0.000 C 
BRANCH  17  18
HETATM   18  C3  UNL     1      26.498   1.638  51.679  1.00  0.00     0.005 C 
HETATM   19  C2  UNL     1      27.059   1.208  52.798  1.00  0.00    -0.056 C 
HETATM   20  C1  UNL     1      28.079   2.082  53.477  1.00  0.00     0.046 C 
BRANCH  19  21
HETATM   21  C15 UNL     1      26.723  -0.090  53.400  1.00  0.00     0.142 C 
HETATM   22  C16 UNL     1      26.756  -1.228  52.406  1.00  0.00     0.044 C 
BRANCH  21  23
HETATM   23  O2  UNL     1      27.546  -0.440  54.452  1.00  0.00    -0.392 OA
HETATM   24  H26 UNL     1      28.472  -0.085  54.371  1.00  0.00     0.210 HD
ENDBRANCH  21  23
ENDBRANCH  19  21
ENDBRANCH  17  18
ENDBRANCH   1  16
TORSDOF 7
ENDMDL
MODEL 7
REMARK VINA RESULT:      -6.8      3.425      6.448
REMARK  7 active torsions:
REMARK  status: ('A' for Active; 'I' for Inactive)
REMARK    1  A    between atoms: C2_2  and  C15_18 
REMARK    2  A    between atoms: C3_3  and  C4_4 
REMARK    3  A    between atoms: C5_5  and  C6_6 
REMARK    4  A    between atoms: C7_7  and  N1_8 
REMARK    5  A    between atoms: C7_7  and  C8_9 
REMARK       I    between atoms: C8_9  and  N2_11 
REMARK    6  A    between atoms: N2_11  and  C9_12 
REMARK    7  A    between atoms: C15_18  and  O2_20 
ROOT
HETATM    1  C6  UNL     1      23.754   4.888  51.338  1.00  0.00     0.029 C 
HETATM    2  C7  UNL     1      23.832   4.494  52.597  1.00  0.00     0.074 C 
ENDROOT
BRANCH   2   3
HETATM    3  N1  UNL     1      23.746   5.406  53.657  1.00  0.00    -0.298 NA
HETATM    4  H8  UNL     1      23.117   5.218  54.481  1.00  0.00     0.124 HD
HETATM    5  H9  UNL     1      23.052   4.948  54.316  1.00  0.00     0.124 HD
ENDBRANCH   2   3
BRANCH   2   6
HETATM    6  C8  UNL     1      23.999   3.074  52.876  1.00  0.00     0.262 C 
HETATM    7  O1  UNL     1      23.172   2.129  52.931  1.00  0.00    -0.267 OA
HETATM    8  N2  UNL     1      25.307   2.569  53.149  1.00  0.00    -0.351 N 
HETATM    9  H10 UNL     1      26.105   3.272  53.133  1.00  0.00     0.163 HD
BRANCH   8  10
HETATM   10  C9  UNL     1      25.743   1.217  53.455  1.00  0.00     0.084 C 
HETATM   11  C10 UNL     1      26.036   0.501  52.154  1.00  0.00     0.025 C 
HETATM   12  C11 UNL     1      26.797  -0.768  52.357  1.00  0.00     0.002 C 
HETATM   13  C12 UNL     1      28.072  -0.566  53.145  1.00  0.00     0.000 C 
HETATM   14  C13 UNL     1      27.729   0.050  54.484  1.00  0.00     0.002 C 
HETATM   15  C14 UNL     1      27.028   1.346  54.219  1.00  0.00     0.025 C 
ENDBRANCH   8  10
ENDBRANCH   2   6
BRANCH   1  16
HETATM   16  C5  UNL     1      23.782   4.398  49.968  1.00  0.00     0.002 C 
HETATM   17  C4  UNL     1      24.376   4.746  48.862  1.00  0.00     0.000 C 
BRANCH  17  18
HETATM   18  C3  UNL     1      25.268   5.866  48.773  1.00  0.00     0.005 C 
HETATM   19  C2  UNL     1      26.589   5.794  48.783  1.00  0.00    -0.056 C 
HETATM   20  C1  UNL     1      27.238   4.441  48.899  1.00  0.00     0.046 C 
BRANCH  19  21
HETATM   21  C15 UNL     1      27.444   6.986  48.686  1.00  0.00     0.142 C 
HETATM   22  C16 UNL     1      27.150   7.824  47.464  1.00  0.00     0.044 C 
BRANCH  21  23
HETATM   23  O2  UNL     1      27.358   7.817  49.785  1.00  0.00    -0.392 OA
HETATM   24  H26 UNL     1      26.667   8.527  49.697  1.00  0.00     0.210 HD
ENDBRANCH  21  23
ENDBRANCH  19  21
ENDBRANCH  17  18
ENDBRANCH   1  16
TORSDOF 7
ENDMDL
MODEL 8
REMARK VINA RESULT:      -6.4      2.584      6.225
REMARK  7 active torsions:
REMARK  status: ('A' for Active; 'I' for Inactive)
REMARK    1  A    between atoms: C2_2  and  C15_18 
REMARK    2  A    between atoms: C3_3  and  C4_4 
REMARK    3  A    between atoms: C5_5  and  C6_6 
REMARK    4  A    between atoms: C7_7  and  N1_8 
REMARK    5  A    between atoms: C7_7  and  C8_9 
REMARK       I    between atoms: C8_9  and  N2_11 
REMARK    6  A    between atoms: N2_11  and  C9_12 
REMARK    7  A    between atoms: C15_18  and  O2_20 
ROOT
HETATM    1  C6  UNL     1      24.129   3.915  49.473  1.00  0.00     0.029 C 
HETATM    2  C7  UNL     1      24.846   4.241  50.534  1.00  0.00     0.074 C 
ENDROOT
BRANCH   2   3
HETATM    3  N1  UNL     1      25.432   5.507  50.662  1.00  0.00    -0.298 NA
HETATM    4  H8  UNL     1      24.858   6.382  50.538  1.00  0.00     0.124 HD
HETATM    5  H9  UNL     1      24.621   6.169  50.487  1.00  0.00     0.124 HD
ENDBRANCH   2   3
BRANCH   2   6
HETATM    6  C8  UNL     1      25.012   3.256  51.595  1.00  0.00     0.262 C 
HETATM    7  O1  UNL     1      24.184   2.709  52.366  1.00  0.00    -0.267 OA
HETATM    8  N2  UNL     1      26.320   2.761  51.884  1.00  0.00    -0.351 N 
HETATM    9  H10 UNL     1      27.119   3.147  51.298  1.00  0.00     0.163 HD
BRANCH   8  10
HETATM   10  C9  UNL     1      26.756   1.793  52.875  1.00  0.00     0.084 C 
HETATM   11  C10 UNL     1      26.841   0.434  52.214  1.00  0.00     0.025 C 
HETATM   12  C11 UNL     1      27.586  -0.561  53.042  1.00  0.00     0.002 C 
HETATM   13  C12 UNL     1      28.965  -0.080  53.435  1.00  0.00     0.000 C 
HETATM   14  C13 UNL     1      28.833   1.226  54.190  1.00  0.00     0.002 C 
HETATM   15  C14 UNL     1      28.139   2.200  53.291  1.00  0.00     0.025 C 
ENDBRANCH   8  10
ENDBRANCH   2   6
BRANCH   1  16
HETATM   16  C5  UNL     1      23.363   2.828  48.882  1.00  0.00     0.002 C 
HETATM   17  C4  UNL     1      22.268   2.186  49.178  1.00  0.00     0.000 C 
BRANCH  17  18
HETATM   18  C3  UNL     1      21.479   2.482  50.338  1.00  0.00     0.005 C 
HETATM   19  C2  UNL     1      21.041   1.589  51.213  1.00  0.00    -0.056 C 
HETATM   20  C1  UNL     1      21.382   0.140  50.997  1.00  0.00     0.046 C 
BRANCH  19  21
HETATM   21  C15 UNL     1      20.236   1.963  52.384  1.00  0.00     0.142 C 
HETATM   22  C16 UNL     1      20.571   1.152  53.614  1.00  0.00     0.044 C 
BRANCH  21  23
HETATM   23  O2  UNL     1      20.350   3.295  52.728  1.00  0.00    -0.392 OA
HETATM   24  H26 UNL     1      20.724   3.866  52.004  1.00  0.00     0.210 HD
ENDBRANCH  21  23
ENDBRANCH  19  21
ENDBRANCH  17  18
ENDBRANCH   1  16
TORSDOF 7
ENDMDL
MODEL 9
REMARK VINA RESULT:      -6.3      4.737      7.055
REMARK  7 active torsions:
REMARK  status: ('A' for Active; 'I' for Inactive)
REMARK    1  A    between atoms: C2_2  and  C15_18 
REMARK    2  A    between atoms: C3_3  and  C4_4 
REMARK    3  A    between atoms: C5_5  and  C6_6 
REMARK    4  A    between atoms: C7_7  and  N1_8 
REMARK    5  A    between atoms: C7_7  and  C8_9 
REMARK       I    between atoms: C8_9  and  N2_11 
REMARK    6  A    between atoms: N2_11  and  C9_12 
REMARK    7  A    between atoms: C15_18  and  O2_20 
ROOT
HETATM    1  C6  UNL     1      25.871   6.496  49.752  1.00  0.00     0.029 C 
HETATM    2  C7  UNL     1      24.999   6.140  50.679  1.00  0.00     0.074 C 
ENDROOT
BRANCH   2   3
HETATM    3  N1  UNL     1      24.493   7.065  51.602  1.00  0.00    -0.298 NA
HETATM    4  H8  UNL     1      24.745   7.001  52.623  1.00  0.00     0.124 HD
HETATM    5  H9  UNL     1      24.916   6.746  52.522  1.00  0.00     0.124 HD
ENDBRANCH   2   3
BRANCH   2   6
HETATM    6  C8  UNL     1      24.552   4.754  50.723  1.00  0.00     0.262 C 
HETATM    7  O1  UNL     1      23.503   4.199  50.309  1.00  0.00    -0.267 OA
HETATM    8  N2  UNL     1      25.395   3.772  51.329  1.00  0.00    -0.351 N 
HETATM    9  H10 UNL     1      26.322   4.113  51.723  1.00  0.00     0.163 HD
BRANCH   8  10
HETATM   10  C9  UNL     1      25.191   2.345  51.504  1.00  0.00     0.084 C 
HETATM   11  C10 UNL     1      26.537   1.656  51.440  1.00  0.00     0.025 C 
HETATM   12  C11 UNL     1      26.484   0.246  51.931  1.00  0.00     0.002 C 
HETATM   13  C12 UNL     1      25.901   0.133  53.322  1.00  0.00     0.000 C 
HETATM   14  C13 UNL     1      24.511   0.733  53.322  1.00  0.00     0.002 C 
HETATM   15  C14 UNL     1      24.634   2.160  52.885  1.00  0.00     0.025 C 
ENDBRANCH   8  10
ENDBRANCH   2   6
BRANCH   1  16
HETATM   16  C5  UNL     1      26.652   5.979  48.638  1.00  0.00     0.002 C 
HETATM   17  C4  UNL     1      27.763   6.308  48.041  1.00  0.00     0.000 C 
BRANCH  17  18
HETATM   18  C3  UNL     1      28.561   7.431  48.440  1.00  0.00     0.005 C 
HETATM   19  C2  UNL     1      29.873   7.412  48.617  1.00  0.00    -0.056 C 
HETATM   20  C1  UNL     1      30.614   6.122  48.389  1.00  0.00     0.046 C 
BRANCH  19  21
HETATM   21  C15 UNL     1      30.630   8.604  49.026  1.00  0.00     0.142 C 
HETATM   22  C16 UNL     1      29.742   9.762  49.417  1.00  0.00     0.044 C 
BRANCH  21  23
HETATM   23  O2  UNL     1      31.492   8.374  50.079  1.00  0.00    -0.392 OA
HETATM   24  H26 UNL     1      31.224   8.829  50.923  1.00  0.00     0.210 HD
ENDBRANCH  21  23
ENDBRANCH  19  21
ENDBRANCH  17  18
ENDBRANCH   1  16
TORSDOF 7
ENDMDL
