MODEL 1
REMARK VINA RESULT:      -8.3      0.000      0.000
REMARK  5 active torsions:
REMARK  status: ('A' for Active; 'I' for Inactive)
REMARK    1  A    between atoms: C3_4  and  C4_5 
REMARK    2  A    between atoms: C5_6  and  C6_7 
REMARK    3  A    between atoms: C7_8  and  C9_11 
REMARK    4  A    between atoms: C9_11  and  N2_12 
REMARK    5  A    between atoms: N2_12  and  C10_13 
ROOT
HETATM    1  C6  UNL     1      26.072   1.001  51.578  1.00  0.00     0.088 C 
HETATM    2  C7  UNL     1      26.805   0.829  52.666  1.00  0.00     0.089 C 
HETATM    3  C8  UNL     1      27.817   1.817  52.909  1.00  0.00     0.101 C 
HETATM    4  N1  UNL     1      28.654   2.620  53.111  1.00  0.00    -0.191 NA
ENDROOT
BRANCH   2   5
HETATM    5  C9  UNL     1      26.655  -0.301  53.640  1.00  0.00     0.193 C 
HETATM    6  C16 UNL     1      26.440  -1.513  52.763  1.00  0.00     0.037 C 
HETATM    7  C17 UNL     1      27.635  -2.120  52.620  1.00  0.00     0.000 C 
HETATM    8  C18 UNL     1      28.632  -1.303  53.403  1.00  0.00     0.199 C 
HETATM    9  O1  UNL     1      27.845  -0.563  54.285  1.00  0.00    -0.348 OA
BRANCH   5  10
HETATM   10  N2  UNL     1      25.523  -0.137  54.493  1.00  0.00    -0.351 N 
HETATM   11  H6  UNL     1      25.690   0.367  55.402  1.00  0.00     0.163 HD
BRANCH  10  12
HETATM   12  C10 UNL     1      24.172  -0.543  54.335  1.00  0.00     0.030 A 
HETATM   13  C11 UNL     1      23.335  -0.174  53.277  1.00  0.00     0.029 A 
HETATM   14  C12 UNL     1      22.055  -0.647  53.267  1.00  0.00     0.002 A 
HETATM   15  C13 UNL     1      21.540  -1.471  54.242  1.00  0.00     0.000 A 
HETATM   16  C14 UNL     1      22.368  -1.833  55.285  1.00  0.00     0.002 A 
HETATM   17  C15 UNL     1      23.658  -1.378  55.329  1.00  0.00     0.029 A 
ENDBRANCH  10  12
ENDBRANCH   5  10
ENDBRANCH   2   5
BRANCH   1  18
HETATM   18  C5  UNL     1      26.409   2.162  50.805  1.00  0.00    -0.072 C 
HETATM   19  C4  UNL     1      26.682   3.149  50.131  1.00  0.00    -0.071 C 
BRANCH  19  20
HETATM   20  C3  UNL     1      26.984   4.300  49.327  1.00  0.00     0.102 C 
HETATM   21  C2  UNL     1      25.986   5.099  48.981  1.00  0.00     0.098 C 
HETATM   22  C1  UNL     1      24.589   4.829  49.405  1.00  0.00     0.082 C 
HETATM   23  F1  UNL     1      26.195   6.206  48.224  1.00  0.00    -0.211 F 
ENDBRANCH  19  20
ENDBRANCH   1  18
TORSDOF 5
ENDMDL
MODEL 2
REMARK VINA RESULT:      -8.2      1.460      1.803
REMARK  5 active torsions:
REMARK  status: ('A' for Active; 'I' for Inactive)
REMARK    1  A    between atoms: C3_4  and  C4_5 
REMARK    2  A    between atoms: C5_6  and  C6_7 
REMARK    3  A    between atoms: C7_8  and  C9_11 
REMARK    4  A    between atoms: C9_11  and  N2_12 
REMARK    5  A    between atoms: N2_12  and  C10_13 
ROOT
HETATM    1  C6  UNL     1      26.467   1.441  51.292  1.00  0.00     0.088 C 
HETATM    2  C7  UNL     1      25.884   1.268  52.467  1.00  0.00     0.089 C 
HETATM    3  C8  UNL     1      25.134   2.382  52.972  1.00  0.00     0.101 C 
HETATM    4  N1  UNL     1      24.523   3.293  53.395  1.00  0.00    -0.191 NA
ENDROOT
BRANCH   2   5
HETATM    5  C9  UNL     1      25.952   0.014  53.289  1.00  0.00     0.193 C 
HETATM    6  C16 UNL     1      27.164  -0.710  52.751  1.00  0.00     0.037 C 
HETATM    7  C17 UNL     1      28.200  -0.414  53.562  1.00  0.00     0.000 C 
HETATM    8  C18 UNL     1      27.662   0.504  54.631  1.00  0.00     0.199 C 
HETATM    9  O1  UNL     1      26.284   0.295  54.596  1.00  0.00    -0.348 OA
BRANCH   5  10
HETATM   10  N2  UNL     1      24.802  -0.812  53.115  1.00  0.00    -0.351 N 
HETATM   11  H6  UNL     1      24.973  -1.782  52.743  1.00  0.00     0.163 HD
BRANCH  10  12
HETATM   12  C10 UNL     1      23.427  -0.556  53.358  1.00  0.00     0.030 A 
HETATM   13  C11 UNL     1      22.540   0.031  52.451  1.00  0.00     0.029 A 
HETATM   14  C12 UNL     1      21.243   0.213  52.836  1.00  0.00     0.002 A 
HETATM   15  C13 UNL     1      20.757  -0.152  54.071  1.00  0.00     0.000 A 
HETATM   16  C14 UNL     1      21.634  -0.731  54.964  1.00  0.00     0.002 A 
HETATM   17  C15 UNL     1      22.943  -0.929  54.614  1.00  0.00     0.029 A 
ENDBRANCH  10  12
ENDBRANCH   5  10
ENDBRANCH   2   5
BRANCH   1  18
HETATM   18  C5  UNL     1      26.254   2.732  50.702  1.00  0.00    -0.072 C 
HETATM   19  C4  UNL     1      26.053   3.830  50.193  1.00  0.00    -0.071 C 
BRANCH  19  20
HETATM   20  C3  UNL     1      25.795   5.108  49.593  1.00  0.00     0.102 C 
HETATM   21  C2  UNL     1      26.725   5.626  48.804  1.00  0.00     0.098 C 
HETATM   22  C1  UNL     1      28.002   4.918  48.537  1.00  0.00     0.082 C 
HETATM   23  F1  UNL     1      26.552   6.829  48.201  1.00  0.00    -0.211 F 
ENDBRANCH  19  20
ENDBRANCH   1  18
TORSDOF 5
ENDMDL
MODEL 3
REMARK VINA RESULT:      -7.7      2.113      3.019
REMARK  5 active torsions:
REMARK  status: ('A' for Active; 'I' for Inactive)
REMARK    1  A    between atoms: C3_4  and  C4_5 
REMARK    2  A    between atoms: C5_6  and  C6_7 
REMARK    3  A    between atoms: C7_8  and  C9_11 
REMARK    4  A    between atoms: C9_11  and  N2_12 
REMARK    5  A    between atoms: N2_12  and  C10_13 
ROOT
HETATM    1  C6  UNL     1      26.431   2.770  50.440  1.00  0.00     0.088 C 
HETATM    2  C7  UNL     1      25.462   2.724  51.338  1.00  0.00     0.089 C 
HETATM    3  C8  UNL     1      24.639   3.894  51.442  1.00  0.00     0.101 C 
HETATM    4  N1  UNL     1      23.964   4.853  51.537  1.00  0.00    -0.191 NA
ENDROOT
BRANCH   2   5
HETATM    5  C9  UNL     1      25.171   1.558  52.237  1.00  0.00     0.193 C 
HETATM    6  C16 UNL     1      26.262   0.565  51.912  1.00  0.00     0.037 C 
HETATM    7  C17 UNL     1      27.232   0.720  52.835  1.00  0.00     0.000 C 
HETATM    8  C18 UNL     1      26.774   1.816  53.763  1.00  0.00     0.199 C 
HETATM    9  O1  UNL     1      25.396   1.881  53.558  1.00  0.00    -0.348 OA
BRANCH   5  10
HETATM   10  N2  UNL     1      23.903   0.963  51.962  1.00  0.00    -0.351 N 
HETATM   11  H6  UNL     1      23.605   0.941  50.953  1.00  0.00     0.163 HD
BRANCH  10  12
HETATM   12  C10 UNL     1      22.941   0.381  52.828  1.00  0.00     0.030 A 
HETATM   13  C11 UNL     1      23.107  -0.813  53.537  1.00  0.00     0.029 A 
HETATM   14  C12 UNL     1      22.085  -1.245  54.331  1.00  0.00     0.002 A 
HETATM   15  C13 UNL     1      20.895  -0.569  54.474  1.00  0.00     0.000 A 
HETATM   16  C14 UNL     1      20.733   0.609  53.774  1.00  0.00     0.002 A 
HETATM   17  C15 UNL     1      21.737   1.074  52.967  1.00  0.00     0.029 A 
ENDBRANCH  10  12
ENDBRANCH   5  10
ENDBRANCH   2   5
BRANCH   1  18
HETATM   18  C5  UNL     1      26.506   3.998  49.701  1.00  0.00    -0.072 C 
HETATM   19  C4  UNL     1      26.591   5.047  49.073  1.00  0.00    -0.071 C 
BRANCH  19  20
HETATM   20  C3  UNL     1      26.713   6.276  48.340  1.00  0.00     0.102 C 
HETATM   21  C2  UNL     1      27.919   6.644  47.935  1.00  0.00     0.098 C 
HETATM   22  C1  UNL     1      29.121   5.822  48.221  1.00  0.00     0.082 C 
HETATM   23  F1  UNL     1      28.113   7.791  47.236  1.00  0.00    -0.211 F 
ENDBRANCH  19  20
ENDBRANCH   1  18
TORSDOF 5
ENDMDL
MODEL 4
REMARK VINA RESULT:      -7.6      3.211      5.110
REMARK  5 active torsions:
REMARK  status: ('A' for Active; 'I' for Inactive)
REMARK    1  A    between atoms: C3_4  and  C4_5 
REMARK    2  A    between atoms: C5_6  and  C6_7 
REMARK    3  A    between atoms: C7_8  and  C9_11 
REMARK    4  A    between atoms: C9_11  and  N2_12 
REMARK    5  A    between atoms: N2_12  and  C10_13 
ROOT
HETATM    1  C6  UNL     1      25.273  -0.005  52.041  1.00  0.00     0.088 C 
HETATM    2  C7  UNL     1      24.948   1.114  52.666  1.00  0.00     0.089 C 
HETATM    3  C8  UNL     1      25.864   1.567  53.673  1.00  0.00     0.101 C 
HETATM    4  N1  UNL     1      26.607   1.940  54.505  1.00  0.00    -0.191 NA
ENDROOT
BRANCH   2   5
HETATM    5  C9  UNL     1      23.715   1.925  52.399  1.00  0.00     0.193 C 
HETATM    6  C16 UNL     1      24.186   3.356  52.516  1.00  0.00     0.037 C 
HETATM    7  C17 UNL     1      24.447   3.795  51.268  1.00  0.00     0.000 C 
HETATM    8  C18 UNL     1      24.146   2.648  50.336  1.00  0.00     0.199 C 
HETATM    9  O1  UNL     1      23.319   1.811  51.084  1.00  0.00    -0.348 OA
BRANCH   5  10
HETATM   10  N2  UNL     1      22.691   1.693  53.366  1.00  0.00    -0.351 N 
HETATM   11  H6  UNL     1      22.586   2.419  54.121  1.00  0.00     0.163 HD
BRANCH  10  12
HETATM   12  C10 UNL     1      21.764   0.627  53.501  1.00  0.00     0.030 A 
HETATM   13  C11 UNL     1      20.499   0.575  52.907  1.00  0.00     0.029 A 
HETATM   14  C12 UNL     1      19.719  -0.522  53.134  1.00  0.00     0.002 A 
HETATM   15  C13 UNL     1      20.109  -1.584  53.918  1.00  0.00     0.000 A 
HETATM   16  C14 UNL     1      21.357  -1.530  54.503  1.00  0.00     0.002 A 
HETATM   17  C15 UNL     1      22.168  -0.446  54.298  1.00  0.00     0.029 A 
ENDBRANCH  10  12
ENDBRANCH   5  10
ENDBRANCH   2   5
BRANCH   1  18
HETATM   18  C5  UNL     1      26.507  -0.597  52.476  1.00  0.00    -0.072 C 
HETATM   19  C4  UNL     1      27.551  -1.109  52.864  1.00  0.00    -0.071 C 
BRANCH  19  20
HETATM   20  C3  UNL     1      28.763  -1.715  53.339  1.00  0.00     0.102 C 
HETATM   21  C2  UNL     1      29.754  -0.919  53.714  1.00  0.00     0.098 C 
HETATM   22  C1  UNL     1      29.631   0.559  53.652  1.00  0.00     0.082 C 
HETATM   23  F1  UNL     1      30.928  -1.419  54.174  1.00  0.00    -0.211 F 
ENDBRANCH  19  20
ENDBRANCH   1  18
TORSDOF 5
ENDMDL
MODEL 5
REMARK VINA RESULT:      -7.6      2.859      4.378
REMARK  5 active torsions:
REMARK  status: ('A' for Active; 'I' for Inactive)
REMARK    1  A    between atoms: C3_4  and  C4_5 
REMARK    2  A    between atoms: C5_6  and  C6_7 
REMARK    3  A    between atoms: C7_8  and  C9_11 
REMARK    4  A    between atoms: C9_11  and  N2_12 
REMARK    5  A    between atoms: N2_12  and  C10_13 
ROOT
HETATM    1  C6  UNL     1      25.044   4.291  49.576  1.00  0.00     0.088 C 
HETATM    2  C7  UNL     1      24.991   3.467  50.610  1.00  0.00     0.089 C 
HETATM    3  C8  UNL     1      26.251   3.000  51.112  1.00  0.00     0.101 C 
HETATM    4  N1  UNL     1      27.280   2.606  51.525  1.00  0.00    -0.191 NA
ENDROOT
BRANCH   2   5
HETATM    5  C9  UNL     1      23.732   3.000  51.279  1.00  0.00     0.193 C 
HETATM    6  C16 UNL     1      23.839   3.547  52.683  1.00  0.00     0.037 C 
HETATM    7  C17 UNL     1      23.138   4.699  52.718  1.00  0.00     0.000 C 
HETATM    8  C18 UNL     1      22.574   4.903  51.334  1.00  0.00     0.199 C 
HETATM    9  O1  UNL     1      22.626   3.635  50.756  1.00  0.00    -0.348 OA
BRANCH   5  10
HETATM   10  N2  UNL     1      23.645   1.577  51.340  1.00  0.00    -0.351 N 
HETATM   11  H6  UNL     1      23.953   1.051  50.481  1.00  0.00     0.163 HD
BRANCH  10  12
HETATM   12  C10 UNL     1      23.206   0.715  52.378  1.00  0.00     0.030 A 
HETATM   13  C11 UNL     1      24.038   0.006  53.250  1.00  0.00     0.029 A 
HETATM   14  C12 UNL     1      23.462  -0.786  54.200  1.00  0.00     0.002 A 
HETATM   15  C13 UNL     1      22.101  -0.926  54.349  1.00  0.00     0.000 A 
HETATM   16  C14 UNL     1      21.281  -0.227  53.488  1.00  0.00     0.002 A 
HETATM   17  C15 UNL     1      21.823   0.578  52.522  1.00  0.00     0.029 A 
ENDBRANCH  10  12
ENDBRANCH   5  10
ENDBRANCH   2   5
BRANCH   1  18
HETATM   18  C5  UNL     1      26.371   4.589  49.116  1.00  0.00    -0.072 C 
HETATM   19  C4  UNL     1      27.501   4.864  48.728  1.00  0.00    -0.071 C 
BRANCH  19  20
HETATM   20  C3  UNL     1      28.821   5.207  48.280  1.00  0.00     0.102 C 
HETATM   21  C2  UNL     1      29.010   6.409  47.757  1.00  0.00     0.098 C 
HETATM   22  C1  UNL     1      27.900   7.386  47.629  1.00  0.00     0.082 C 
HETATM   23  F1  UNL     1      30.230   6.805  47.314  1.00  0.00    -0.211 F 
ENDBRANCH  19  20
ENDBRANCH   1  18
TORSDOF 5
ENDMDL
MODEL 6
REMARK VINA RESULT:      -7.5      3.663      6.664
REMARK  5 active torsions:
REMARK  status: ('A' for Active; 'I' for Inactive)
REMARK    1  A    between atoms: C3_4  and  C4_5 
REMARK    2  A    between atoms: C5_6  and  C6_7 
REMARK    3  A    between atoms: C7_8  and  C9_11 
REMARK    4  A    between atoms: C9_11  and  N2_12 
REMARK    5  A    between atoms: N2_12  and  C10_13 
ROOT
HETATM    1  C6  UNL     1      24.592   0.705  52.772  1.00  0.00     0.088 C 
HETATM    2  C7  UNL     1      24.579   1.802  52.033  1.00  0.00     0.089 C 
HETATM    3  C8  UNL     1      25.839   2.204  51.475  1.00  0.00     0.101 C 
HETATM    4  N1  UNL     1      26.869   2.543  51.020  1.00  0.00    -0.191 NA
ENDROOT
BRANCH   2   5
HETATM    5  C9  UNL     1      23.366   2.636  51.745  1.00  0.00     0.193 C 
HETATM    6  C16 UNL     1      23.300   2.674  50.235  1.00  0.00     0.037 C 
HETATM    7  C17 UNL     1      22.431   1.717  49.849  1.00  0.00     0.000 C 
HETATM    8  C18 UNL     1      21.931   1.054  51.108  1.00  0.00     0.199 C 
HETATM    9  O1  UNL     1      22.212   1.979  52.113  1.00  0.00    -0.348 OA
BRANCH   5  10
HETATM   10  N2  UNL     1      23.493   3.969  52.238  1.00  0.00    -0.351 N 
HETATM   11  H6  UNL     1      23.942   4.078  53.184  1.00  0.00     0.163 HD
BRANCH  10  12
HETATM   12  C10 UNL     1      23.112   5.212  51.669  1.00  0.00     0.030 A 
HETATM   13  C11 UNL     1      21.799   5.613  51.406  1.00  0.00     0.029 A 
HETATM   14  C12 UNL     1      21.593   6.844  50.852  1.00  0.00     0.002 A 
HETATM   15  C13 UNL     1      22.611   7.716  50.538  1.00  0.00     0.000 A 
HETATM   16  C14 UNL     1      23.906   7.318  50.798  1.00  0.00     0.002 A 
HETATM   17  C15 UNL     1      24.151   6.091  51.353  1.00  0.00     0.029 A 
ENDBRANCH  10  12
ENDBRANCH   5  10
ENDBRANCH   2   5
BRANCH   1  18
HETATM   18  C5  UNL     1      25.879   0.083  52.900  1.00  0.00    -0.072 C 
HETATM   19  C4  UNL     1      26.970  -0.465  53.017  1.00  0.00    -0.071 C 
BRANCH  19  20
HETATM   20  C3  UNL     1      28.236  -1.126  53.161  1.00  0.00     0.102 C 
HETATM   21  C2  UNL     1      29.219  -0.469  53.759  1.00  0.00     0.098 C 
HETATM   22  C1  UNL     1      29.033   0.912  54.272  1.00  0.00     0.082 C 
HETATM   23  F1  UNL     1      30.442  -1.029  53.933  1.00  0.00    -0.211 F 
ENDBRANCH  19  20
ENDBRANCH   1  18
TORSDOF 5
ENDMDL
MODEL 7
REMARK VINA RESULT:      -7.3      3.106      5.356
REMARK  5 active torsions:
REMARK  status: ('A' for Active; 'I' for Inactive)
REMARK    1  A    between atoms: C3_4  and  C4_5 
REMARK    2  A    between atoms: C5_6  and  C6_7 
REMARK    3  A    between atoms: C7_8  and  C9_11 
REMARK    4  A    between atoms: C9_11  and  N2_12 
REMARK    5  A    between atoms: N2_12  and  C10_13 
ROOT
HETATM    1  C6  UNL     1      26.629   3.982  49.259  1.00  0.00     0.088 C 
HETATM    2  C7  UNL     1      25.632   4.462  49.983  1.00  0.00     0.089 C 
HETATM    3  C8  UNL     1      25.564   5.891  50.098  1.00  0.00     0.101 C 
HETATM    4  N1  UNL     1      25.505   7.061  50.202  1.00  0.00    -0.191 NA
ENDROOT
BRANCH   2   5
HETATM    5  C9  UNL     1      24.592   3.635  50.678  1.00  0.00     0.193 C 
HETATM    6  C16 UNL     1      23.478   4.615  50.966  1.00  0.00     0.037 C 
HETATM    7  C17 UNL     1      22.568   4.486  49.979  1.00  0.00     0.000 C 
HETATM    8  C18 UNL     1      23.089   3.423  49.046  1.00  0.00     0.199 C 
HETATM    9  O1  UNL     1      24.021   2.725  49.814  1.00  0.00    -0.348 OA
BRANCH   5  10
HETATM   10  N2  UNL     1      25.063   3.092  51.911  1.00  0.00    -0.351 N 
HETATM   11  H6  UNL     1      25.276   3.783  52.676  1.00  0.00     0.163 HD
BRANCH  10  12
HETATM   12  C10 UNL     1      25.306   1.750  52.304  1.00  0.00     0.030 A 
HETATM   13  C11 UNL     1      24.475   0.984  53.127  1.00  0.00     0.029 A 
HETATM   14  C12 UNL     1      24.848  -0.296  53.417  1.00  0.00     0.002 A 
HETATM   15  C13 UNL     1      26.002  -0.878  52.942  1.00  0.00     0.000 A 
HETATM   16  C14 UNL     1      26.821  -0.121  52.131  1.00  0.00     0.002 A 
HETATM   17  C15 UNL     1      26.479   1.167  51.818  1.00  0.00     0.029 A 
ENDBRANCH  10  12
ENDBRANCH   5  10
ENDBRANCH   2   5
BRANCH   1  18
HETATM   18  C5  UNL     1      27.494   4.979  48.695  1.00  0.00    -0.072 C 
HETATM   19  C4  UNL     1      28.226   5.826  48.194  1.00  0.00    -0.071 C 
BRANCH  19  20
HETATM   20  C3  UNL     1      29.073   6.814  47.587  1.00  0.00     0.102 C 
HETATM   21  C2  UNL     1      30.360   6.531  47.446  1.00  0.00     0.098 C 
HETATM   22  C1  UNL     1      30.926   5.234  47.896  1.00  0.00     0.082 C 
HETATM   23  F1  UNL     1      31.221   7.413  46.881  1.00  0.00    -0.211 F 
ENDBRANCH  19  20
ENDBRANCH   1  18
TORSDOF 5
ENDMDL
MODEL 8
REMARK VINA RESULT:      -7.1      3.409      5.933
REMARK  5 active torsions:
REMARK  status: ('A' for Active; 'I' for Inactive)
REMARK    1  A    between atoms: C3_4  and  C4_5 
REMARK    2  A    between atoms: C5_6  and  C6_7 
REMARK    3  A    between atoms: C7_8  and  C9_11 
REMARK    4  A    between atoms: C9_11  and  N2_12 
REMARK    5  A    between atoms: N2_12  and  C10_13 
ROOT
HETATM    1  C6  UNL     1      24.555  -0.682  53.178  1.00  0.00     0.088 C 
HETATM    2  C7  UNL     1      23.664   0.289  53.074  1.00  0.00     0.089 C 
HETATM    3  C8  UNL     1      24.175   1.628  53.153  1.00  0.00     0.101 C 
HETATM    4  N1  UNL     1      24.586   2.728  53.224  1.00  0.00    -0.191 NA
ENDROOT
BRANCH   2   5
HETATM    5  C9  UNL     1      22.189   0.093  52.884  1.00  0.00     0.193 C 
HETATM    6  C16 UNL     1      21.986  -1.387  53.111  1.00  0.00     0.037 C 
HETATM    7  C17 UNL     1      21.592  -1.545  54.391  1.00  0.00     0.000 C 
HETATM    8  C18 UNL     1      21.540  -0.167  55.000  1.00  0.00     0.199 C 
HETATM    9  O1  UNL     1      21.473   0.688  53.900  1.00  0.00    -0.348 OA
BRANCH   5  10
HETATM   10  N2  UNL     1      21.763   0.423  51.563  1.00  0.00    -0.351 N 
HETATM   11  H6  UNL     1      21.398  -0.371  50.975  1.00  0.00     0.163 HD
BRANCH  10  12
HETATM   12  C10 UNL     1      21.742   1.665  50.875  1.00  0.00     0.030 A 
HETATM   13  C11 UNL     1      20.999   2.788  51.252  1.00  0.00     0.029 A 
HETATM   14  C12 UNL     1      21.084   3.912  50.484  1.00  0.00     0.002 A 
HETATM   15  C13 UNL     1      21.864   4.003  49.353  1.00  0.00     0.000 A 
HETATM   16  C14 UNL     1      22.596   2.895  48.982  1.00  0.00     0.002 A 
HETATM   17  C15 UNL     1      22.536   1.748  49.729  1.00  0.00     0.029 A 
ENDBRANCH  10  12
ENDBRANCH   5  10
ENDBRANCH   2   5
BRANCH   1  18
HETATM   18  C5  UNL     1      25.908  -0.238  53.356  1.00  0.00    -0.072 C 
HETATM   19  C4  UNL     1      27.070   0.130  53.491  1.00  0.00    -0.071 C 
BRANCH  19  20
HETATM   20  C3  UNL     1      28.437   0.549  53.630  1.00  0.00     0.102 C 
HETATM   21  C2  UNL     1      29.385  -0.369  53.518  1.00  0.00     0.098 C 
HETATM   22  C1  UNL     1      29.063  -1.794  53.255  1.00  0.00     0.082 C 
HETATM   23  F1  UNL     1      30.698  -0.049  53.636  1.00  0.00    -0.211 F 
ENDBRANCH  19  20
ENDBRANCH   1  18
TORSDOF 5
ENDMDL
MODEL 9
REMARK VINA RESULT:      -7.1      4.338      7.914
REMARK  5 active torsions:
REMARK  status: ('A' for Active; 'I' for Inactive)
REMARK    1  A    between atoms: C3_4  and  C4_5 
REMARK    2  A    between atoms: C5_6  and  C6_7 
REMARK    3  A    between atoms: C7_8  and  C9_11 
REMARK    4  A    between atoms: C9_11  and  N2_12 
REMARK    5  A    between atoms: N2_12  and  C10_13 
ROOT
HETATM    1  C6  UNL     1      21.861   0.665  51.095  1.00  0.00     0.088 C 
HETATM    2  C7  UNL     1      22.234   1.897  51.398  1.00  0.00     0.089 C 
HETATM    3  C8  UNL     1      21.215   2.753  51.934  1.00  0.00     0.101 C 
HETATM    4  N1  UNL     1      20.382   3.462  52.367  1.00  0.00    -0.191 NA
ENDROOT
BRANCH   2   5
HETATM    5  C9  UNL     1      23.618   2.449  51.225  1.00  0.00     0.193 C 
HETATM    6  C16 UNL     1      23.768   3.425  52.369  1.00  0.00     0.037 C 
HETATM    7  C17 UNL     1      24.414   2.781  53.362  1.00  0.00     0.000 C 
HETATM    8  C18 UNL     1      24.685   1.383  52.866  1.00  0.00     0.199 C 
HETATM    9  O1  UNL     1      24.572   1.487  51.481  1.00  0.00    -0.348 OA
BRANCH   5  10
HETATM   10  N2  UNL     1      23.774   3.150  49.992  1.00  0.00    -0.351 N 
HETATM   11  H6  UNL     1      23.020   3.004  49.272  1.00  0.00     0.163 HD
BRANCH  10  12
HETATM   12  C10 UNL     1      24.790   4.034  49.546  1.00  0.00     0.030 A 
HETATM   13  C11 UNL     1      24.598   5.369  49.177  1.00  0.00     0.029 A 
HETATM   14  C12 UNL     1      25.680   6.092  48.767  1.00  0.00     0.002 A 
HETATM   15  C13 UNL     1      26.955   5.579  48.696  1.00  0.00     0.000 A 
HETATM   16  C14 UNL     1      27.143   4.262  49.060  1.00  0.00     0.002 A 
HETATM   17  C15 UNL     1      26.081   3.505  49.477  1.00  0.00     0.029 A 
ENDBRANCH  10  12
ENDBRANCH   5  10
ENDBRANCH   2   5
BRANCH   1  18
HETATM   18  C5  UNL     1      20.479   0.376  51.352  1.00  0.00    -0.072 C 
HETATM   19  C4  UNL     1      19.293   0.144  51.560  1.00  0.00    -0.071 C 
BRANCH  19  20
HETATM   20  C3  UNL     1      17.898  -0.109  51.789  1.00  0.00     0.102 C 
HETATM   21  C2  UNL     1      17.569  -0.991  52.720  1.00  0.00     0.098 C 
HETATM   22  C1  UNL     1      18.599  -1.706  53.515  1.00  0.00     0.082 C 
HETATM   23  F1  UNL     1      16.272  -1.282  52.993  1.00  0.00    -0.211 F 
ENDBRANCH  19  20
ENDBRANCH   1  18
TORSDOF 5
ENDMDL
