MODEL 1
REMARK VINA RESULT:      -7.5      0.000      0.000
REMARK  1 active torsions:
REMARK  status: ('A' for Active; 'I' for Inactive)
REMARK    1  A    between atoms: C7_10  and  N2_11 
ROOT
HETATM    1  O1  UNL     1      26.412  -0.217  53.669  1.00  0.00    -0.268 OA
HETATM    2  C1  UNL     1      25.183  -0.314  53.846  1.00  0.00     0.244 C 
HETATM    3  C2  UNL     1      24.296  -1.072  54.676  1.00  0.00     0.075 C 
HETATM    4  C3  UNL     1      23.074  -1.254  55.031  1.00  0.00     0.058 C 
HETATM    5  C4  UNL     1      21.661  -0.971  54.999  1.00  0.00     0.372 A 
HETATM    6  O2  UNL     1      22.125  -0.089  54.235  1.00  0.00    -0.146 OA
HETATM    7  N1  UNL     1      20.669  -0.118  54.462  1.00  0.00     0.090 N 
HETATM    8  C5  UNL     1      20.368   1.015  53.620  1.00  0.00     0.279 C 
HETATM    9  C6  UNL     1      20.778   0.845  52.185  1.00  0.00     0.078 C 
HETATM   10  C7  UNL     1      20.443   2.167  51.477  1.00  0.00     0.192 C 
HETATM   11  N4  UNL     1      21.235   3.272  52.068  1.00  0.00    -0.354 N 
HETATM   12  C11 UNL     1      22.661   3.262  52.041  1.00  0.00     0.137 C 
HETATM   13  N5  UNL     1      22.632   3.469  50.768  1.00  0.00    -0.074 NA
HETATM   14  F1  UNL     1      23.730   3.578  50.029  1.00  0.00    -0.073 F 
HETATM   15  C12 UNL     1      24.010   3.154  52.711  1.00  0.00     0.109 C 
HETATM   16  C13 UNL     1      25.051   2.863  51.688  1.00  0.00    -0.002 C 
HETATM   17  C14 UNL     1      25.540   1.611  51.850  1.00  0.00     0.087 C 
HETATM   18  N6  UNL     1      25.169   0.666  52.829  1.00  0.00    -0.334 N 
HETATM   19  H3  UNL     1      19.832  -0.590  54.936  1.00  0.00     0.322 HD
HETATM   20  H12 UNL     1      20.848   4.132  52.542  1.00  0.00     0.163 HD
HETATM   21  H17 UNL     1      24.136   0.719  52.706  1.00  0.00     0.168 HD
ENDROOT
BRANCH  10  22
HETATM   22  N2  UNL     1      20.798   2.024  50.080  1.00  0.00    -0.328 N 
HETATM   23  C8  UNL     1      20.555   2.832  49.027  1.00  0.00     0.113 A 
HETATM   24  C9  UNL     1      21.076   2.305  47.873  1.00  0.00     0.135 A 
HETATM   25  N3  UNL     1      21.652   1.134  48.261  1.00  0.00    -0.255 NA
HETATM   26  C10 UNL     1      21.485   0.965  49.588  1.00  0.00     0.210 A 
ENDBRANCH  10  22
TORSDOF 1
ENDMDL
MODEL 2
REMARK VINA RESULT:      -7.3      1.620      2.135
REMARK  1 active torsions:
REMARK  status: ('A' for Active; 'I' for Inactive)
REMARK    1  A    between atoms: C7_10  and  N2_11 
ROOT
HETATM    1  O1  UNL     1      27.546   2.717  51.662  1.00  0.00    -0.268 OA
HETATM    2  C1  UNL     1      26.671   1.942  52.093  1.00  0.00     0.244 C 
HETATM    3  C2  UNL     1      26.620   0.736  52.863  1.00  0.00     0.075 C 
HETATM    4  C3  UNL     1      25.855  -0.124  53.434  1.00  0.00     0.058 C 
HETATM    5  C4  UNL     1      24.575  -0.663  53.821  1.00  0.00     0.372 A 
HETATM    6  O2  UNL     1      24.250   0.406  53.248  1.00  0.00    -0.146 OA
HETATM    7  N1  UNL     1      23.179  -0.442  53.799  1.00  0.00     0.090 N 
HETATM    8  C5  UNL     1      22.092   0.423  53.407  1.00  0.00     0.279 C 
HETATM    9  C6  UNL     1      21.997   0.665  51.927  1.00  0.00     0.078 C 
HETATM   10  C7  UNL     1      20.839   1.653  51.721  1.00  0.00     0.192 C 
HETATM   11  N4  UNL     1      21.146   2.939  52.391  1.00  0.00    -0.354 N 
HETATM   12  C11 UNL     1      22.283   3.716  52.022  1.00  0.00     0.137 C 
HETATM   13  N5  UNL     1      21.711   4.012  50.905  1.00  0.00    -0.074 NA
HETATM   14  F1  UNL     1      22.278   4.786  49.986  1.00  0.00    -0.073 F 
HETATM   15  C12 UNL     1      23.652   4.295  52.293  1.00  0.00     0.109 C 
HETATM   16  C13 UNL     1      24.266   4.738  51.012  1.00  0.00    -0.002 C 
HETATM   17  C14 UNL     1      25.322   3.951  50.693  1.00  0.00     0.087 C 
HETATM   18  N6  UNL     1      25.827   2.857  51.426  1.00  0.00    -0.334 N 
HETATM   19  H3  UNL     1      22.904  -1.345  54.307  1.00  0.00     0.322 HD
HETATM   20  H12 UNL     1      20.586   3.387  53.166  1.00  0.00     0.163 HD
HETATM   21  H17 UNL     1      24.931   2.348  51.574  1.00  0.00     0.168 HD
ENDROOT
BRANCH  10  22
HETATM   22  N2  UNL     1      20.700   1.882  50.297  1.00  0.00    -0.328 N 
HETATM   23  C8  UNL     1      19.743   2.533  49.603  1.00  0.00     0.113 A 
HETATM   24  C9  UNL     1      20.009   2.509  48.258  1.00  0.00     0.135 A 
HETATM   25  N3  UNL     1      21.175   1.814  48.153  1.00  0.00    -0.255 NA
HETATM   26  C10 UNL     1      21.591   1.437  49.378  1.00  0.00     0.210 A 
ENDBRANCH  10  22
TORSDOF 1
ENDMDL
MODEL 3
REMARK VINA RESULT:      -7.2      1.781      4.256
REMARK  1 active torsions:
REMARK  status: ('A' for Active; 'I' for Inactive)
REMARK    1  A    between atoms: C7_10  and  N2_11 
ROOT
HETATM    1  O1  UNL     1      19.076  -0.909  53.458  1.00  0.00    -0.268 OA
HETATM    2  C1  UNL     1      20.295  -0.691  53.587  1.00  0.00     0.244 C 
HETATM    3  C2  UNL     1      21.372  -1.178  54.395  1.00  0.00     0.075 C 
HETATM    4  C3  UNL     1      22.637  -1.129  54.616  1.00  0.00     0.058 C 
HETATM    5  C4  UNL     1      23.979  -0.666  54.362  1.00  0.00     0.372 A 
HETATM    6  O2  UNL     1      23.328  -0.114  53.440  1.00  0.00    -0.146 OA
HETATM    7  N1  UNL     1      24.781   0.125  53.507  1.00  0.00     0.090 N 
HETATM    8  C5  UNL     1      24.842   0.982  52.348  1.00  0.00     0.279 C 
HETATM    9  C6  UNL     1      24.000   2.223  52.452  1.00  0.00     0.078 C 
HETATM   10  C7  UNL     1      24.141   2.958  51.110  1.00  0.00     0.192 C 
HETATM   11  N4  UNL     1      23.608   2.115  50.013  1.00  0.00    -0.354 N 
HETATM   12  C11 UNL     1      22.244   1.696  49.993  1.00  0.00     0.137 C 
HETATM   13  N5  UNL     1      21.883   2.907  49.735  1.00  0.00    -0.074 NA
HETATM   14  F1  UNL     1      20.613   3.263  49.574  1.00  0.00    -0.073 F 
HETATM   15  C12 UNL     1      21.167   0.642  50.100  1.00  0.00     0.109 C 
HETATM   16  C13 UNL     1      19.851   1.298  50.329  1.00  0.00    -0.002 C 
HETATM   17  C14 UNL     1      19.397   1.032  51.576  1.00  0.00     0.087 C 
HETATM   18  N6  UNL     1      20.024   0.248  52.567  1.00  0.00    -0.334 N 
HETATM   19  H3  UNL     1      25.708  -0.049  54.016  1.00  0.00     0.322 HD
HETATM   20  H12 UNL     1      24.150   1.758  49.181  1.00  0.00     0.163 HD
HETATM   21  H17 UNL     1      20.968   0.685  52.530  1.00  0.00     0.168 HD
ENDROOT
BRANCH  10  22
HETATM   22  N2  UNL     1      23.365   4.178  51.189  1.00  0.00    -0.328 N 
HETATM   23  C8  UNL     1      23.349   5.261  50.384  1.00  0.00     0.113 A 
HETATM   24  C9  UNL     1      22.454   6.197  50.835  1.00  0.00     0.135 A 
HETATM   25  N3  UNL     1      21.917   5.642  51.957  1.00  0.00    -0.255 NA
HETATM   26  C10 UNL     1      22.464   4.428  52.170  1.00  0.00     0.210 A 
ENDBRANCH  10  22
TORSDOF 1
ENDMDL
MODEL 4
REMARK VINA RESULT:      -6.9      2.244      4.684
REMARK  1 active torsions:
REMARK  status: ('A' for Active; 'I' for Inactive)
REMARK    1  A    between atoms: C7_10  and  N2_11 
ROOT
HETATM    1  O1  UNL     1      17.538   0.102  50.481  1.00  0.00    -0.268 OA
HETATM    2  C1  UNL     1      18.459   0.078  51.319  1.00  0.00     0.244 C 
HETATM    3  C2  UNL     1      18.735  -0.582  52.560  1.00  0.00     0.075 C 
HETATM    4  C3  UNL     1      19.606  -0.777  53.484  1.00  0.00     0.058 C 
HETATM    5  C4  UNL     1      20.895  -0.603  54.106  1.00  0.00     0.372 A 
HETATM    6  O2  UNL     1      21.032   0.031  53.030  1.00  0.00    -0.146 OA
HETATM    7  N1  UNL     1      22.176  -0.023  53.957  1.00  0.00     0.090 N 
HETATM    8  C5  UNL     1      23.068   0.758  53.134  1.00  0.00     0.279 C 
HETATM    9  C6  UNL     1      22.575   2.145  52.831  1.00  0.00     0.078 C 
HETATM   10  C7  UNL     1      23.615   2.782  51.897  1.00  0.00     0.192 C 
HETATM   11  N4  UNL     1      23.690   2.019  50.628  1.00  0.00    -0.354 N 
HETATM   12  C11 UNL     1      22.554   1.880  49.776  1.00  0.00     0.137 C 
HETATM   13  N5  UNL     1      22.647   3.128  49.461  1.00  0.00    -0.074 NA
HETATM   14  F1  UNL     1      21.811   3.723  48.617  1.00  0.00    -0.073 F 
HETATM   15  C12 UNL     1      21.452   1.068  49.139  1.00  0.00     0.109 C 
HETATM   16  C13 UNL     1      20.405   1.982  48.608  1.00  0.00    -0.002 C 
HETATM   17  C14 UNL     1      19.261   1.863  49.322  1.00  0.00     0.087 C 
HETATM   18  N6  UNL     1      19.022   1.010  50.421  1.00  0.00    -0.334 N 
HETATM   19  H3  UNL     1      22.572  -0.357  54.896  1.00  0.00     0.322 HD
HETATM   20  H12 UNL     1      24.542   1.528  50.246  1.00  0.00     0.163 HD
HETATM   21  H17 UNL     1      19.866   1.247  50.982  1.00  0.00     0.168 HD
ENDROOT
BRANCH  10  22
HETATM   22  N2  UNL     1      23.185   4.135  51.611  1.00  0.00    -0.328 N 
HETATM   23  C8  UNL     1      23.850   5.167  51.051  1.00  0.00     0.113 A 
HETATM   24  C9  UNL     1      23.052   6.280  50.968  1.00  0.00     0.135 A 
HETATM   25  N3  UNL     1      21.863   5.887  51.503  1.00  0.00    -0.255 NA
HETATM   26  C10 UNL     1      21.942   4.598  51.890  1.00  0.00     0.210 A 
ENDBRANCH  10  22
TORSDOF 1
ENDMDL
MODEL 5
REMARK VINA RESULT:      -6.7      2.241      4.473
REMARK  1 active torsions:
REMARK  status: ('A' for Active; 'I' for Inactive)
REMARK    1  A    between atoms: C7_10  and  N2_11 
ROOT
HETATM    1  O1  UNL     1      22.326  -0.646  53.771  1.00  0.00    -0.268 OA
HETATM    2  C1  UNL     1      23.293  -0.022  53.294  1.00  0.00     0.244 C 
HETATM    3  C2  UNL     1      24.716  -0.010  53.447  1.00  0.00     0.075 C 
HETATM    4  C3  UNL     1      25.823   0.484  53.020  1.00  0.00     0.058 C 
HETATM    5  C4  UNL     1      26.620   1.322  52.159  1.00  0.00     0.372 A 
HETATM    6  O2  UNL     1      25.464   1.495  51.700  1.00  0.00    -0.146 OA
HETATM    7  N1  UNL     1      26.582   2.205  51.055  1.00  0.00     0.090 N 
HETATM    8  C5  UNL     1      25.778   2.863  50.053  1.00  0.00     0.279 C 
HETATM    9  C6  UNL     1      24.708   3.759  50.610  1.00  0.00     0.078 C 
HETATM   10  C7  UNL     1      23.926   4.303  49.404  1.00  0.00     0.192 C 
HETATM   11  N4  UNL     1      23.277   3.186  48.676  1.00  0.00    -0.354 N 
HETATM   12  C11 UNL     1      22.317   2.343  49.311  1.00  0.00     0.137 C 
HETATM   13  N5  UNL     1      21.473   3.319  49.315  1.00  0.00    -0.074 NA
HETATM   14  F1  UNL     1      20.247   3.210  49.814  1.00  0.00    -0.073 F 
HETATM   15  C12 UNL     1      21.874   1.019  49.889  1.00  0.00     0.109 C 
HETATM   16  C13 UNL     1      20.688   1.231  50.762  1.00  0.00    -0.002 C 
HETATM   17  C14 UNL     1      21.005   1.008  52.059  1.00  0.00     0.087 C 
HETATM   18  N6  UNL     1      22.258   0.622  52.580  1.00  0.00    -0.334 N 
HETATM   19  H3  UNL     1      27.632   2.420  51.034  1.00  0.00     0.322 HD
HETATM   20  H12 UNL     1      23.448   2.915  47.671  1.00  0.00     0.163 HD
HETATM   21  H17 UNL     1      22.847   1.335  52.102  1.00  0.00     0.168 HD
ENDROOT
BRANCH  10  22
HETATM   22  N2  UNL     1      22.904   5.198  49.906  1.00  0.00    -0.328 N 
HETATM   23  C8  UNL     1      22.106   6.071  49.256  1.00  0.00     0.113 A 
HETATM   24  C9  UNL     1      21.273   6.722  50.130  1.00  0.00     0.135 A 
HETATM   25  N3  UNL     1      21.594   6.211  51.350  1.00  0.00    -0.255 NA
HETATM   26  C10 UNL     1      22.574   5.295  51.217  1.00  0.00     0.210 A 
ENDBRANCH  10  22
TORSDOF 1
ENDMDL
MODEL 6
REMARK VINA RESULT:      -6.7     10.441     12.841
REMARK  1 active torsions:
REMARK  status: ('A' for Active; 'I' for Inactive)
REMARK    1  A    between atoms: C7_10  and  N2_11 
ROOT
HETATM    1  O1  UNL     1      33.795   4.914  42.874  1.00  0.00    -0.268 OA
HETATM    2  C1  UNL     1      33.947   4.732  44.097  1.00  0.00     0.244 C 
HETATM    3  C2  UNL     1      34.663   3.827  44.945  1.00  0.00     0.075 C 
HETATM    4  C3  UNL     1      34.981   3.537  46.156  1.00  0.00     0.058 C 
HETATM    5  C4  UNL     1      34.975   3.749  47.582  1.00  0.00     0.372 A 
HETATM    6  O2  UNL     1      34.337   4.747  47.163  1.00  0.00    -0.146 OA
HETATM    7  N1  UNL     1      34.548   4.615  48.615  1.00  0.00     0.090 N 
HETATM    8  C5  UNL     1      33.860   5.832  48.974  1.00  0.00     0.279 C 
HETATM    9  C6  UNL     1      32.418   5.874  48.553  1.00  0.00     0.078 C 
HETATM   10  C7  UNL     1      31.888   7.259  48.955  1.00  0.00     0.192 C 
HETATM   11  N4  UNL     1      32.626   8.316  48.222  1.00  0.00    -0.354 N 
HETATM   12  C11 UNL     1      32.609   8.382  46.797  1.00  0.00     0.137 C 
HETATM   13  N5  UNL     1      31.375   8.754  46.836  1.00  0.00    -0.074 NA
HETATM   14  F1  UNL     1      30.666   9.016  45.743  1.00  0.00    -0.073 F 
HETATM   15  C12 UNL     1      33.271   8.255  45.445  1.00  0.00     0.109 C 
HETATM   16  C13 UNL     1      32.227   8.155  44.389  1.00  0.00    -0.002 C 
HETATM   17  C14 UNL     1      32.226   6.919  43.836  1.00  0.00     0.087 C 
HETATM   18  N6  UNL     1      33.069   5.835  44.160  1.00  0.00    -0.334 N 
HETATM   19  H3  UNL     1      34.948   4.042  49.428  1.00  0.00     0.322 HD
HETATM   20  H12 UNL     1      33.206   9.085  48.654  1.00  0.00     0.163 HD
HETATM   21  H17 UNL     1      32.946   5.852  45.194  1.00  0.00     0.168 HD
ENDROOT
BRANCH  10  22
HETATM   22  N2  UNL     1      30.488   7.321  48.592  1.00  0.00    -0.328 N 
HETATM   23  C8  UNL     1      29.551   8.253  48.864  1.00  0.00     0.113 A 
HETATM   24  C9  UNL     1      28.340   7.909  48.320  1.00  0.00     0.135 A 
HETATM   25  N3  UNL     1      28.572   6.720  47.697  1.00  0.00    -0.255 NA
HETATM   26  C10 UNL     1      29.863   6.366  47.860  1.00  0.00     0.210 A 
ENDBRANCH  10  22
TORSDOF 1
ENDMDL
MODEL 7
REMARK VINA RESULT:      -6.5      4.303      6.706
REMARK  1 active torsions:
REMARK  status: ('A' for Active; 'I' for Inactive)
REMARK    1  A    between atoms: C7_10  and  N2_11 
ROOT
HETATM    1  O1  UNL     1      23.923   8.930  48.263  1.00  0.00    -0.268 OA
HETATM    2  C1  UNL     1      24.692   7.957  48.381  1.00  0.00     0.244 C 
HETATM    3  C2  UNL     1      26.042   7.634  48.030  1.00  0.00     0.075 C 
HETATM    4  C3  UNL     1      26.979   6.760  48.121  1.00  0.00     0.058 C 
HETATM    5  C4  UNL     1      27.543   5.506  48.557  1.00  0.00     0.372 A 
HETATM    6  O2  UNL     1      26.410   5.490  49.099  1.00  0.00    -0.146 OA
HETATM    7  N1  UNL     1      27.307   4.343  49.326  1.00  0.00     0.090 N 
HETATM    8  C5  UNL     1      26.398   3.614  50.178  1.00  0.00     0.279 C 
HETATM    9  C6  UNL     1      25.089   3.264  49.529  1.00  0.00     0.078 C 
HETATM   10  C7  UNL     1      24.244   2.564  50.605  1.00  0.00     0.192 C 
HETATM   11  N4  UNL     1      23.981   3.495  51.727  1.00  0.00    -0.354 N 
HETATM   12  C11 UNL     1      23.274   4.718  51.528  1.00  0.00     0.137 C 
HETATM   13  N5  UNL     1      22.186   4.051  51.342  1.00  0.00    -0.074 NA
HETATM   14  F1  UNL     1      21.020   4.631  51.080  1.00  0.00    -0.073 F 
HETATM   15  C12 UNL     1      23.203   6.226  51.459  1.00  0.00     0.109 C 
HETATM   16  C13 UNL     1      21.965   6.632  50.741  1.00  0.00    -0.002 C 
HETATM   17  C14 UNL     1      22.269   7.191  49.546  1.00  0.00     0.087 C 
HETATM   18  N6  UNL     1      23.553   7.396  48.999  1.00  0.00    -0.334 N 
HETATM   19  H3  UNL     1      28.250   3.873  49.130  1.00  0.00     0.322 HD
HETATM   20  H12 UNL     1      24.272   3.358  52.732  1.00  0.00     0.163 HD
HETATM   21  H17 UNL     1      23.933   6.439  49.143  1.00  0.00     0.168 HD
ENDROOT
BRANCH  10  22
HETATM   22  N2  UNL     1      22.984   2.183  50.001  1.00  0.00    -0.328 N 
HETATM   23  C8  UNL     1      22.437   2.533  48.818  1.00  0.00     0.113 A 
HETATM   24  C9  UNL     1      21.215   1.934  48.644  1.00  0.00     0.135 A 
HETATM   25  N3  UNL     1      21.032   1.198  49.774  1.00  0.00    -0.255 NA
HETATM   26  C10 UNL     1      22.095   1.347  50.590  1.00  0.00     0.210 A 
ENDBRANCH  10  22
TORSDOF 1
ENDMDL
MODEL 8
REMARK VINA RESULT:      -6.5     10.637     13.231
REMARK  1 active torsions:
REMARK  status: ('A' for Active; 'I' for Inactive)
REMARK    1  A    between atoms: C7_10  and  N2_11 
ROOT
HETATM    1  O1  UNL     1      29.590  10.176  45.526  1.00  0.00    -0.268 OA
HETATM    2  C1  UNL     1      30.753   9.980  45.927  1.00  0.00     0.244 C 
HETATM    3  C2  UNL     1      31.988  10.703  45.967  1.00  0.00     0.075 C 
HETATM    4  C3  UNL     1      33.206  10.697  46.376  1.00  0.00     0.058 C 
HETATM    5  C4  UNL     1      34.341  10.123  47.057  1.00  0.00     0.372 A 
HETATM    6  O2  UNL     1      33.438   9.280  47.287  1.00  0.00    -0.146 OA
HETATM    7  N1  UNL     1      34.781   9.033  47.842  1.00  0.00     0.090 N 
HETATM    8  C5  UNL     1      34.443   7.790  48.495  1.00  0.00     0.279 C 
HETATM    9  C6  UNL     1      33.945   6.720  47.565  1.00  0.00     0.078 C 
HETATM   10  C7  UNL     1      33.575   5.517  48.447  1.00  0.00     0.192 C 
HETATM   11  N4  UNL     1      32.479   5.887  49.374  1.00  0.00    -0.354 N 
HETATM   12  C11 UNL     1      31.208   6.315  48.888  1.00  0.00     0.137 C 
HETATM   13  N5  UNL     1      30.962   5.113  48.489  1.00  0.00    -0.074 NA
HETATM   14  F1  UNL     1      29.831   4.770  47.884  1.00  0.00    -0.073 F 
HETATM   15  C12 UNL     1      30.146   7.367  48.664  1.00  0.00     0.109 C 
HETATM   16  C13 UNL     1      29.197   6.900  47.617  1.00  0.00    -0.002 C 
HETATM   17  C14 UNL     1      29.322   7.646  46.495  1.00  0.00     0.087 C 
HETATM   18  N6  UNL     1      30.200   8.730  46.280  1.00  0.00    -0.334 N 
HETATM   19  H3  UNL     1      35.799   9.356  47.940  1.00  0.00     0.322 HD
HETATM   20  H12 UNL     1      32.522   5.872  50.428  1.00  0.00     0.163 HD
HETATM   21  H17 UNL     1      31.079   8.278  46.605  1.00  0.00     0.168 HD
ENDROOT
BRANCH  10  22
HETATM   22  N2  UNL     1      33.120   4.453  47.576  1.00  0.00    -0.328 N 
HETATM   23  C8  UNL     1      32.917   3.142  47.825  1.00  0.00     0.113 A 
HETATM   24  C9  UNL     1      32.479   2.489  46.701  1.00  0.00     0.135 A 
HETATM   25  N3  UNL     1      32.421   3.457  45.746  1.00  0.00    -0.255 NA
HETATM   26  C10 UNL     1      32.806   4.638  46.271  1.00  0.00     0.210 A 
ENDBRANCH  10  22
TORSDOF 1
ENDMDL
MODEL 9
REMARK VINA RESULT:      -6.4      2.469      5.011
REMARK  1 active torsions:
REMARK  status: ('A' for Active; 'I' for Inactive)
REMARK    1  A    between atoms: C7_10  and  N2_11 
ROOT
HETATM    1  O1  UNL     1      18.748   1.990  51.627  1.00  0.00    -0.268 OA
HETATM    2  C1  UNL     1      19.911   1.748  52.001  1.00  0.00     0.244 C 
HETATM    3  C2  UNL     1      20.552   0.899  52.959  1.00  0.00     0.075 C 
HETATM    4  C3  UNL     1      21.678   0.483  53.419  1.00  0.00     0.058 C 
HETATM    5  C4  UNL     1      23.118   0.423  53.459  1.00  0.00     0.372 A 
HETATM    6  O2  UNL     1      22.911   1.177  52.476  1.00  0.00    -0.146 OA
HETATM    7  N1  UNL     1      24.306   0.869  52.836  1.00  0.00     0.090 N 
HETATM    8  C5  UNL     1      24.905   1.647  51.778  1.00  0.00     0.279 C 
HETATM    9  C6  UNL     1      24.560   3.109  51.815  1.00  0.00     0.078 C 
HETATM   10  C7  UNL     1      25.225   3.744  50.584  1.00  0.00     0.192 C 
HETATM   11  N4  UNL     1      24.662   3.156  49.345  1.00  0.00    -0.354 N 
HETATM   12  C11 UNL     1      23.274   3.265  49.035  1.00  0.00     0.137 C 
HETATM   13  N5  UNL     1      23.430   4.524  48.807  1.00  0.00    -0.074 NA
HETATM   14  F1  UNL     1      22.433   5.320  48.435  1.00  0.00    -0.073 F 
HETATM   15  C12 UNL     1      21.894   2.676  48.855  1.00  0.00     0.109 C 
HETATM   16  C13 UNL     1      20.883   3.768  48.880  1.00  0.00    -0.002 C 
HETATM   17  C14 UNL     1      20.118   3.684  49.994  1.00  0.00     0.087 C 
HETATM   18  N6  UNL     1      20.207   2.723  51.023  1.00  0.00    -0.334 N 
HETATM   19  H3  UNL     1      24.986   0.367  53.496  1.00  0.00     0.322 HD
HETATM   20  H12 UNL     1      25.199   2.627  48.606  1.00  0.00     0.163 HD
HETATM   21  H17 UNL     1      21.231   2.784  51.199  1.00  0.00     0.168 HD
ENDROOT
BRANCH  10  22
HETATM   22  N2  UNL     1      24.938   5.163  50.607  1.00  0.00    -0.328 N 
HETATM   23  C8  UNL     1      25.484   6.180  49.909  1.00  0.00     0.113 A 
HETATM   24  C9  UNL     1      24.906   7.377  50.249  1.00  0.00     0.135 A 
HETATM   25  N3  UNL     1      23.977   7.052  51.189  1.00  0.00    -0.255 NA
HETATM   26  C10 UNL     1      23.996   5.722  51.406  1.00  0.00     0.210 A 
ENDBRANCH  10  22
TORSDOF 1
ENDMDL
