MODEL 1
REMARK VINA RESULT:      -8.8      0.000      0.000
REMARK  3 active torsions:
REMARK  status: ('A' for Active; 'I' for Inactive)
REMARK    1  A    between atoms: N1_1  and  C1_2 
REMARK    2  A    between atoms: C2_4  and  C3_5 
REMARK    3  A    between atoms: N3_15  and  C12_16 
ROOT
HETATM    1  C1  UNL     1      23.342  -0.941  54.726  1.00  0.00     0.722 A 
HETATM    2  N2  UNL     1      22.335  -0.235  54.176  1.00  0.00    -0.062 NA
HETATM    3  C2  UNL     1      22.568   0.668  53.179  1.00  0.00     0.100 A 
HETATM    4  C9  UNL     1      23.867   0.793  52.799  1.00  0.00     0.043 A 
HETATM    5  C10 UNL     1      24.456   1.593  51.843  1.00  0.00     0.035 A 
HETATM    6  C11 UNL     1      25.825   1.374  51.812  1.00  0.00     0.100 A 
HETATM    7  N3  UNL     1      26.084   0.433  52.754  1.00  0.00    -0.306 N 
HETATM    8  C18 UNL     1      24.921   0.087  53.341  1.00  0.00     0.166 A 
HETATM    9  N4  UNL     1      24.637  -0.792  54.321  1.00  0.00    -0.044 NA
ENDROOT
BRANCH   3  10
HETATM   10  C3  UNL     1      21.456   1.417  52.605  1.00  0.00    -0.004 A 
HETATM   11  C4  UNL     1      21.308   2.777  52.429  1.00  0.00     0.014 A 
HETATM   12  C5  UNL     1      20.153   3.263  51.854  1.00  0.00     0.002 A 
HETATM   13  C6  UNL     1      19.129   2.436  51.447  1.00  0.00     0.019 A 
HETATM   14  C7  UNL     1      19.270   1.072  51.620  1.00  0.00     0.011 A 
HETATM   15 BR1  UNL     1      17.834  -0.059  51.045  1.00  0.00    -0.051 Br
HETATM   16  C8  UNL     1      20.422   0.571  52.193  1.00  0.00     0.032 A 
ENDBRANCH   3  10
BRANCH   1  17
HETATM   17  N1  UNL     1      22.970  -1.850  55.756  1.00  0.00    -0.231 N 
HETATM   18  H1  UNL     1      22.194  -2.126  56.400  1.00  0.00     0.174 HD
HETATM   19  H2  UNL     1      23.885  -2.385  55.797  1.00  0.00     0.174 HD
ENDBRANCH   1  17
BRANCH   7  20
HETATM   20  C12 UNL     1      27.398  -0.055  53.015  1.00  0.00     0.040 A 
HETATM   21  C13 UNL     1      27.725  -1.389  52.879  1.00  0.00     0.030 A 
HETATM   22  C14 UNL     1      29.019  -1.803  53.147  1.00  0.00     0.002 A 
HETATM   23  C15 UNL     1      29.906  -0.828  53.542  1.00  0.00     0.000 A 
HETATM   24  C16 UNL     1      29.610   0.512  53.688  1.00  0.00     0.002 A 
HETATM   25  C17 UNL     1      28.300   0.917  53.412  1.00  0.00     0.030 A 
ENDBRANCH   7  20
TORSDOF 3
ENDMDL
MODEL 2
REMARK VINA RESULT:      -8.6      1.670      2.993
REMARK  3 active torsions:
REMARK  status: ('A' for Active; 'I' for Inactive)
REMARK    1  A    between atoms: N1_1  and  C1_2 
REMARK    2  A    between atoms: C2_4  and  C3_5 
REMARK    3  A    between atoms: N3_15  and  C12_16 
ROOT
HETATM    1  C1  UNL     1      23.944   2.026  51.025  1.00  0.00     0.722 A 
HETATM    2  N2  UNL     1      22.693   1.585  51.266  1.00  0.00    -0.062 NA
HETATM    3  C2  UNL     1      22.450   0.639  52.219  1.00  0.00     0.100 A 
HETATM    4  C9  UNL     1      23.546   0.190  52.887  1.00  0.00     0.043 A 
HETATM    5  C10 UNL     1      23.671  -0.744  53.893  1.00  0.00     0.035 A 
HETATM    6  C11 UNL     1      25.001  -0.872  54.265  1.00  0.00     0.100 A 
HETATM    7  N3  UNL     1      25.702  -0.012  53.485  1.00  0.00    -0.306 N 
HETATM    8  C18 UNL     1      24.837   0.620  52.666  1.00  0.00     0.166 A 
HETATM    9  N4  UNL     1      25.023   1.555  51.714  1.00  0.00    -0.044 NA
ENDROOT
BRANCH   3  10
HETATM   10  C3  UNL     1      21.085   0.182  52.455  1.00  0.00    -0.004 A 
HETATM   11  C4  UNL     1      20.559  -0.501  53.532  1.00  0.00     0.014 A 
HETATM   12  C5  UNL     1      19.221  -0.831  53.536  1.00  0.00     0.002 A 
HETATM   13  C6  UNL     1      18.380  -0.505  52.495  1.00  0.00     0.019 A 
HETATM   14  C7  UNL     1      18.898   0.179  51.412  1.00  0.00     0.011 A 
HETATM   15 BR1  UNL     1      17.710   0.623  49.976  1.00  0.00    -0.051 Br
HETATM   16  C8  UNL     1      20.238   0.517  51.395  1.00  0.00     0.032 A 
ENDBRANCH   3  10
BRANCH   1  17
HETATM   17  N1  UNL     1      24.066   3.013  50.008  1.00  0.00    -0.231 N 
HETATM   18  H1  UNL     1      24.478   3.948  49.782  1.00  0.00     0.174 HD
HETATM   19  H2  UNL     1      23.498   2.511  49.266  1.00  0.00     0.174 HD
ENDBRANCH   1  17
BRANCH   7  20
HETATM   20  C12 UNL     1      27.116   0.138  53.581  1.00  0.00     0.040 A 
HETATM   21  C13 UNL     1      27.702   1.319  53.989  1.00  0.00     0.030 A 
HETATM   22  C14 UNL     1      29.082   1.404  54.062  1.00  0.00     0.002 A 
HETATM   23  C15 UNL     1      29.786   0.275  53.712  1.00  0.00     0.000 A 
HETATM   24  C16 UNL     1      29.230  -0.920  53.301  1.00  0.00     0.002 A 
HETATM   25  C17 UNL     1      27.835  -0.992  53.232  1.00  0.00     0.030 A 
ENDBRANCH   7  20
TORSDOF 3
ENDMDL
MODEL 3
REMARK VINA RESULT:      -8.5      4.299      6.737
REMARK  3 active torsions:
REMARK  status: ('A' for Active; 'I' for Inactive)
REMARK    1  A    between atoms: N1_1  and  C1_2 
REMARK    2  A    between atoms: C2_4  and  C3_5 
REMARK    3  A    between atoms: N3_15  and  C12_16 
ROOT
HETATM    1  C1  UNL     1      22.468   2.203  49.113  1.00  0.00     0.722 A 
HETATM    2  N2  UNL     1      23.467   3.038  48.767  1.00  0.00    -0.062 NA
HETATM    3  C2  UNL     1      24.468   3.342  49.644  1.00  0.00     0.100 A 
HETATM    4  C9  UNL     1      24.375   2.747  50.863  1.00  0.00     0.043 A 
HETATM    5  C10 UNL     1      25.193   2.824  51.970  1.00  0.00     0.035 A 
HETATM    6  C11 UNL     1      24.690   2.033  52.993  1.00  0.00     0.100 A 
HETATM    7  N3  UNL     1      23.555   1.464  52.514  1.00  0.00    -0.306 N 
HETATM    8  C18 UNL     1      23.368   1.888  51.248  1.00  0.00     0.166 A 
HETATM    9  N4  UNL     1      22.404   1.621  50.345  1.00  0.00    -0.044 NA
ENDROOT
BRANCH   3  10
HETATM   10  C3  UNL     1      25.535   4.250  49.239  1.00  0.00    -0.004 A 
HETATM   11  C4  UNL     1      26.891   4.021  49.126  1.00  0.00     0.014 A 
HETATM   12  C5  UNL     1      27.718   5.045  48.719  1.00  0.00     0.002 A 
HETATM   13  C6  UNL     1      27.241   6.302  48.418  1.00  0.00     0.019 A 
HETATM   14  C7  UNL     1      25.885   6.540  48.529  1.00  0.00     0.011 A 
HETATM   15 BR1  UNL     1      25.243   8.295  48.106  1.00  0.00    -0.051 Br
HETATM   16  C8  UNL     1      25.043   5.522  48.936  1.00  0.00     0.032 A 
ENDBRANCH   3  10
BRANCH   1  17
HETATM   17  N1  UNL     1      21.485   1.966  48.112  1.00  0.00    -0.231 N 
HETATM   18  H1  UNL     1      20.462   1.814  47.950  1.00  0.00     0.174 HD
HETATM   19  H2  UNL     1      22.142   1.962  47.279  1.00  0.00     0.174 HD
ENDBRANCH   1  17
BRANCH   7  20
HETATM   20  C12 UNL     1      22.753   0.576  53.289  1.00  0.00     0.040 A 
HETATM   21  C13 UNL     1      21.383   0.716  53.380  1.00  0.00     0.030 A 
HETATM   22  C14 UNL     1      20.657  -0.178  54.148  1.00  0.00     0.002 A 
HETATM   23  C15 UNL     1      21.374  -1.167  54.781  1.00  0.00     0.000 A 
HETATM   24  C16 UNL     1      22.743  -1.334  54.710  1.00  0.00     0.002 A 
HETATM   25  C17 UNL     1      23.463  -0.423  53.930  1.00  0.00     0.030 A 
ENDBRANCH   7  20
TORSDOF 3
ENDMDL
MODEL 4
REMARK VINA RESULT:      -8.4      2.174      3.609
REMARK  3 active torsions:
REMARK  status: ('A' for Active; 'I' for Inactive)
REMARK    1  A    between atoms: N1_1  and  C1_2 
REMARK    2  A    between atoms: C2_4  and  C3_5 
REMARK    3  A    between atoms: N3_15  and  C12_16 
ROOT
HETATM    1  C1  UNL     1      26.254   3.283  50.485  1.00  0.00     0.722 A 
HETATM    2  N2  UNL     1      24.930   3.532  50.468  1.00  0.00    -0.062 NA
HETATM    3  C2  UNL     1      24.055   2.748  51.164  1.00  0.00     0.100 A 
HETATM    4  C9  UNL     1      24.617   1.722  51.857  1.00  0.00     0.043 A 
HETATM    5  C10 UNL     1      24.049   0.752  52.654  1.00  0.00     0.035 A 
HETATM    6  C11 UNL     1      25.029  -0.090  53.157  1.00  0.00     0.100 A 
HETATM    7  N3  UNL     1      26.211   0.363  52.669  1.00  0.00    -0.306 N 
HETATM    8  C18 UNL     1      25.967   1.441  51.896  1.00  0.00     0.166 A 
HETATM    9  N4  UNL     1      26.787   2.245  51.192  1.00  0.00    -0.044 NA
ENDROOT
BRANCH   3  10
HETATM   10  C3  UNL     1      22.628   3.044  51.125  1.00  0.00    -0.004 A 
HETATM   11  C4  UNL     1      21.781   3.429  52.143  1.00  0.00     0.014 A 
HETATM   12  C5  UNL     1      20.450   3.657  51.866  1.00  0.00     0.002 A 
HETATM   13  C6  UNL     1      19.926   3.512  50.599  1.00  0.00     0.019 A 
HETATM   14  C7  UNL     1      20.769   3.127  49.574  1.00  0.00     0.011 A 
HETATM   15 BR1  UNL     1      20.019   2.932  47.821  1.00  0.00    -0.051 Br
HETATM   16  C8  UNL     1      22.105   2.895  49.838  1.00  0.00     0.032 A 
ENDBRANCH   3  10
BRANCH   1  17
HETATM   17  N1  UNL     1      27.061   4.171  49.720  1.00  0.00    -0.231 N 
HETATM   18  H1  UNL     1      28.047   4.441  49.501  1.00  0.00     0.174 HD
HETATM   19  H2  UNL     1      26.269   4.695  49.246  1.00  0.00     0.174 HD
ENDBRANCH   1  17
BRANCH   7  20
HETATM   20  C12 UNL     1      27.459  -0.256  52.972  1.00  0.00     0.040 A 
HETATM   21  C13 UNL     1      28.535   0.461  53.452  1.00  0.00     0.030 A 
HETATM   22  C14 UNL     1      29.722  -0.197  53.729  1.00  0.00     0.002 A 
HETATM   23  C15 UNL     1      29.740  -1.553  53.498  1.00  0.00     0.000 A 
HETATM   24  C16 UNL     1      28.682  -2.298  53.019  1.00  0.00     0.002 A 
HETATM   25  C17 UNL     1      27.489  -1.621  52.745  1.00  0.00     0.030 A 
ENDBRANCH   7  20
TORSDOF 3
ENDMDL
MODEL 5
REMARK VINA RESULT:      -8.4      2.917      7.117
REMARK  3 active torsions:
REMARK  status: ('A' for Active; 'I' for Inactive)
REMARK    1  A    between atoms: N1_1  and  C1_2 
REMARK    2  A    between atoms: C2_4  and  C3_5 
REMARK    3  A    between atoms: N3_15  and  C12_16 
ROOT
HETATM    1  C1  UNL     1      23.279  -1.032  54.679  1.00  0.00     0.722 A 
HETATM    2  N2  UNL     1      24.544  -0.572  54.604  1.00  0.00    -0.062 NA
HETATM    3  C2  UNL     1      24.919   0.303  53.626  1.00  0.00     0.100 A 
HETATM    4  C9  UNL     1      23.938   0.662  52.757  1.00  0.00     0.043 A 
HETATM    5  C10 UNL     1      23.958   1.510  51.670  1.00  0.00     0.035 A 
HETATM    6  C11 UNL     1      22.704   1.566  51.082  1.00  0.00     0.100 A 
HETATM    7  N3  UNL     1      21.902   0.748  51.810  1.00  0.00    -0.306 N 
HETATM    8  C18 UNL     1      22.635   0.211  52.806  1.00  0.00     0.166 A 
HETATM    9  N4  UNL     1      22.316  -0.652  53.791  1.00  0.00    -0.044 NA
ENDROOT
BRANCH   3  10
HETATM   10  C3  UNL     1      26.296   0.782  53.572  1.00  0.00    -0.004 A 
HETATM   11  C4  UNL     1      26.777   2.074  53.536  1.00  0.00     0.014 A 
HETATM   12  C5  UNL     1      28.138   2.288  53.487  1.00  0.00     0.002 A 
HETATM   13  C6  UNL     1      29.046   1.252  53.471  1.00  0.00     0.019 A 
HETATM   14  C7  UNL     1      28.572  -0.045  53.506  1.00  0.00     0.011 A 
HETATM   15 BR1  UNL     1      29.852  -1.471  53.482  1.00  0.00    -0.051 Br
HETATM   16  C8  UNL     1      27.210  -0.275  53.556  1.00  0.00     0.032 A 
ENDBRANCH   3  10
BRANCH   1  17
HETATM   17  N1  UNL     1      23.013  -1.940  55.742  1.00  0.00    -0.231 N 
HETATM   18  H1  UNL     1      23.005  -2.043  56.783  1.00  0.00     0.174 HD
HETATM   19  H2  UNL     1      22.731  -2.768  55.142  1.00  0.00     0.174 HD
ENDBRANCH   1  17
BRANCH   7  20
HETATM   20  C12 UNL     1      20.524   0.547  51.504  1.00  0.00     0.040 A 
HETATM   21  C13 UNL     1      19.670  -0.109  52.366  1.00  0.00     0.030 A 
HETATM   22  C14 UNL     1      18.341  -0.274  52.014  1.00  0.00     0.002 A 
HETATM   23  C15 UNL     1      17.961   0.242  50.797  1.00  0.00     0.000 A 
HETATM   24  C16 UNL     1      18.790   0.903  49.913  1.00  0.00     0.002 A 
HETATM   25  C17 UNL     1      20.130   1.063  50.282  1.00  0.00     0.030 A 
ENDBRANCH   7  20
TORSDOF 3
ENDMDL
MODEL 6
REMARK VINA RESULT:      -8.4      4.001      5.589
REMARK  3 active torsions:
REMARK  status: ('A' for Active; 'I' for Inactive)
REMARK    1  A    between atoms: N1_1  and  C1_2 
REMARK    2  A    between atoms: C2_4  and  C3_5 
REMARK    3  A    between atoms: N3_15  and  C12_16 
ROOT
HETATM    1  C1  UNL     1      26.655   1.967  51.784  1.00  0.00     0.722 A 
HETATM    2  N2  UNL     1      25.433   1.418  51.937  1.00  0.00    -0.062 NA
HETATM    3  C2  UNL     1      24.354   1.898  51.254  1.00  0.00     0.100 A 
HETATM    4  C9  UNL     1      24.607   2.948  50.428  1.00  0.00     0.043 A 
HETATM    5  C10 UNL     1      23.772   3.670  49.602  1.00  0.00     0.035 A 
HETATM    6  C11 UNL     1      24.487   4.660  48.945  1.00  0.00     0.100 A 
HETATM    7  N3  UNL     1      25.771   4.550  49.367  1.00  0.00    -0.306 N 
HETATM    8  C18 UNL     1      25.844   3.532  50.249  1.00  0.00     0.166 A 
HETATM    9  N4  UNL     1      26.876   3.021  50.947  1.00  0.00    -0.044 NA
ENDROOT
BRANCH   3  10
HETATM   10  C3  UNL     1      23.045   1.283  51.442  1.00  0.00    -0.004 A 
HETATM   11  C4  UNL     1      21.967   1.228  50.583  1.00  0.00     0.014 A 
HETATM   12  C5  UNL     1      20.816   0.582  50.982  1.00  0.00     0.002 A 
HETATM   13  C6  UNL     1      20.699  -0.016  52.218  1.00  0.00     0.019 A 
HETATM   14  C7  UNL     1      21.774   0.035  53.083  1.00  0.00     0.011 A 
HETATM   15 BR1  UNL     1      21.588  -0.803  54.797  1.00  0.00    -0.051 Br
HETATM   16  C8  UNL     1      22.933   0.679  52.697  1.00  0.00     0.032 A 
ENDBRANCH   3  10
BRANCH   1  17
HETATM   17  N1  UNL     1      27.698   1.377  52.552  1.00  0.00    -0.231 N 
HETATM   18  H1  UNL     1      28.737   1.307  52.653  1.00  0.00     0.174 HD
HETATM   19  H2  UNL     1      27.080   0.843  53.228  1.00  0.00     0.174 HD
ENDBRANCH   1  17
BRANCH   7  20
HETATM   20  C12 UNL     1      26.811   5.408  48.905  1.00  0.00     0.040 A 
HETATM   21  C13 UNL     1      28.046   4.925  48.523  1.00  0.00     0.030 A 
HETATM   22  C14 UNL     1      29.016   5.808  48.082  1.00  0.00     0.002 A 
HETATM   23  C15 UNL     1      28.669   7.139  48.057  1.00  0.00     0.000 A 
HETATM   24  C16 UNL     1      27.445   7.654  48.433  1.00  0.00     0.002 A 
HETATM   25  C17 UNL     1      26.473   6.750  48.875  1.00  0.00     0.030 A 
ENDBRANCH   7  20
TORSDOF 3
ENDMDL
MODEL 7
REMARK VINA RESULT:      -8.2      2.873      4.827
REMARK  3 active torsions:
REMARK  status: ('A' for Active; 'I' for Inactive)
REMARK    1  A    between atoms: N1_1  and  C1_2 
REMARK    2  A    between atoms: C2_4  and  C3_5 
REMARK    3  A    between atoms: N3_15  and  C12_16 
ROOT
HETATM    1  C1  UNL     1      26.242   1.608  53.474  1.00  0.00     0.722 A 
HETATM    2  N2  UNL     1      25.179   0.849  53.807  1.00  0.00    -0.062 NA
HETATM    3  C2  UNL     1      24.032   0.878  53.068  1.00  0.00     0.100 A 
HETATM    4  C9  UNL     1      24.051   1.715  51.996  1.00  0.00     0.043 A 
HETATM    5  C10 UNL     1      23.088   1.992  51.049  1.00  0.00     0.035 A 
HETATM    6  C11 UNL     1      23.566   2.922  50.138  1.00  0.00     0.100 A 
HETATM    7  N3  UNL     1      24.832   3.222  50.524  1.00  0.00    -0.306 N 
HETATM    8  C18 UNL     1      25.121   2.504  51.629  1.00  0.00     0.166 A 
HETATM    9  N4  UNL     1      26.229   2.438  52.392  1.00  0.00    -0.044 NA
ENDROOT
BRANCH   3  10
HETATM   10  C3  UNL     1      22.900   0.044  53.454  1.00  0.00    -0.004 A 
HETATM   11  C4  UNL     1      22.836  -0.982  54.374  1.00  0.00     0.014 A 
HETATM   12  C5  UNL     1      21.639  -1.636  54.575  1.00  0.00     0.002 A 
HETATM   13  C6  UNL     1      20.494  -1.304  53.885  1.00  0.00     0.019 A 
HETATM   14  C7  UNL     1      20.550  -0.277  52.963  1.00  0.00     0.011 A 
HETATM   15 BR1  UNL     1      18.944   0.169  52.016  1.00  0.00    -0.051 Br
HETATM   16  C8  UNL     1      21.742   0.388  52.751  1.00  0.00     0.032 A 
ENDBRANCH   3  10
BRANCH   1  17
HETATM   17  N1  UNL     1      27.378   1.489  54.323  1.00  0.00    -0.231 N 
HETATM   18  H1  UNL     1      27.691   1.213  55.283  1.00  0.00     0.174 HD
HETATM   19  H2  UNL     1      28.101   1.827  53.626  1.00  0.00     0.174 HD
ENDBRANCH   1  17
BRANCH   7  20
HETATM   20  C12 UNL     1      25.652   4.152  49.821  1.00  0.00     0.040 A 
HETATM   21  C13 UNL     1      26.893   3.807  49.327  1.00  0.00     0.030 A 
HETATM   22  C14 UNL     1      27.645   4.754  48.653  1.00  0.00     0.002 A 
HETATM   23  C15 UNL     1      27.083   6.004  48.523  1.00  0.00     0.000 A 
HETATM   24  C16 UNL     1      25.846   6.379  49.005  1.00  0.00     0.002 A 
HETATM   25  C17 UNL     1      25.098   5.412  49.684  1.00  0.00     0.030 A 
ENDBRANCH   7  20
TORSDOF 3
ENDMDL
MODEL 8
REMARK VINA RESULT:      -8.0      3.222      4.695
REMARK  3 active torsions:
REMARK  status: ('A' for Active; 'I' for Inactive)
REMARK    1  A    between atoms: N1_1  and  C1_2 
REMARK    2  A    between atoms: C2_4  and  C3_5 
REMARK    3  A    between atoms: N3_15  and  C12_16 
ROOT
HETATM    1  C1  UNL     1      26.586   3.990  49.635  1.00  0.00     0.722 A 
HETATM    2  N2  UNL     1      25.297   4.202  49.303  1.00  0.00    -0.062 NA
HETATM    3  C2  UNL     1      24.289   3.512  49.912  1.00  0.00     0.100 A 
HETATM    4  C9  UNL     1      24.683   2.617  50.857  1.00  0.00     0.043 A 
HETATM    5  C10 UNL     1      23.951   1.766  51.657  1.00  0.00     0.035 A 
HETATM    6  C11 UNL     1      24.796   1.034  52.477  1.00  0.00     0.100 A 
HETATM    7  N3  UNL     1      26.058   1.436  52.183  1.00  0.00    -0.306 N 
HETATM    8  C18 UNL     1      25.992   2.378  51.221  1.00  0.00     0.166 A 
HETATM    9  N4  UNL     1      26.949   3.085  50.589  1.00  0.00    -0.044 NA
ENDROOT
BRANCH   3  10
HETATM   10  C3  UNL     1      22.904   3.764  49.530  1.00  0.00    -0.004 A 
HETATM   11  C4  UNL     1      21.974   2.909  48.977  1.00  0.00     0.014 A 
HETATM   12  C5  UNL     1      20.708   3.376  48.696  1.00  0.00     0.002 A 
HETATM   13  C6  UNL     1      20.331   4.677  48.946  1.00  0.00     0.019 A 
HETATM   14  C7  UNL     1      21.257   5.540  49.500  1.00  0.00     0.011 A 
HETATM   15 BR1  UNL     1      20.712   7.346  49.840  1.00  0.00    -0.051 Br
HETATM   16  C8  UNL     1      22.530   5.086  49.787  1.00  0.00     0.032 A 
ENDBRANCH   3  10
BRANCH   1  17
HETATM   17  N1  UNL     1      27.543   4.771  48.928  1.00  0.00    -0.231 N 
HETATM   18  H1  UNL     1      28.439   5.302  49.026  1.00  0.00     0.174 HD
HETATM   19  H2  UNL     1      27.073   4.729  47.978  1.00  0.00     0.174 HD
ENDBRANCH   1  17
BRANCH   7  20
HETATM   20  C12 UNL     1      27.209   0.900  52.833  1.00  0.00     0.040 A 
HETATM   21  C13 UNL     1      28.071   1.690  53.565  1.00  0.00     0.030 A 
HETATM   22  C14 UNL     1      29.173   1.112  54.174  1.00  0.00     0.002 A 
HETATM   23  C15 UNL     1      29.330  -0.243  53.998  1.00  0.00     0.000 A 
HETATM   24  C16 UNL     1      28.486  -1.060  53.272  1.00  0.00     0.002 A 
HETATM   25  C17 UNL     1      27.378  -0.463  52.663  1.00  0.00     0.030 A 
ENDBRANCH   7  20
TORSDOF 3
ENDMDL
MODEL 9
REMARK VINA RESULT:      -7.8      4.629      6.374
REMARK  3 active torsions:
REMARK  status: ('A' for Active; 'I' for Inactive)
REMARK    1  A    between atoms: N1_1  and  C1_2 
REMARK    2  A    between atoms: C2_4  and  C3_5 
REMARK    3  A    between atoms: N3_15  and  C12_16 
ROOT
HETATM    1  C1  UNL     1      23.137   5.499  51.302  1.00  0.00     0.722 A 
HETATM    2  N2  UNL     1      22.957   4.303  51.896  1.00  0.00    -0.062 NA
HETATM    3  C2  UNL     1      23.837   3.278  51.699  1.00  0.00     0.100 A 
HETATM    4  C9  UNL     1      24.882   3.558  50.876  1.00  0.00     0.043 A 
HETATM    5  C10 UNL     1      25.941   2.778  50.461  1.00  0.00     0.035 A 
HETATM    6  C11 UNL     1      26.766   3.501  49.614  1.00  0.00     0.100 A 
HETATM    7  N3  UNL     1      26.216   4.736  49.503  1.00  0.00    -0.306 N 
HETATM    8  C18 UNL     1      25.096   4.770  50.254  1.00  0.00     0.166 A 
HETATM    9  N4  UNL     1      24.197   5.748  50.481  1.00  0.00    -0.044 NA
ENDROOT
BRANCH   3  10
HETATM   10  C3  UNL     1      23.614   1.995  52.356  1.00  0.00    -0.004 A 
HETATM   11  C4  UNL     1      24.524   1.128  52.925  1.00  0.00     0.014 A 
HETATM   12  C5  UNL     1      24.075  -0.044  53.496  1.00  0.00     0.002 A 
HETATM   13  C6  UNL     1      22.741  -0.388  53.519  1.00  0.00     0.019 A 
HETATM   14  C7  UNL     1      21.824   0.476  52.951  1.00  0.00     0.011 A 
HETATM   15 BR1  UNL     1      19.974  -0.023  52.995  1.00  0.00    -0.051 Br
HETATM   16  C8  UNL     1      22.259   1.653  52.376  1.00  0.00     0.032 A 
ENDBRANCH   3  10
BRANCH   1  17
HETATM   17  N1  UNL     1      22.151   6.485  51.586  1.00  0.00    -0.231 N 
HETATM   18  H1  UNL     1      21.919   7.295  52.206  1.00  0.00     0.174 HD
HETATM   19  H2  UNL     1      21.453   6.193  50.842  1.00  0.00     0.174 HD
ENDBRANCH   1  17
BRANCH   7  20
HETATM   20  C12 UNL     1      26.790   5.768  48.706  1.00  0.00     0.040 A 
HETATM   21  C13 UNL     1      28.136   5.796  48.402  1.00  0.00     0.030 A 
HETATM   22  C14 UNL     1      28.636   6.825  47.623  1.00  0.00     0.002 A 
HETATM   23  C15 UNL     1      27.730   7.769  47.197  1.00  0.00     0.000 A 
HETATM   24  C16 UNL     1      26.380   7.769  47.484  1.00  0.00     0.002 A 
HETATM   25  C17 UNL     1      25.888   6.723  48.272  1.00  0.00     0.030 A 
ENDBRANCH   7  20
TORSDOF 3
ENDMDL
