MODEL 1
REMARK VINA RESULT:      -6.5      0.000      0.000
REMARK  6 active torsions:
REMARK  status: ('A' for Active; 'I' for Inactive)
REMARK    1  A    between atoms: C2_2  and  N1_3 
REMARK    2  A    between atoms: N1_3  and  C3_4 
REMARK    3  A    between atoms: N1_3  and  C11_17 
REMARK    4  A    between atoms: S1_9  and  O1_10 
REMARK    5  A    between atoms: C6_11  and  C7_12 
REMARK    6  A    between atoms: C9_14  and  O2_15 
ROOT
HETATM    1  C3  UNL     1      24.526   0.742  53.441  1.00  0.00     0.122 A 
HETATM    2  N2  UNL     1      24.368  -0.293  54.229  1.00  0.00    -0.227 NA
HETATM    3  C4  UNL     1      25.432  -0.789  55.019  1.00  0.00     0.235 A 
HETATM    4  N3  UNL     1      26.592  -0.237  54.990  1.00  0.00    -0.237 NA
HETATM    5  C5  UNL     1      26.835   0.904  54.149  1.00  0.00     0.100 A 
HETATM    6  S1  UNL     1      28.339   1.584  54.153  1.00  0.00    -0.052 S 
HETATM    7  C6  UNL     1      25.763   1.493  53.272  1.00  0.00     0.146 A 
HETATM    8  H7  UNL     1      29.141   1.329  55.309  1.00  0.00     0.127 HD
ENDROOT
BRANCH   1   9
HETATM    9  N1  UNL     1      23.280   0.959  52.814  1.00  0.00    -0.335 N 
BRANCH   9  10
HETATM   10  C2  UNL     1      22.238  -0.016  53.066  1.00  0.00     0.126 C 
HETATM   11  C1  UNL     1      20.981   0.698  53.584  1.00  0.00     0.027 C 
ENDBRANCH   9  10
BRANCH   9  12
HETATM   12  C11 UNL     1      23.127   2.097  51.994  1.00  0.00     0.035 A 
HETATM   13  C12 UNL     1      22.940   1.996  50.629  1.00  0.00     0.029 A 
HETATM   14  C13 UNL     1      22.787   3.085  49.796  1.00  0.00     0.002 A 
HETATM   15  C14 UNL     1      22.817   4.365  50.326  1.00  0.00     0.000 A 
HETATM   16  C15 UNL     1      23.002   4.538  51.701  1.00  0.00     0.002 A 
HETATM   17  C16 UNL     1      23.145   3.398  52.451  1.00  0.00     0.029 A 
ENDBRANCH   9  12
ENDBRANCH   1   9
BRANCH   7  18
HETATM   18  C7  UNL     1      26.342   1.394  51.883  1.00  0.00    -0.044 C 
HETATM   19  C8  UNL     1      26.785   0.083  51.338  1.00  0.00     0.046 C 
HETATM   20  C9  UNL     1      26.478   2.479  51.106  1.00  0.00     0.137 C 
BRANCH  20  21
HETATM   21  O2  UNL     1      26.923   2.866  49.850  1.00  0.00    -0.368 OA
HETATM   22  C10 UNL     1      26.572   4.168  49.385  1.00  0.00     0.208 C 
ENDBRANCH  20  21
ENDBRANCH   7  18
BRANCH   6  23
HETATM   23  O1  UNL     1      28.609   2.947  53.140  1.00  0.00    -0.338 OA
HETATM   24  H8  UNL     1      29.492   2.835  52.725  1.00  0.00     0.227 HD
ENDBRANCH   6  23
TORSDOF 6
ENDMDL
MODEL 2
REMARK VINA RESULT:      -6.4      1.292      2.396
REMARK  6 active torsions:
REMARK  status: ('A' for Active; 'I' for Inactive)
REMARK    1  A    between atoms: C2_2  and  N1_3 
REMARK    2  A    between atoms: N1_3  and  C3_4 
REMARK    3  A    between atoms: N1_3  and  C11_17 
REMARK    4  A    between atoms: S1_9  and  O1_10 
REMARK    5  A    between atoms: C6_11  and  C7_12 
REMARK    6  A    between atoms: C9_14  and  O2_15 
ROOT
HETATM    1  C3  UNL     1      23.572   1.567  52.741  1.00  0.00     0.122 A 
HETATM    2  N2  UNL     1      22.781   0.560  53.019  1.00  0.00    -0.227 NA
HETATM    3  C4  UNL     1      23.231  -0.546  53.778  1.00  0.00     0.235 A 
HETATM    4  N3  UNL     1      24.436  -0.600  54.221  1.00  0.00    -0.237 NA
HETATM    5  C5  UNL     1      25.359   0.471  53.953  1.00  0.00     0.100 A 
HETATM    6  S1  UNL     1      26.893   0.360  54.551  1.00  0.00    -0.052 S 
HETATM    7  C6  UNL     1      24.966   1.682  53.151  1.00  0.00     0.146 A 
HETATM    8  H7  UNL     1      27.070  -0.511  55.671  1.00  0.00     0.127 HD
ENDROOT
BRANCH   1   9
HETATM    9  N1  UNL     1      22.807   2.478  51.983  1.00  0.00    -0.335 N 
BRANCH   9  10
HETATM   10  C2  UNL     1      22.319   3.658  52.669  1.00  0.00     0.126 C 
HETATM   11  C1  UNL     1      23.387   4.760  52.618  1.00  0.00     0.027 C 
ENDBRANCH   9  10
BRANCH   9  12
HETATM   12  C11 UNL     1      22.568   2.191  50.622  1.00  0.00     0.035 A 
HETATM   13  C12 UNL     1      23.233   2.851  49.607  1.00  0.00     0.029 A 
HETATM   14  C13 UNL     1      23.025   2.597  48.267  1.00  0.00     0.002 A 
HETATM   15  C14 UNL     1      22.107   1.633  47.885  1.00  0.00     0.000 A 
HETATM   16  C15 UNL     1      21.401   0.926  48.862  1.00  0.00     0.002 A 
HETATM   17  C16 UNL     1      21.672   1.246  50.169  1.00  0.00     0.029 A 
ENDBRANCH   9  12
ENDBRANCH   1   9
BRANCH   7  18
HETATM   18  C7  UNL     1      25.935   1.675  51.996  1.00  0.00    -0.044 C 
HETATM   19  C8  UNL     1      26.469   0.394  51.460  1.00  0.00     0.046 C 
HETATM   20  C9  UNL     1      26.345   2.819  51.424  1.00  0.00     0.137 C 
BRANCH  20  21
HETATM   21  O2  UNL     1      27.167   3.292  50.410  1.00  0.00    -0.368 OA
HETATM   22  C10 UNL     1      26.597   4.164  49.437  1.00  0.00     0.208 C 
ENDBRANCH  20  21
ENDBRANCH   7  18
BRANCH   6  23
HETATM   23  O1  UNL     1      27.981   1.651  54.220  1.00  0.00    -0.338 OA
HETATM   24  H8  UNL     1      28.284   1.550  53.292  1.00  0.00     0.227 HD
ENDBRANCH   6  23
TORSDOF 6
ENDMDL
MODEL 3
REMARK VINA RESULT:      -6.4      2.774      4.125
REMARK  6 active torsions:
REMARK  status: ('A' for Active; 'I' for Inactive)
REMARK    1  A    between atoms: C2_2  and  N1_3 
REMARK    2  A    between atoms: N1_3  and  C3_4 
REMARK    3  A    between atoms: N1_3  and  C11_17 
REMARK    4  A    between atoms: S1_9  and  O1_10 
REMARK    5  A    between atoms: C6_11  and  C7_12 
REMARK    6  A    between atoms: C9_14  and  O2_15 
ROOT
HETATM    1  C3  UNL     1      26.907   1.448  52.421  1.00  0.00     0.122 A 
HETATM    2  N2  UNL     1      27.389   2.531  52.979  1.00  0.00    -0.227 NA
HETATM    3  C4  UNL     1      28.554   2.494  53.781  1.00  0.00     0.235 A 
HETATM    4  N3  UNL     1      29.181   1.391  53.987  1.00  0.00    -0.237 NA
HETATM    5  C5  UNL     1      28.709   0.164  53.404  1.00  0.00     0.100 A 
HETATM    6  S1  UNL     1      29.553  -1.224  53.691  1.00  0.00    -0.052 S 
HETATM    7  C6  UNL     1      27.475   0.112  52.544  1.00  0.00     0.146 A 
HETATM    8  H7  UNL     1      30.922  -1.061  54.070  1.00  0.00     0.127 HD
ENDROOT
BRANCH   1   9
HETATM    9  N1  UNL     1      25.759   1.846  51.704  1.00  0.00    -0.335 N 
BRANCH   9  10
HETATM   10  C2  UNL     1      24.551   1.074  51.914  1.00  0.00     0.126 C 
HETATM   11  C1  UNL     1      23.733   1.699  53.053  1.00  0.00     0.027 C 
ENDBRANCH   9  10
BRANCH   9  12
HETATM   12  C11 UNL     1      25.855   2.957  50.839  1.00  0.00     0.035 A 
HETATM   13  C12 UNL     1      24.941   3.992  50.873  1.00  0.00     0.029 A 
HETATM   14  C13 UNL     1      25.002   5.092  50.043  1.00  0.00     0.002 A 
HETATM   15  C14 UNL     1      26.025   5.197  49.115  1.00  0.00     0.000 A 
HETATM   16  C15 UNL     1      26.985   4.185  49.029  1.00  0.00     0.002 A 
HETATM   17  C16 UNL     1      26.844   3.128  49.894  1.00  0.00     0.029 A 
ENDBRANCH   9  12
ENDBRANCH   1   9
BRANCH   7  18
HETATM   18  C7  UNL     1      26.576  -0.860  53.266  1.00  0.00    -0.044 C 
HETATM   19  C8  UNL     1      26.116  -2.107  52.598  1.00  0.00     0.046 C 
HETATM   20  C9  UNL     1      26.165  -0.627  54.522  1.00  0.00     0.137 C 
BRANCH  20  21
HETATM   21  O2  UNL     1      25.390  -1.181  55.531  1.00  0.00    -0.368 OA
HETATM   22  C10 UNL     1      23.974  -1.174  55.370  1.00  0.00     0.208 C 
ENDBRANCH  20  21
ENDBRANCH   7  18
BRANCH   6  23
HETATM   23  O1  UNL     1      28.972  -2.681  52.985  1.00  0.00    -0.338 OA
HETATM   24  H8  UNL     1      28.393  -2.432  52.232  1.00  0.00     0.227 HD
ENDBRANCH   6  23
TORSDOF 6
ENDMDL
MODEL 4
REMARK VINA RESULT:      -6.4      2.838      5.081
REMARK  6 active torsions:
REMARK  status: ('A' for Active; 'I' for Inactive)
REMARK    1  A    between atoms: C2_2  and  N1_3 
REMARK    2  A    between atoms: N1_3  and  C3_4 
REMARK    3  A    between atoms: N1_3  and  C11_17 
REMARK    4  A    between atoms: S1_9  and  O1_10 
REMARK    5  A    between atoms: C6_11  and  C7_12 
REMARK    6  A    between atoms: C9_14  and  O2_15 
ROOT
HETATM    1  C3  UNL     1      25.100  -0.780  53.623  1.00  0.00     0.122 A 
HETATM    2  N2  UNL     1      25.222  -1.151  54.874  1.00  0.00    -0.227 NA
HETATM    3  C4  UNL     1      24.102  -1.227  55.735  1.00  0.00     0.235 A 
HETATM    4  N3  UNL     1      22.923  -0.934  55.316  1.00  0.00    -0.237 NA
HETATM    5  C5  UNL     1      22.716  -0.520  53.954  1.00  0.00     0.100 A 
HETATM    6  S1  UNL     1      21.182  -0.162  53.461  1.00  0.00    -0.052 S 
HETATM    7  C6  UNL     1      23.851  -0.406  52.973  1.00  0.00     0.146 A 
HETATM    8  H7  UNL     1      20.124  -0.737  54.232  1.00  0.00     0.127 HD
ENDROOT
BRANCH   1   9
HETATM    9  N1  UNL     1      26.396  -0.818  53.067  1.00  0.00    -0.335 N 
BRANCH   9  10
HETATM   10  C2  UNL     1      26.720  -1.955  52.229  1.00  0.00     0.126 C 
HETATM   11  C1  UNL     1      27.924  -2.702  52.819  1.00  0.00     0.027 C 
ENDBRANCH   9  10
BRANCH   9  12
HETATM   12  C11 UNL     1      27.285   0.239  53.356  1.00  0.00     0.035 A 
HETATM   13  C12 UNL     1      27.321   1.393  52.599  1.00  0.00     0.029 A 
HETATM   14  C13 UNL     1      28.176   2.446  52.851  1.00  0.00     0.002 A 
HETATM   15  C14 UNL     1      29.060   2.374  53.915  1.00  0.00     0.000 A 
HETATM   16  C15 UNL     1      29.076   1.233  54.722  1.00  0.00     0.002 A 
HETATM   17  C16 UNL     1      28.190   0.236  54.396  1.00  0.00     0.029 A 
ENDBRANCH   9  12
ENDBRANCH   1   9
BRANCH   7  18
HETATM   18  C7  UNL     1      23.806   1.038  52.540  1.00  0.00    -0.044 C 
HETATM   19  C8  UNL     1      23.964   2.133  53.534  1.00  0.00     0.046 C 
HETATM   20  C9  UNL     1      23.619   1.374  51.254  1.00  0.00     0.137 C 
BRANCH  20  21
HETATM   21  O2  UNL     1      23.511   2.483  50.427  1.00  0.00    -0.368 OA
HETATM   22  C10 UNL     1      22.687   2.377  49.268  1.00  0.00     0.208 C 
ENDBRANCH  20  21
ENDBRANCH   7  18
BRANCH   6  23
HETATM   23  O1  UNL     1      20.955   0.331  51.829  1.00  0.00    -0.338 OA
HETATM   24  H8  UNL     1      20.479  -0.393  51.367  1.00  0.00     0.227 HD
ENDBRANCH   6  23
TORSDOF 6
ENDMDL
MODEL 5
REMARK VINA RESULT:      -6.4      3.090      5.706
REMARK  6 active torsions:
REMARK  status: ('A' for Active; 'I' for Inactive)
REMARK    1  A    between atoms: C2_2  and  N1_3 
REMARK    2  A    between atoms: N1_3  and  C3_4 
REMARK    3  A    between atoms: N1_3  and  C11_17 
REMARK    4  A    between atoms: S1_9  and  O1_10 
REMARK    5  A    between atoms: C6_11  and  C7_12 
REMARK    6  A    between atoms: C9_14  and  O2_15 
ROOT
HETATM    1  C3  UNL     1      25.529   1.600  52.138  1.00  0.00     0.122 A 
HETATM    2  N2  UNL     1      26.468   1.723  51.232  1.00  0.00    -0.227 NA
HETATM    3  C4  UNL     1      26.521   2.845  50.372  1.00  0.00     0.235 A 
HETATM    4  N3  UNL     1      25.647   3.784  50.451  1.00  0.00    -0.237 NA
HETATM    5  C5  UNL     1      24.590   3.714  51.424  1.00  0.00     0.100 A 
HETATM    6  S1  UNL     1      23.496   4.948  51.494  1.00  0.00    -0.052 S 
HETATM    7  C6  UNL     1      24.454   2.555  52.374  1.00  0.00     0.146 A 
HETATM    8  H7  UNL     1      23.926   6.200  50.953  1.00  0.00     0.127 HD
ENDROOT
BRANCH   1   9
HETATM    9  N1  UNL     1      25.779   0.383  52.807  1.00  0.00    -0.335 N 
BRANCH   9  10
HETATM   10  C2  UNL     1      24.636  -0.470  53.070  1.00  0.00     0.126 C 
HETATM   11  C1  UNL     1      24.538  -0.747  54.577  1.00  0.00     0.027 C 
ENDBRANCH   9  10
BRANCH   9  12
HETATM   12  C11 UNL     1      27.106   0.074  53.173  1.00  0.00     0.035 A 
HETATM   13  C12 UNL     1      27.691  -1.135  52.850  1.00  0.00     0.029 A 
HETATM   14  C13 UNL     1      28.984  -1.472  53.192  1.00  0.00     0.002 A 
HETATM   15  C14 UNL     1      29.767  -0.571  53.895  1.00  0.00     0.000 A 
HETATM   16  C15 UNL     1      29.236   0.671  54.253  1.00  0.00     0.002 A 
HETATM   17  C16 UNL     1      27.941   0.919  53.871  1.00  0.00     0.029 A 
ENDBRANCH   9  12
ENDBRANCH   1   9
BRANCH   7  18
HETATM   18  C7  UNL     1      23.083   2.004  52.074  1.00  0.00    -0.044 C 
HETATM   19  C8  UNL     1      22.669   1.722  50.673  1.00  0.00     0.046 C 
HETATM   20  C9  UNL     1      22.201   1.757  53.055  1.00  0.00     0.137 C 
BRANCH  20  21
HETATM   21  O2  UNL     1      20.913   1.285  53.263  1.00  0.00    -0.368 OA
HETATM   22  C10 UNL     1      20.728   0.239  54.214  1.00  0.00     0.208 C 
ENDBRANCH  20  21
ENDBRANCH   7  18
BRANCH   6  23
HETATM   23  O1  UNL     1      22.240   4.845  52.664  1.00  0.00    -0.338 OA
HETATM   24  H8  UNL     1      21.898   3.925  52.649  1.00  0.00     0.227 HD
ENDBRANCH   6  23
TORSDOF 6
ENDMDL
MODEL 6
REMARK VINA RESULT:      -6.3      2.801      5.036
REMARK  6 active torsions:
REMARK  status: ('A' for Active; 'I' for Inactive)
REMARK    1  A    between atoms: C2_2  and  N1_3 
REMARK    2  A    between atoms: N1_3  and  C3_4 
REMARK    3  A    between atoms: N1_3  and  C11_17 
REMARK    4  A    between atoms: S1_9  and  O1_10 
REMARK    5  A    between atoms: C6_11  and  C7_12 
REMARK    6  A    between atoms: C9_14  and  O2_15 
ROOT
HETATM    1  C3  UNL     1      21.899   2.818  50.994  1.00  0.00     0.122 A 
HETATM    2  N2  UNL     1      20.896   3.639  51.185  1.00  0.00    -0.227 NA
HETATM    3  C4  UNL     1      21.080   5.042  51.185  1.00  0.00     0.235 A 
HETATM    4  N3  UNL     1      22.242   5.559  50.997  1.00  0.00    -0.237 NA
HETATM    5  C5  UNL     1      23.387   4.716  50.780  1.00  0.00     0.100 A 
HETATM    6  S1  UNL     1      24.856   5.426  50.535  1.00  0.00    -0.052 S 
HETATM    7  C6  UNL     1      23.283   3.214  50.770  1.00  0.00     0.146 A 
HETATM    8  H7  UNL     1      24.831   6.779  50.073  1.00  0.00     0.127 HD
ENDROOT
BRANCH   1   9
HETATM    9  N1  UNL     1      21.363   1.514  51.054  1.00  0.00    -0.335 N 
BRANCH   9  10
HETATM   10  C2  UNL     1      20.708   1.015  49.861  1.00  0.00     0.126 C 
HETATM   11  C1  UNL     1      21.673   1.106  48.670  1.00  0.00     0.027 C 
ENDBRANCH   9  10
BRANCH   9  12
HETATM   12  C11 UNL     1      21.497   0.784  52.254  1.00  0.00     0.035 A 
HETATM   13  C12 UNL     1      20.723   1.053  53.365  1.00  0.00     0.029 A 
HETATM   14  C13 UNL     1      20.826   0.362  54.555  1.00  0.00     0.002 A 
HETATM   15  C14 UNL     1      21.747  -0.665  54.674  1.00  0.00     0.000 A 
HETATM   16  C15 UNL     1      22.563  -0.991  53.587  1.00  0.00     0.002 A 
HETATM   17  C16 UNL     1      22.390  -0.249  52.445  1.00  0.00     0.029 A 
ENDBRANCH   9  12
ENDBRANCH   1   9
BRANCH   7  18
HETATM   18  C7  UNL     1      24.219   2.783  51.871  1.00  0.00    -0.044 C 
HETATM   19  C8  UNL     1      24.077   3.333  53.246  1.00  0.00     0.046 C 
HETATM   20  C9  UNL     1      25.203   1.899  51.642  1.00  0.00     0.137 C 
BRANCH  20  21
HETATM   21  O2  UNL     1      26.242   1.241  52.285  1.00  0.00    -0.368 OA
HETATM   22  C10 UNL     1      26.104  -0.158  52.522  1.00  0.00     0.208 C 
ENDBRANCH  20  21
ENDBRANCH   7  18
BRANCH   6  23
HETATM   23  O1  UNL     1      26.213   4.400  50.277  1.00  0.00    -0.338 OA
HETATM   24  H8  UNL     1      25.947   3.718  49.624  1.00  0.00     0.227 HD
ENDBRANCH   6  23
TORSDOF 6
ENDMDL
MODEL 7
REMARK VINA RESULT:      -6.2      3.496      6.027
REMARK  6 active torsions:
REMARK  status: ('A' for Active; 'I' for Inactive)
REMARK    1  A    between atoms: C2_2  and  N1_3 
REMARK    2  A    between atoms: N1_3  and  C3_4 
REMARK    3  A    between atoms: N1_3  and  C11_17 
REMARK    4  A    between atoms: S1_9  and  O1_10 
REMARK    5  A    between atoms: C6_11  and  C7_12 
REMARK    6  A    between atoms: C9_14  and  O2_15 
ROOT
HETATM    1  C3  UNL     1      23.724   1.149  52.526  1.00  0.00     0.122 A 
HETATM    2  N2  UNL     1      24.755   1.637  51.881  1.00  0.00    -0.227 NA
HETATM    3  C4  UNL     1      24.666   2.846  51.152  1.00  0.00     0.235 A 
HETATM    4  N3  UNL     1      23.566   3.509  51.100  1.00  0.00    -0.237 NA
HETATM    5  C5  UNL     1      22.395   3.032  51.785  1.00  0.00     0.100 A 
HETATM    6  S1  UNL     1      21.009   3.923  51.695  1.00  0.00    -0.052 S 
HETATM    7  C6  UNL     1      22.399   1.754  52.579  1.00  0.00     0.146 A 
HETATM    8  H7  UNL     1      21.171   5.307  51.375  1.00  0.00     0.127 HD
ENDROOT
BRANCH   1   9
HETATM    9  N1  UNL     1      24.162  -0.047  53.133  1.00  0.00    -0.335 N 
BRANCH   9  10
HETATM   10  C2  UNL     1      23.153  -1.045  53.427  1.00  0.00     0.126 C 
HETATM   11  C1  UNL     1      22.924  -1.112  54.944  1.00  0.00     0.027 C 
ENDBRANCH   9  10
BRANCH   9  12
HETATM   12  C11 UNL     1      25.537  -0.197  53.411  1.00  0.00     0.035 A 
HETATM   13  C12 UNL     1      26.144   0.446  54.472  1.00  0.00     0.029 A 
HETATM   14  C13 UNL     1      27.485   0.323  54.774  1.00  0.00     0.002 A 
HETATM   15  C14 UNL     1      28.295  -0.483  53.990  1.00  0.00     0.000 A 
HETATM   16  C15 UNL     1      27.743  -1.164  52.901  1.00  0.00     0.002 A 
HETATM   17  C16 UNL     1      26.402  -0.982  52.677  1.00  0.00     0.029 A 
ENDBRANCH   9  12
ENDBRANCH   1   9
BRANCH   7  18
HETATM   18  C7  UNL     1      21.330   0.919  51.918  1.00  0.00    -0.044 C 
HETATM   19  C8  UNL     1      21.395   0.618  50.463  1.00  0.00     0.046 C 
HETATM   20  C9  UNL     1      20.295   0.432  52.619  1.00  0.00     0.137 C 
BRANCH  20  21
HETATM   21  O2  UNL     1      19.145  -0.330  52.469  1.00  0.00    -0.368 OA
HETATM   22  C10 UNL     1      18.039   0.251  51.782  1.00  0.00     0.208 C 
ENDBRANCH  20  21
ENDBRANCH   7  18
BRANCH   6  23
HETATM   23  O1  UNL     1      19.619   3.336  52.522  1.00  0.00    -0.338 OA
HETATM   24  H8  UNL     1      19.227   4.092  53.011  1.00  0.00     0.227 HD
ENDBRANCH   6  23
TORSDOF 6
ENDMDL
MODEL 8
REMARK VINA RESULT:      -6.2      3.287      5.718
REMARK  6 active torsions:
REMARK  status: ('A' for Active; 'I' for Inactive)
REMARK    1  A    between atoms: C2_2  and  N1_3 
REMARK    2  A    between atoms: N1_3  and  C3_4 
REMARK    3  A    between atoms: N1_3  and  C11_17 
REMARK    4  A    between atoms: S1_9  and  O1_10 
REMARK    5  A    between atoms: C6_11  and  C7_12 
REMARK    6  A    between atoms: C9_14  and  O2_15 
ROOT
HETATM    1  C3  UNL     1      25.570   3.080  51.025  1.00  0.00     0.122 A 
HETATM    2  N2  UNL     1      26.500   2.915  50.117  1.00  0.00    -0.227 NA
HETATM    3  C4  UNL     1      26.837   3.948  49.210  1.00  0.00     0.235 A 
HETATM    4  N3  UNL     1      26.240   5.085  49.249  1.00  0.00    -0.237 NA
HETATM    5  C5  UNL     1      25.210   5.335  50.222  1.00  0.00     0.100 A 
HETATM    6  S1  UNL     1      24.479   6.814  50.238  1.00  0.00    -0.052 S 
HETATM    7  C6  UNL     1      24.785   4.292  51.220  1.00  0.00     0.146 A 
HETATM    8  H7  UNL     1      25.217   7.886  49.645  1.00  0.00     0.127 HD
ENDROOT
BRANCH   1   9
HETATM    9  N1  UNL     1      25.498   1.868  51.745  1.00  0.00    -0.335 N 
BRANCH   9  10
HETATM   10  C2  UNL     1      24.232   1.163  51.723  1.00  0.00     0.126 C 
HETATM   11  C1  UNL     1      23.698   1.023  53.156  1.00  0.00     0.027 C 
ENDBRANCH   9  10
BRANCH   9  12
HETATM   12  C11 UNL     1      26.647   1.422  52.432  1.00  0.00     0.035 A 
HETATM   13  C12 UNL     1      27.032   0.096  52.431  1.00  0.00     0.029 A 
HETATM   14  C13 UNL     1      28.147  -0.377  53.090  1.00  0.00     0.002 A 
HETATM   15  C14 UNL     1      28.949   0.501  53.801  1.00  0.00     0.000 A 
HETATM   16  C15 UNL     1      28.618   1.858  53.842  1.00  0.00     0.002 A 
HETATM   17  C16 UNL     1      27.490   2.237  53.157  1.00  0.00     0.029 A 
ENDBRANCH   9  12
ENDBRANCH   1   9
BRANCH   7  18
HETATM   18  C7  UNL     1      23.315   4.108  50.940  1.00  0.00    -0.044 C 
HETATM   19  C8  UNL     1      22.835   3.815  49.563  1.00  0.00     0.046 C 
HETATM   20  C9  UNL     1      22.402   4.206  51.920  1.00  0.00     0.137 C 
BRANCH  20  21
HETATM   21  O2  UNL     1      21.035   4.124  52.142  1.00  0.00    -0.368 OA
HETATM   22  C10 UNL     1      20.475   2.841  52.412  1.00  0.00     0.208 C 
ENDBRANCH  20  21
ENDBRANCH   7  18
BRANCH   6  23
HETATM   23  O1  UNL     1      23.251   7.093  51.409  1.00  0.00    -0.338 OA
HETATM   24  H8  UNL     1      22.917   6.216  51.700  1.00  0.00     0.227 HD
ENDBRANCH   6  23
TORSDOF 6
ENDMDL
MODEL 9
REMARK VINA RESULT:      -6.2      2.970      5.535
REMARK  6 active torsions:
REMARK  status: ('A' for Active; 'I' for Inactive)
REMARK    1  A    between atoms: C2_2  and  N1_3 
REMARK    2  A    between atoms: N1_3  and  C3_4 
REMARK    3  A    between atoms: N1_3  and  C11_17 
REMARK    4  A    between atoms: S1_9  and  O1_10 
REMARK    5  A    between atoms: C6_11  and  C7_12 
REMARK    6  A    between atoms: C9_14  and  O2_15 
ROOT
HETATM    1  C3  UNL     1      25.411   1.599  52.150  1.00  0.00     0.122 A 
HETATM    2  N2  UNL     1      26.397   1.767  51.304  1.00  0.00    -0.227 NA
HETATM    3  C4  UNL     1      26.453   2.891  50.447  1.00  0.00     0.235 A 
HETATM    4  N3  UNL     1      25.533   3.789  50.471  1.00  0.00    -0.237 NA
HETATM    5  C5  UNL     1      24.422   3.669  51.376  1.00  0.00     0.100 A 
HETATM    6  S1  UNL     1      23.271   4.851  51.376  1.00  0.00    -0.052 S 
HETATM    7  C6  UNL     1      24.281   2.503  52.318  1.00  0.00     0.146 A 
HETATM    8  H7  UNL     1      23.676   6.122  50.861  1.00  0.00     0.127 HD
ENDROOT
BRANCH   1   9
HETATM    9  N1  UNL     1      25.674   0.394  52.835  1.00  0.00    -0.335 N 
BRANCH   9  10
HETATM   10  C2  UNL     1      24.552  -0.499  53.050  1.00  0.00     0.126 C 
HETATM   11  C1  UNL     1      24.427  -0.814  54.548  1.00  0.00     0.027 C 
ENDBRANCH   9  10
BRANCH   9  12
HETATM   12  C11 UNL     1      26.993   0.133  53.260  1.00  0.00     0.035 A 
HETATM   13  C12 UNL     1      27.688   1.010  54.070  1.00  0.00     0.029 A 
HETATM   14  C13 UNL     1      28.979   0.790  54.504  1.00  0.00     0.002 A 
HETATM   15  C14 UNL     1      29.642  -0.366  54.128  1.00  0.00     0.000 A 
HETATM   16  C15 UNL     1      28.996  -1.298  53.310  1.00  0.00     0.002 A 
HETATM   17  C16 UNL     1      27.714  -0.994  52.926  1.00  0.00     0.029 A 
ENDBRANCH   9  12
ENDBRANCH   1   9
BRANCH   7  18
HETATM   18  C7  UNL     1      22.958   1.891  51.933  1.00  0.00    -0.044 C 
HETATM   19  C8  UNL     1      21.954   1.537  52.973  1.00  0.00     0.046 C 
HETATM   20  C9  UNL     1      22.651   1.644  50.650  1.00  0.00     0.137 C 
BRANCH  20  21
HETATM   21  O2  UNL     1      21.636   1.130  49.856  1.00  0.00    -0.368 OA
HETATM   22  C10 UNL     1      21.779   1.222  48.440  1.00  0.00     0.208 C 
ENDBRANCH  20  21
ENDBRANCH   7  18
BRANCH   6  23
HETATM   23  O1  UNL     1      21.950   4.690  52.466  1.00  0.00    -0.338 OA
HETATM   24  H8  UNL     1      21.521   5.570  52.541  1.00  0.00     0.227 HD
ENDBRANCH   6  23
TORSDOF 6
ENDMDL
