MODEL 1
REMARK VINA RESULT:      -9.9      0.000      0.000
REMARK  2 active torsions:
REMARK  status: ('A' for Active; 'I' for Inactive)
REMARK    1  A    between atoms: C6_8  and  N2_9 
REMARK    2  A    between atoms: N2_9  and  C7_10 
ROOT
HETATM    1  C1  UNL     1      21.430   3.225  49.289  1.00  0.00     0.053 C 
HETATM    2  C2  UNL     1      20.855   2.967  50.699  1.00  0.00     0.197 A 
HETATM    3  C3  UNL     1      20.554   4.404  51.196  1.00  0.00     0.053 C 
HETATM    4  N1  UNL     1      21.741   2.418  51.600  1.00  0.00     0.248 N 
HETATM    5  O1  UNL     1      22.343   1.214  51.433  1.00  0.00    -0.145 OA
HETATM    6  C4  UNL     1      22.872   0.497  52.505  1.00  0.00     0.193 C 
HETATM    7  C5  UNL     1      23.070  -0.230  53.563  1.00  0.00     0.063 A 
HETATM    8  C6  UNL     1      24.386  -0.349  53.861  1.00  0.00     0.144 A 
HETATM    9  N3  UNL     1      24.723  -1.009  54.967  1.00  0.00    -0.223 NA
HETATM   10  C13 UNL     1      23.805  -1.534  55.757  1.00  0.00     0.236 A 
HETATM   11  N4  UNL     1      22.525  -1.390  55.416  1.00  0.00    -0.241 NA
HETATM   12  C14 UNL     1      22.084  -0.744  54.319  1.00  0.00     0.073 A 
HETATM   13  C15 UNL     1      20.796  -0.887  54.258  1.00  0.00     0.031 C 
HETATM   14  C16 UNL     1      19.655  -0.631  53.424  1.00  0.00     0.002 C 
HETATM   15  C17 UNL     1      18.974  -0.226  52.394  1.00  0.00     0.127 C 
HETATM   16  N5  UNL     1      18.475   0.272  51.209  1.00  0.00    -0.395 N 
HETATM   17  C18 UNL     1      18.269   1.511  50.561  1.00  0.00     0.188 C 
HETATM   18 CL1  UNL     1      16.906   2.407  51.277  1.00  0.00    -0.102 Cl
HETATM   19  C19 UNL     1      19.513   2.311  50.567  1.00  0.00     0.060 A 
HETATM   20  O2  UNL     1      20.444   1.882  51.203  1.00  0.00     0.000 OA
HETATM   21  H7  UNL     1      22.003   2.932  52.454  1.00  0.00     0.360 HD
HETATM   22  H18 UNL     1      18.177  -0.642  50.785  1.00  0.00     0.155 HD
ENDROOT
BRANCH   8  23
HETATM   23  N2  UNL     1      25.490   0.167  53.127  1.00  0.00    -0.340 N 
HETATM   24  H9  UNL     1      25.528   0.860  52.328  1.00  0.00     0.167 HD
BRANCH  23  25
HETATM   25  C7  UNL     1      26.841  -0.201  53.368  1.00  0.00     0.033 A 
HETATM   26  C8  UNL     1      27.749   0.539  54.089  1.00  0.00     0.032 A 
HETATM   27  C9  UNL     1      29.049   0.237  54.335  1.00  0.00     0.044 A 
HETATM   28  C10 UNL     1      29.560  -0.937  53.822  1.00  0.00     0.116 A 
HETATM   29  F1  UNL     1      30.850  -1.251  54.058  1.00  0.00    -0.206 F 
HETATM   30  C11 UNL     1      28.708  -1.758  53.073  1.00  0.00     0.044 A 
HETATM   31  C12 UNL     1      27.405  -1.368  52.877  1.00  0.00     0.032 A 
ENDBRANCH  23  25
ENDBRANCH   8  23
TORSDOF 2
ENDMDL
MODEL 2
REMARK VINA RESULT:      -9.9      2.326      4.354
REMARK  2 active torsions:
REMARK  status: ('A' for Active; 'I' for Inactive)
REMARK    1  A    between atoms: C6_8  and  N2_9 
REMARK    2  A    between atoms: N2_9  and  C7_10 
ROOT
HETATM    1  C1  UNL     1      21.671  -0.337  55.070  1.00  0.00     0.053 C 
HETATM    2  C2  UNL     1      21.740  -0.330  53.528  1.00  0.00     0.197 A 
HETATM    3  C3  UNL     1      21.679  -1.843  53.192  1.00  0.00     0.053 C 
HETATM    4  N1  UNL     1      22.920   0.142  52.997  1.00  0.00     0.248 N 
HETATM    5  O1  UNL     1      23.393   1.397  53.199  1.00  0.00    -0.145 OA
HETATM    6  C4  UNL     1      24.320   1.985  52.341  1.00  0.00     0.193 C 
HETATM    7  C5  UNL     1      24.942   2.562  51.356  1.00  0.00     0.063 A 
HETATM    8  C6  UNL     1      26.261   2.729  51.614  1.00  0.00     0.144 A 
HETATM    9  N3  UNL     1      27.029   3.242  50.655  1.00  0.00    -0.223 NA
HETATM   10  C13 UNL     1      26.525   3.579  49.483  1.00  0.00     0.236 A 
HETATM   11  N4  UNL     1      25.221   3.395  49.282  1.00  0.00    -0.241 NA
HETATM   12  C14 UNL     1      24.362   2.887  50.188  1.00  0.00     0.073 A 
HETATM   13  C15 UNL     1      23.167   2.946  49.686  1.00  0.00     0.031 C 
HETATM   14  C16 UNL     1      21.782   2.735  50.004  1.00  0.00     0.002 C 
HETATM   15  C17 UNL     1      20.733   2.438  50.711  1.00  0.00     0.127 C 
HETATM   16  N5  UNL     1      19.784   2.084  51.648  1.00  0.00    -0.395 N 
HETATM   17  C18 UNL     1      19.330   0.942  52.345  1.00  0.00     0.188 C 
HETATM   18 CL1  UNL     1      18.395  -0.144  51.287  1.00  0.00    -0.102 Cl
HETATM   19  C19 UNL     1      20.464   0.240  52.984  1.00  0.00     0.060 A 
HETATM   20  O2  UNL     1      21.575   0.637  52.729  1.00  0.00     0.000 OA
HETATM   21  H7  UNL     1      23.517  -0.471  52.424  1.00  0.00     0.360 HD
HETATM   22  H18 UNL     1      19.333   3.027  51.756  1.00  0.00     0.155 HD
ENDROOT
BRANCH   8  23
HETATM   23  N2  UNL     1      26.957   2.406  52.812  1.00  0.00    -0.340 N 
HETATM   24  H9  UNL     1      27.079   2.951  53.711  1.00  0.00     0.167 HD
BRANCH  23  25
HETATM   25  C7  UNL     1      27.666   1.191  53.011  1.00  0.00     0.033 A 
HETATM   26  C8  UNL     1      27.156  -0.069  52.804  1.00  0.00     0.032 A 
HETATM   27  C9  UNL     1      27.788  -1.256  52.992  1.00  0.00     0.044 A 
HETATM   28  C10 UNL     1      29.092  -1.243  53.442  1.00  0.00     0.116 A 
HETATM   29  F1  UNL     1      29.734  -2.413  53.633  1.00  0.00    -0.206 F 
HETATM   30  C11 UNL     1      29.697  -0.002  53.680  1.00  0.00     0.044 A 
HETATM   31  C12 UNL     1      28.976   1.147  53.461  1.00  0.00     0.032 A 
ENDBRANCH  23  25
ENDBRANCH   8  23
TORSDOF 2
ENDMDL
MODEL 3
REMARK VINA RESULT:      -9.5      2.361      3.122
REMARK  2 active torsions:
REMARK  status: ('A' for Active; 'I' for Inactive)
REMARK    1  A    between atoms: C6_8  and  N2_9 
REMARK    2  A    between atoms: N2_9  and  C7_10 
ROOT
HETATM    1  C1  UNL     1      24.868   5.423  48.944  1.00  0.00     0.053 C 
HETATM    2  C2  UNL     1      23.504   4.900  49.443  1.00  0.00     0.197 A 
HETATM    3  C3  UNL     1      22.809   6.202  49.917  1.00  0.00     0.053 C 
HETATM    4  N1  UNL     1      23.562   4.066  50.537  1.00  0.00     0.248 N 
HETATM    5  O1  UNL     1      24.221   2.880  50.552  1.00  0.00    -0.145 OA
HETATM    6  C4  UNL     1      23.922   1.880  51.476  1.00  0.00     0.193 C 
HETATM    7  C5  UNL     1      23.397   0.906  52.158  1.00  0.00     0.063 A 
HETATM    8  C6  UNL     1      24.140   0.586  53.244  1.00  0.00     0.144 A 
HETATM    9  N3  UNL     1      23.675  -0.347  54.072  1.00  0.00    -0.223 NA
HETATM   10  C13 UNL     1      22.522  -0.947  53.846  1.00  0.00     0.236 A 
HETATM   11  N4  UNL     1      21.830  -0.596  52.763  1.00  0.00    -0.241 NA
HETATM   12  C14 UNL     1      22.216   0.333  51.865  1.00  0.00     0.073 A 
HETATM   13  C15 UNL     1      21.353   0.341  50.897  1.00  0.00     0.031 C 
HETATM   14  C16 UNL     1      21.093   0.903  49.601  1.00  0.00     0.002 C 
HETATM   15  C17 UNL     1      21.285   1.607  48.526  1.00  0.00     0.127 C 
HETATM   16  N5  UNL     1      21.704   2.420  47.494  1.00  0.00    -0.395 N 
HETATM   17  C18 UNL     1      21.890   3.791  47.208  1.00  0.00     0.188 C 
HETATM   18 CL1  UNL     1      20.337   4.628  46.965  1.00  0.00    -0.102 Cl
HETATM   19  C19 UNL     1      22.699   4.435  48.266  1.00  0.00     0.060 A 
HETATM   20  O2  UNL     1      22.962   3.775  49.241  1.00  0.00     0.000 OA
HETATM   21  H7  UNL     1      23.108   4.334  51.422  1.00  0.00     0.360 HD
HETATM   22  H18 UNL     1      21.871   1.668  46.780  1.00  0.00     0.155 HD
ENDROOT
BRANCH   8  23
HETATM   23  N2  UNL     1      25.389   1.145  53.633  1.00  0.00    -0.340 N 
HETATM   24  H9  UNL     1      25.644   2.125  53.942  1.00  0.00     0.167 HD
BRANCH  23  25
HETATM   25  C7  UNL     1      26.606   0.412  53.670  1.00  0.00     0.033 A 
HETATM   26  C8  UNL     1      27.711   0.746  54.418  1.00  0.00     0.032 A 
HETATM   27  C9  UNL     1      28.896   0.087  54.477  1.00  0.00     0.044 A 
HETATM   28  C10 UNL     1      29.054  -1.052  53.716  1.00  0.00     0.116 A 
HETATM   29  F1  UNL     1      30.226  -1.718  53.764  1.00  0.00    -0.206 F 
HETATM   30  C11 UNL     1      27.980  -1.471  52.921  1.00  0.00     0.044 A 
HETATM   31  C12 UNL     1      26.818  -0.738  52.927  1.00  0.00     0.032 A 
ENDBRANCH  23  25
ENDBRANCH   8  23
TORSDOF 2
ENDMDL
MODEL 4
REMARK VINA RESULT:      -9.5      6.743      8.791
REMARK  2 active torsions:
REMARK  status: ('A' for Active; 'I' for Inactive)
REMARK    1  A    between atoms: C6_8  and  N2_9 
REMARK    2  A    between atoms: N2_9  and  C7_10 
ROOT
HETATM    1  C1  UNL     1      31.289   5.217  47.382  1.00  0.00     0.053 C 
HETATM    2  C2  UNL     1      30.361   6.195  48.134  1.00  0.00     0.197 A 
HETATM    3  C3  UNL     1      31.339   6.876  49.126  1.00  0.00     0.053 C 
HETATM    4  N1  UNL     1      29.380   5.600  48.897  1.00  0.00     0.248 N 
HETATM    5  O1  UNL     1      28.413   4.793  48.393  1.00  0.00    -0.145 OA
HETATM    6  C4  UNL     1      27.218   4.560  49.070  1.00  0.00     0.193 C 
HETATM    7  C5  UNL     1      26.036   4.627  49.606  1.00  0.00     0.063 A 
HETATM    8  C6  UNL     1      25.716   3.494  50.277  1.00  0.00     0.144 A 
HETATM    9  N3  UNL     1      24.560   3.460  50.937  1.00  0.00    -0.223 NA
HETATM   10  C13 UNL     1      23.744   4.498  50.942  1.00  0.00     0.236 A 
HETATM   11  N4  UNL     1      24.107   5.587  50.265  1.00  0.00    -0.241 NA
HETATM   12  C14 UNL     1      25.251   5.718  49.565  1.00  0.00     0.073 A 
HETATM   13  C15 UNL     1      25.223   6.865  48.959  1.00  0.00     0.031 C 
HETATM   14  C16 UNL     1      25.932   7.672  48.005  1.00  0.00     0.002 C 
HETATM   15  C17 UNL     1      26.848   8.009  47.148  1.00  0.00     0.127 C 
HETATM   16  N5  UNL     1      27.915   8.140  46.284  1.00  0.00    -0.395 N 
HETATM   17  C18 UNL     1      29.318   8.305  46.321  1.00  0.00     0.188 C 
HETATM   18 CL1  UNL     1      29.773   9.956  46.810  1.00  0.00    -0.102 Cl
HETATM   19  C19 UNL     1      29.937   7.285  47.196  1.00  0.00     0.060 A 
HETATM   20  O2  UNL     1      29.194   6.576  47.830  1.00  0.00     0.000 OA
HETATM   21  H7  UNL     1      29.359   5.736  49.918  1.00  0.00     0.360 HD
HETATM   22  H18 UNL     1      27.373   8.122  45.384  1.00  0.00     0.155 HD
ENDROOT
BRANCH   8  23
HETATM   23  N2  UNL     1      26.485   2.303  50.381  1.00  0.00    -0.340 N 
HETATM   24  H9  UNL     1      26.899   1.678  49.633  1.00  0.00     0.167 HD
BRANCH  23  25
HETATM   25  C7  UNL     1      26.854   1.704  51.616  1.00  0.00     0.033 A 
HETATM   26  C8  UNL     1      27.572   2.320  52.613  1.00  0.00     0.032 A 
HETATM   27  C9  UNL     1      27.958   1.787  53.801  1.00  0.00     0.044 A 
HETATM   28  C10 UNL     1      27.610   0.482  54.080  1.00  0.00     0.116 A 
HETATM   29  F1  UNL     1      27.985  -0.062  55.256  1.00  0.00    -0.206 F 
HETATM   30  C11 UNL     1      26.875  -0.227  53.122  1.00  0.00     0.044 A 
HETATM   31  C12 UNL     1      26.530   0.398  51.947  1.00  0.00     0.032 A 
ENDBRANCH  23  25
ENDBRANCH   8  23
TORSDOF 2
ENDMDL
MODEL 5
REMARK VINA RESULT:      -9.3      2.476      3.191
REMARK  2 active torsions:
REMARK  status: ('A' for Active; 'I' for Inactive)
REMARK    1  A    between atoms: C6_8  and  N2_9 
REMARK    2  A    between atoms: N2_9  and  C7_10 
ROOT
HETATM    1  C1  UNL     1      25.013   5.147  48.906  1.00  0.00     0.053 C 
HETATM    2  C2  UNL     1      24.069   5.095  50.127  1.00  0.00     0.197 A 
HETATM    3  C3  UNL     1      24.440   6.398  50.881  1.00  0.00     0.053 C 
HETATM    4  N1  UNL     1      24.301   4.056  51.001  1.00  0.00     0.248 N 
HETATM    5  O1  UNL     1      24.219   2.746  50.660  1.00  0.00    -0.145 OA
HETATM    6  C4  UNL     1      24.030   1.745  51.611  1.00  0.00     0.193 C 
HETATM    7  C5  UNL     1      23.565   0.918  52.499  1.00  0.00     0.063 A 
HETATM    8  C6  UNL     1      24.517   0.065  52.949  1.00  0.00     0.144 A 
HETATM    9  N3  UNL     1      24.191  -0.787  53.918  1.00  0.00    -0.223 NA
HETATM   10  C13 UNL     1      22.976  -0.805  54.432  1.00  0.00     0.236 A 
HETATM   11  N4  UNL     1      22.077   0.054  53.953  1.00  0.00    -0.241 NA
HETATM   12  C14 UNL     1      22.308   0.951  52.974  1.00  0.00     0.073 A 
HETATM   13  C15 UNL     1      21.187   1.545  52.699  1.00  0.00     0.031 C 
HETATM   14  C16 UNL     1      20.579   2.474  51.788  1.00  0.00     0.002 C 
HETATM   15  C17 UNL     1      20.473   3.295  50.787  1.00  0.00     0.127 C 
HETATM   16  N5  UNL     1      20.602   4.111  49.682  1.00  0.00    -0.395 N 
HETATM   17  C18 UNL     1      21.224   5.322  49.302  1.00  0.00     0.188 C 
HETATM   18 CL1  UNL     1      20.390   6.734  49.996  1.00  0.00    -0.102 Cl
HETATM   19  C19 UNL     1      22.658   5.302  49.663  1.00  0.00     0.060 A 
HETATM   20  O2  UNL     1      23.052   4.366  50.315  1.00  0.00     0.000 OA
HETATM   21  H7  UNL     1      24.576   4.246  51.976  1.00  0.00     0.360 HD
HETATM   22  H18 UNL     1      19.989   3.563  49.029  1.00  0.00     0.155 HD
ENDROOT
BRANCH   8  23
HETATM   23  N2  UNL     1      25.867  -0.032  52.512  1.00  0.00    -0.340 N 
HETATM   24  H9  UNL     1      26.295  -0.542  51.689  1.00  0.00     0.167 HD
BRANCH  23  25
HETATM   25  C7  UNL     1      26.960   0.592  53.174  1.00  0.00     0.033 A 
HETATM   26  C8  UNL     1      27.442   1.849  52.895  1.00  0.00     0.032 A 
HETATM   27  C9  UNL     1      28.487   2.482  53.488  1.00  0.00     0.044 A 
HETATM   28  C10 UNL     1      29.170   1.824  54.489  1.00  0.00     0.116 A 
HETATM   29  F1  UNL     1      30.210   2.439  55.089  1.00  0.00    -0.206 F 
HETATM   30  C11 UNL     1      28.749   0.536  54.843  1.00  0.00     0.044 A 
HETATM   31  C12 UNL     1      27.680  -0.022  54.185  1.00  0.00     0.032 A 
ENDBRANCH  23  25
ENDBRANCH   8  23
TORSDOF 2
ENDMDL
MODEL 6
REMARK VINA RESULT:      -8.9      4.175      6.801
REMARK  2 active torsions:
REMARK  status: ('A' for Active; 'I' for Inactive)
REMARK    1  A    between atoms: C6_8  and  N2_9 
REMARK    2  A    between atoms: N2_9  and  C7_10 
ROOT
HETATM    1  C1  UNL     1      25.936   0.820  54.311  1.00  0.00     0.053 C 
HETATM    2  C2  UNL     1      24.789   0.646  53.293  1.00  0.00     0.197 A 
HETATM    3  C3  UNL     1      25.405  -0.351  52.277  1.00  0.00     0.053 C 
HETATM    4  N1  UNL     1      24.461   1.778  52.581  1.00  0.00     0.248 N 
HETATM    5  O1  UNL     1      24.018   2.928  53.148  1.00  0.00    -0.145 OA
HETATM    6  C4  UNL     1      23.301   3.879  52.426  1.00  0.00     0.193 C 
HETATM    7  C5  UNL     1      22.403   4.564  51.781  1.00  0.00     0.063 A 
HETATM    8  C6  UNL     1      22.890   5.745  51.330  1.00  0.00     0.144 A 
HETATM    9  N3  UNL     1      22.094   6.511  50.588  1.00  0.00    -0.223 NA
HETATM   10  C13 UNL     1      20.863   6.136  50.295  1.00  0.00     0.236 A 
HETATM   11  N4  UNL     1      20.433   4.965  50.765  1.00  0.00    -0.241 NA
HETATM   12  C14 UNL     1      21.160   4.122  51.525  1.00  0.00     0.073 A 
HETATM   13  C15 UNL     1      20.393   3.137  51.879  1.00  0.00     0.031 C 
HETATM   14  C16 UNL     1      20.347   1.965  52.708  1.00  0.00     0.002 C 
HETATM   15  C17 UNL     1      20.744   1.067  53.558  1.00  0.00     0.127 C 
HETATM   16  N5  UNL     1      21.377   0.249  54.472  1.00  0.00    -0.395 N 
HETATM   17  C18 UNL     1      22.438  -0.683  54.531  1.00  0.00     0.188 C 
HETATM   18 CL1  UNL     1      22.000  -2.226  53.757  1.00  0.00    -0.102 Cl
HETATM   19  C19 UNL     1      23.667  -0.107  53.944  1.00  0.00     0.060 A 
HETATM   20  O2  UNL     1      23.571   0.968  53.404  1.00  0.00     0.000 OA
HETATM   21  H7  UNL     1      24.565   1.799  51.556  1.00  0.00     0.360 HD
HETATM   22  H18 UNL     1      20.772   0.468  55.302  1.00  0.00     0.155 HD
ENDROOT
BRANCH   8  23
HETATM   23  N2  UNL     1      24.189   6.284  51.544  1.00  0.00    -0.340 N 
HETATM   24  H9  UNL     1      24.628   6.713  52.407  1.00  0.00     0.167 HD
BRANCH  23  25
HETATM   25  C7  UNL     1      25.196   6.343  50.543  1.00  0.00     0.033 A 
HETATM   26  C8  UNL     1      25.665   5.268  49.827  1.00  0.00     0.032 A 
HETATM   27  C9  UNL     1      26.631   5.271  48.873  1.00  0.00     0.044 A 
HETATM   28  C10 UNL     1      27.238   6.468  48.556  1.00  0.00     0.116 A 
HETATM   29  F1  UNL     1      28.199   6.488  47.610  1.00  0.00    -0.206 F 
HETATM   30  C11 UNL     1      26.824   7.621  49.235  1.00  0.00     0.044 A 
HETATM   31  C12 UNL     1      25.837   7.518  50.186  1.00  0.00     0.032 A 
ENDBRANCH  23  25
ENDBRANCH   8  23
TORSDOF 2
ENDMDL
MODEL 7
REMARK VINA RESULT:      -8.8      3.990      6.907
REMARK  2 active torsions:
REMARK  status: ('A' for Active; 'I' for Inactive)
REMARK    1  A    between atoms: C6_8  and  N2_9 
REMARK    2  A    between atoms: N2_9  and  C7_10 
ROOT
HETATM    1  C1  UNL     1      22.173   4.602  49.868  1.00  0.00     0.053 C 
HETATM    2  C2  UNL     1      23.032   3.319  49.897  1.00  0.00     0.197 A 
HETATM    3  C3  UNL     1      22.883   2.795  48.445  1.00  0.00     0.053 C 
HETATM    4  N1  UNL     1      22.564   2.321  50.723  1.00  0.00     0.248 N 
HETATM    5  O1  UNL     1      22.409   2.458  52.064  1.00  0.00    -0.145 OA
HETATM    6  C4  UNL     1      22.358   1.359  52.918  1.00  0.00     0.193 C 
HETATM    7  C5  UNL     1      22.613   0.325  53.664  1.00  0.00     0.063 A 
HETATM    8  C6  UNL     1      21.495  -0.172  54.246  1.00  0.00     0.144 A 
HETATM    9  N3  UNL     1      21.606  -1.278  54.979  1.00  0.00    -0.223 NA
HETATM   10  C13 UNL     1      22.770  -1.879  55.136  1.00  0.00     0.236 A 
HETATM   11  N4  UNL     1      23.838  -1.348  54.543  1.00  0.00    -0.241 NA
HETATM   12  C14 UNL     1      23.830  -0.233  53.786  1.00  0.00     0.073 A 
HETATM   13  C15 UNL     1      25.055   0.040  53.458  1.00  0.00     0.031 C 
HETATM   14  C16 UNL     1      25.872   1.029  52.813  1.00  0.00     0.002 C 
HETATM   15  C17 UNL     1      26.180   2.130  52.195  1.00  0.00     0.127 C 
HETATM   16  N5  UNL     1      26.262   3.349  51.555  1.00  0.00    -0.395 N 
HETATM   17  C18 UNL     1      25.903   3.950  50.327  1.00  0.00     0.188 C 
HETATM   18 CL1  UNL     1      26.960   3.410  48.999  1.00  0.00    -0.102 Cl
HETATM   19  C19 UNL     1      24.476   3.700  50.027  1.00  0.00     0.060 A 
HETATM   20  O2  UNL     1      23.880   2.949  50.760  1.00  0.00     0.000 OA
HETATM   21  H7  UNL     1      22.286   1.409  50.334  1.00  0.00     0.360 HD
HETATM   22  H18 UNL     1      26.789   3.866  52.303  1.00  0.00     0.155 HD
ENDROOT
BRANCH   8  23
HETATM   23  N2  UNL     1      20.173   0.347  54.164  1.00  0.00    -0.340 N 
HETATM   24  H9  UNL     1      19.648   1.011  54.800  1.00  0.00     0.167 HD
BRANCH  23  25
HETATM   25  C7  UNL     1      19.261   0.025  53.123  1.00  0.00     0.033 A 
HETATM   26  C8  UNL     1      19.252   0.596  51.872  1.00  0.00     0.032 A 
HETATM   27  C9  UNL     1      18.396   0.332  50.852  1.00  0.00     0.044 A 
HETATM   28  C10 UNL     1      17.407  -0.608  51.049  1.00  0.00     0.116 A 
HETATM   29  F1  UNL     1      16.549  -0.882  50.045  1.00  0.00    -0.206 F 
HETATM   30  C11 UNL     1      17.338  -1.245  52.295  1.00  0.00     0.044 A 
HETATM   31  C12 UNL     1      18.250  -0.911  53.267  1.00  0.00     0.032 A 
ENDBRANCH  23  25
ENDBRANCH   8  23
TORSDOF 2
ENDMDL
MODEL 8
REMARK VINA RESULT:      -8.5      4.267      5.354
REMARK  2 active torsions:
REMARK  status: ('A' for Active; 'I' for Inactive)
REMARK    1  A    between atoms: C6_8  and  N2_9 
REMARK    2  A    between atoms: N2_9  and  C7_10 
ROOT
HETATM    1  C1  UNL     1      20.590   3.205  47.490  1.00  0.00     0.053 C 
HETATM    2  C2  UNL     1      20.739   3.342  49.020  1.00  0.00     0.197 A 
HETATM    3  C3  UNL     1      20.045   4.701  49.295  1.00  0.00     0.053 C 
HETATM    4  N1  UNL     1      22.034   3.464  49.473  1.00  0.00     0.248 N 
HETATM    5  O1  UNL     1      22.994   2.524  49.286  1.00  0.00    -0.145 OA
HETATM    6  C4  UNL     1      24.130   2.458  50.090  1.00  0.00     0.193 C 
HETATM    7  C5  UNL     1      24.994   2.279  51.045  1.00  0.00     0.063 A 
HETATM    8  C6  UNL     1      26.238   2.678  50.688  1.00  0.00     0.144 A 
HETATM    9  N3  UNL     1      27.204   2.617  51.603  1.00  0.00    -0.223 NA
HETATM   10  C13 UNL     1      26.962   2.183  52.825  1.00  0.00     0.236 A 
HETATM   11  N4  UNL     1      25.721   1.801  53.123  1.00  0.00    -0.241 NA
HETATM   12  C14 UNL     1      24.678   1.822  52.269  1.00  0.00     0.073 A 
HETATM   13  C15 UNL     1      23.657   1.290  52.868  1.00  0.00     0.031 C 
HETATM   14  C16 UNL     1      22.303   0.861  52.656  1.00  0.00     0.002 C 
HETATM   15  C17 UNL     1      21.193   0.625  52.024  1.00  0.00     0.127 C 
HETATM   16  N5  UNL     1      20.135   0.465  51.153  1.00  0.00    -0.395 N 
HETATM   17  C18 UNL     1      19.191   1.246  50.448  1.00  0.00     0.188 C 
HETATM   18 CL1  UNL     1      17.937   1.898  51.532  1.00  0.00    -0.102 Cl
HETATM   19  C19 UNL     1      19.870   2.319  49.689  1.00  0.00     0.060 A 
HETATM   20  O2  UNL     1      21.055   2.459  49.870  1.00  0.00     0.000 OA
HETATM   21  H7  UNL     1      22.336   4.315  49.969  1.00  0.00     0.360 HD
HETATM   22  H18 UNL     1      20.133  -0.585  51.123  1.00  0.00     0.155 HD
ENDROOT
BRANCH   8  23
HETATM   23  N2  UNL     1      26.657   3.180  49.425  1.00  0.00    -0.340 N 
HETATM   24  H9  UNL     1      26.867   2.681  48.516  1.00  0.00     0.167 HD
BRANCH  23  25
HETATM   25  C7  UNL     1      26.886   4.557  49.158  1.00  0.00     0.033 A 
HETATM   26  C8  UNL     1      26.029   5.581  49.485  1.00  0.00     0.032 A 
HETATM   27  C9  UNL     1      26.197   6.906  49.240  1.00  0.00     0.044 A 
HETATM   28  C10 UNL     1      27.342   7.315  48.591  1.00  0.00     0.116 A 
HETATM   29  F1  UNL     1      27.524   8.628  48.341  1.00  0.00    -0.206 F 
HETATM   30  C11 UNL     1      28.276   6.340  48.219  1.00  0.00     0.044 A 
HETATM   31  C12 UNL     1      28.019   5.022  48.510  1.00  0.00     0.032 A 
ENDBRANCH  23  25
ENDBRANCH   8  23
TORSDOF 2
ENDMDL
MODEL 9
REMARK VINA RESULT:      -8.2      9.450     12.167
REMARK  2 active torsions:
REMARK  status: ('A' for Active; 'I' for Inactive)
REMARK    1  A    between atoms: C6_8  and  N2_9 
REMARK    2  A    between atoms: N2_9  and  C7_10 
ROOT
HETATM    1  C1  UNL     1      32.372   4.878  46.182  1.00  0.00     0.053 C 
HETATM    2  C2  UNL     1      32.362   5.787  47.429  1.00  0.00     0.197 A 
HETATM    3  C3  UNL     1      33.170   4.946  48.451  1.00  0.00     0.053 C 
HETATM    4  N1  UNL     1      31.122   5.998  47.989  1.00  0.00     0.248 N 
HETATM    5  O1  UNL     1      30.086   6.584  47.338  1.00  0.00    -0.145 OA
HETATM    6  C4  UNL     1      29.020   7.168  48.019  1.00  0.00     0.193 C 
HETATM    7  C5  UNL     1      28.230   7.936  48.708  1.00  0.00     0.063 A 
HETATM    8  C6  UNL     1      26.991   7.405  48.841  1.00  0.00     0.144 A 
HETATM    9  N3  UNL     1      26.104   8.057  49.589  1.00  0.00    -0.223 NA
HETATM   10  C13 UNL     1      26.417   9.190  50.189  1.00  0.00     0.236 A 
HETATM   11  N4  UNL     1      27.650   9.669  50.025  1.00  0.00    -0.241 NA
HETATM   12  C14 UNL     1      28.615   9.087  49.287  1.00  0.00     0.073 A 
HETATM   13  C15 UNL     1      29.644   9.878  49.273  1.00  0.00     0.031 C 
HETATM   14  C16 UNL     1      30.942  10.055  48.684  1.00  0.00     0.002 C 
HETATM   15  C17 UNL     1      31.975   9.812  47.936  1.00  0.00     0.127 C 
HETATM   16  N5  UNL     1      32.942   9.353  47.065  1.00  0.00    -0.395 N 
HETATM   17  C18 UNL     1      33.875   8.298  46.948  1.00  0.00     0.188 C 
HETATM   18 CL1  UNL     1      35.259   8.520  48.048  1.00  0.00    -0.102 Cl
HETATM   19  C19 UNL     1      33.211   6.994  47.161  1.00  0.00     0.060 A 
HETATM   20  O2  UNL     1      32.058   7.011  47.519  1.00  0.00     0.000 OA
HETATM   21  H7  UNL     1      30.924   5.687  48.951  1.00  0.00     0.360 HD
HETATM   22  H18 UNL     1      32.868  10.121  46.353  1.00  0.00     0.155 HD
ENDROOT
BRANCH   8  23
HETATM   23  N2  UNL     1      26.503   6.195  48.274  1.00  0.00    -0.340 N 
HETATM   24  H9  UNL     1      26.385   5.900  47.264  1.00  0.00     0.167 HD
BRANCH  23  25
HETATM   25  C7  UNL     1      26.051   5.087  49.042  1.00  0.00     0.033 A 
HETATM   26  C8  UNL     1      26.849   4.072  49.514  1.00  0.00     0.032 A 
HETATM   27  C9  UNL     1      26.464   2.990  50.239  1.00  0.00     0.044 A 
HETATM   28  C10 UNL     1      25.129   2.855  50.559  1.00  0.00     0.116 A 
HETATM   29  F1  UNL     1      24.731   1.786  51.279  1.00  0.00    -0.206 F 
HETATM   30  C11 UNL     1      24.240   3.844  50.121  1.00  0.00     0.044 A 
HETATM   31  C12 UNL     1      24.724   4.903  49.393  1.00  0.00     0.032 A 
ENDBRANCH  23  25
ENDBRANCH   8  23
TORSDOF 2
ENDMDL
