MODEL 1
REMARK VINA RESULT:      -8.2      0.000      0.000
REMARK  7 active torsions:
REMARK  status: ('A' for Active; 'I' for Inactive)
REMARK    1  A    between atoms: C1_2  and  O2_3 
REMARK    2  A    between atoms: C1_2  and  C2_4 
REMARK    3  A    between atoms: C3_5  and  C4_6 
REMARK    4  A    between atoms: C5_7  and  C6_8 
REMARK    5  A    between atoms: C7_9  and  C8_10 
REMARK    6  A    between atoms: C9_11  and  N1_12 
REMARK    7  A    between atoms: N1_12  and  C10_13 
ROOT
HETATM    1  C8  UNL     1      26.001   3.456  50.288  1.00  0.00     0.017 C 
HETATM    2  C9  UNL     1      25.527   2.920  51.401  1.00  0.00     0.090 C 
ENDROOT
BRANCH   2   3
HETATM    3  N1  UNL     1      25.847   1.605  51.817  1.00  0.00    -0.350 N 
HETATM    4  H10 UNL     1      25.177   0.835  51.603  1.00  0.00     0.166 HD
BRANCH   3   5
HETATM    5  C10 UNL     1      27.063   1.362  52.510  1.00  0.00     0.141 A 
HETATM    6  N2  UNL     1      27.857   2.350  53.016  1.00  0.00    -0.224 NA
HETATM    7  C11 UNL     1      28.995   2.090  53.664  1.00  0.00     0.236 A 
HETATM    8  N3  UNL     1      29.362   0.798  53.814  1.00  0.00    -0.241 NA
HETATM    9  C12 UNL     1      28.643  -0.230  53.350  1.00  0.00     0.072 A 
HETATM   10  C13 UNL     1      29.063  -1.546  53.529  1.00  0.00     0.032 A 
HETATM   11  C17 UNL     1      27.455   0.048  52.675  1.00  0.00     0.039 A 
HETATM   12  C14 UNL     1      28.280  -2.588  53.027  1.00  0.00     0.002 A 
HETATM   13  C15 UNL     1      27.103  -2.310  52.358  1.00  0.00     0.001 A 
HETATM   14  C16 UNL     1      26.691  -1.003  52.183  1.00  0.00     0.018 A 
ENDBRANCH   3   5
ENDBRANCH   2   3
BRANCH   1  15
HETATM   15  C7  UNL     1      25.665   4.811  49.869  1.00  0.00     0.001 C 
HETATM   16  C6  UNL     1      26.374   5.546  49.048  1.00  0.00     0.000 C 
BRANCH  16  17
HETATM   17  C5  UNL     1      27.602   5.009  48.485  1.00  0.00     0.000 C 
HETATM   18  C4  UNL     1      28.704   5.696  48.374  1.00  0.00     0.000 C 
BRANCH  18  19
HETATM   19  C3  UNL     1      30.016   5.356  47.851  1.00  0.00     0.007 C 
HETATM   20  C2  UNL     1      31.204   5.578  48.370  1.00  0.00     0.081 C 
BRANCH  20  21
HETATM   21  C1  UNL     1      31.558   6.221  49.605  1.00  0.00     0.165 C 
HETATM   22  O1  UNL     1      31.907   7.439  49.700  1.00  0.00    -0.647 OA
BRANCH  21  23
HETATM   23  O2  UNL     1      31.542   5.551  50.802  1.00  0.00    -0.773 OA
HETATM   24  H1  UNL     1      32.416   5.306  51.240  1.00  0.00     0.167 HD
ENDBRANCH  21  23
ENDBRANCH  20  21
ENDBRANCH  18  19
ENDBRANCH  16  17
ENDBRANCH   1  15
TORSDOF 7
ENDMDL
MODEL 2
REMARK VINA RESULT:      -8.1      1.569      1.726
REMARK  7 active torsions:
REMARK  status: ('A' for Active; 'I' for Inactive)
REMARK    1  A    between atoms: C1_2  and  O2_3 
REMARK    2  A    between atoms: C1_2  and  C2_4 
REMARK    3  A    between atoms: C3_5  and  C4_6 
REMARK    4  A    between atoms: C5_7  and  C6_8 
REMARK    5  A    between atoms: C7_9  and  C8_10 
REMARK    6  A    between atoms: C9_11  and  N1_12 
REMARK    7  A    between atoms: N1_12  and  C10_13 
ROOT
HETATM    1  C8  UNL     1      25.996   3.715  49.494  1.00  0.00     0.017 C 
HETATM    2  C9  UNL     1      26.276   3.340  50.732  1.00  0.00     0.090 C 
ENDROOT
BRANCH   2   3
HETATM    3  N1  UNL     1      26.391   1.981  51.115  1.00  0.00    -0.350 N 
HETATM    4  H10 UNL     1      26.026   1.247  50.470  1.00  0.00     0.166 HD
BRANCH   3   5
HETATM    5  C10 UNL     1      26.994   1.648  52.356  1.00  0.00     0.141 A 
HETATM    6  N2  UNL     1      28.225   2.092  52.744  1.00  0.00    -0.224 NA
HETATM    7  C11 UNL     1      28.766   1.761  53.919  1.00  0.00     0.236 A 
HETATM    8  N3  UNL     1      28.059   0.956  54.741  1.00  0.00    -0.241 NA
HETATM    9  C12 UNL     1      26.848   0.477  54.441  1.00  0.00     0.072 A 
HETATM   10  C13 UNL     1      26.156  -0.351  55.322  1.00  0.00     0.032 A 
HETATM   11  C17 UNL     1      26.287   0.827  53.212  1.00  0.00     0.039 A 
HETATM   12  C14 UNL     1      24.894  -0.828  54.965  1.00  0.00     0.002 A 
HETATM   13  C15 UNL     1      24.340  -0.481  53.747  1.00  0.00     0.001 A 
HETATM   14  C16 UNL     1      25.029   0.341  52.876  1.00  0.00     0.018 A 
ENDBRANCH   3   5
ENDBRANCH   2   3
BRANCH   1  15
HETATM   15  C7  UNL     1      25.880   5.116  49.111  1.00  0.00     0.001 C 
HETATM   16  C6  UNL     1      26.838   5.837  48.580  1.00  0.00     0.000 C 
BRANCH  16  17
HETATM   17  C5  UNL     1      28.137   5.232  48.337  1.00  0.00     0.000 C 
HETATM   18  C4  UNL     1      29.219   5.920  48.100  1.00  0.00     0.000 C 
BRANCH  18  19
HETATM   19  C3  UNL     1      30.590   5.519  47.836  1.00  0.00     0.007 C 
HETATM   20  C2  UNL     1      31.657   5.647  48.594  1.00  0.00     0.081 C 
BRANCH  20  21
HETATM   21  C1  UNL     1      31.785   6.219  49.906  1.00  0.00     0.165 C 
HETATM   22  O1  UNL     1      32.034   7.445  50.128  1.00  0.00    -0.647 OA
BRANCH  21  23
HETATM   23  O2  UNL     1      31.642   5.465  51.043  1.00  0.00    -0.773 OA
HETATM   24  H1  UNL     1      30.962   5.740  51.734  1.00  0.00     0.167 HD
ENDBRANCH  21  23
ENDBRANCH  20  21
ENDBRANCH  18  19
ENDBRANCH  16  17
ENDBRANCH   1  15
TORSDOF 7
ENDMDL
MODEL 3
REMARK VINA RESULT:      -8.0      2.907      6.994
REMARK  7 active torsions:
REMARK  status: ('A' for Active; 'I' for Inactive)
REMARK    1  A    between atoms: C1_2  and  O2_3 
REMARK    2  A    between atoms: C1_2  and  C2_4 
REMARK    3  A    between atoms: C3_5  and  C4_6 
REMARK    4  A    between atoms: C5_7  and  C6_8 
REMARK    5  A    between atoms: C7_9  and  C8_10 
REMARK    6  A    between atoms: C9_11  and  N1_12 
REMARK    7  A    between atoms: N1_12  and  C10_13 
ROOT
HETATM    1  C8  UNL     1      23.856   1.300  51.881  1.00  0.00     0.017 C 
HETATM    2  C9  UNL     1      24.127   2.592  51.785  1.00  0.00     0.090 C 
ENDROOT
BRANCH   2   3
HETATM    3  N1  UNL     1      24.445   3.220  50.555  1.00  0.00    -0.350 N 
HETATM    4  H10 UNL     1      24.582   2.625  49.710  1.00  0.00     0.166 HD
BRANCH   3   5
HETATM    5  C10 UNL     1      24.568   4.634  50.499  1.00  0.00     0.141 A 
HETATM    6  N2  UNL     1      23.678   5.496  51.070  1.00  0.00    -0.224 NA
HETATM    7  C11 UNL     1      23.822   6.822  51.000  1.00  0.00     0.236 A 
HETATM    8  N3  UNL     1      24.890   7.312  50.333  1.00  0.00    -0.241 NA
HETATM    9  C12 UNL     1      25.809   6.539  49.746  1.00  0.00     0.072 A 
HETATM   10  C13 UNL     1      26.894   7.091  49.069  1.00  0.00     0.032 A 
HETATM   11  C17 UNL     1      25.654   5.155  49.823  1.00  0.00     0.039 A 
HETATM   12  C14 UNL     1      27.829   6.245  48.469  1.00  0.00     0.002 A 
HETATM   13  C15 UNL     1      27.674   4.874  48.547  1.00  0.00     0.001 A 
HETATM   14  C16 UNL     1      26.596   4.330  49.219  1.00  0.00     0.018 A 
ENDBRANCH   3   5
ENDBRANCH   2   3
BRANCH   1  15
HETATM   15  C7  UNL     1      23.530   0.664  53.150  1.00  0.00     0.001 C 
HETATM   16  C6  UNL     1      24.312  -0.157  53.808  1.00  0.00     0.000 C 
BRANCH  16  17
HETATM   17  C5  UNL     1      25.619  -0.489  53.263  1.00  0.00     0.000 C 
HETATM   18  C4  UNL     1      26.742  -0.160  53.835  1.00  0.00     0.000 C 
BRANCH  18  19
HETATM   19  C3  UNL     1      28.129  -0.388  53.465  1.00  0.00     0.007 C 
HETATM   20  C2  UNL     1      29.149   0.442  53.500  1.00  0.00     0.081 C 
BRANCH  20  21
HETATM   21  C1  UNL     1      29.197   1.817  53.912  1.00  0.00     0.165 C 
HETATM   22  O1  UNL     1      29.394   2.196  55.108  1.00  0.00    -0.647 OA
BRANCH  21  23
HETATM   23  O2  UNL     1      29.029   2.847  53.021  1.00  0.00    -0.773 OA
HETATM   24  H1  UNL     1      29.406   3.755  53.242  1.00  0.00     0.167 HD
ENDBRANCH  21  23
ENDBRANCH  20  21
ENDBRANCH  18  19
ENDBRANCH  16  17
ENDBRANCH   1  15
TORSDOF 7
ENDMDL
MODEL 4
REMARK VINA RESULT:      -7.8      5.284      7.330
REMARK  7 active torsions:
REMARK  status: ('A' for Active; 'I' for Inactive)
REMARK    1  A    between atoms: C1_2  and  O2_3 
REMARK    2  A    between atoms: C1_2  and  C2_4 
REMARK    3  A    between atoms: C3_5  and  C4_6 
REMARK    4  A    between atoms: C5_7  and  C6_8 
REMARK    5  A    between atoms: C7_9  and  C8_10 
REMARK    6  A    between atoms: C9_11  and  N1_12 
REMARK    7  A    between atoms: N1_12  and  C10_13 
ROOT
HETATM    1  C8  UNL     1      23.525   1.613  51.789  1.00  0.00     0.017 C 
HETATM    2  C9  UNL     1      24.809   1.360  51.991  1.00  0.00     0.090 C 
ENDROOT
BRANCH   2   3
HETATM    3  N1  UNL     1      25.337   1.046  53.268  1.00  0.00    -0.350 N 
HETATM    4  H10 UNL     1      24.677   0.787  54.033  1.00  0.00     0.166 HD
BRANCH   3   5
HETATM    5  C10 UNL     1      26.740   1.089  53.479  1.00  0.00     0.141 A 
HETATM    6  N2  UNL     1      27.420   2.220  53.826  1.00  0.00    -0.224 NA
HETATM    7  C11 UNL     1      28.742   2.229  54.017  1.00  0.00     0.236 A 
HETATM    8  N3  UNL     1      29.416   1.070  53.855  1.00  0.00    -0.241 NA
HETATM    9  C12 UNL     1      28.829  -0.083  53.517  1.00  0.00     0.072 A 
HETATM   10  C13 UNL     1      29.568  -1.254  53.361  1.00  0.00     0.032 A 
HETATM   11  C17 UNL     1      27.448  -0.086  53.319  1.00  0.00     0.039 A 
HETATM   12  C14 UNL     1      28.912  -2.434  53.005  1.00  0.00     0.002 A 
HETATM   13  C15 UNL     1      27.543  -2.435  52.810  1.00  0.00     0.001 A 
HETATM   14  C16 UNL     1      26.815  -1.272  52.965  1.00  0.00     0.018 A 
ENDBRANCH   3   5
ENDBRANCH   2   3
BRANCH   1  15
HETATM   15  C7  UNL     1      22.993   1.935  50.471  1.00  0.00     0.001 C 
HETATM   16  C6  UNL     1      21.911   1.416  49.945  1.00  0.00     0.000 C 
BRANCH  16  17
HETATM   17  C5  UNL     1      21.149   0.434  50.700  1.00  0.00     0.000 C 
HETATM   18  C4  UNL     1      20.022   0.702  51.298  1.00  0.00     0.000 C 
BRANCH  18  19
HETATM   19  C3  UNL     1      19.120  -0.116  52.090  1.00  0.00     0.007 C 
HETATM   20  C2  UNL     1      19.307  -0.656  53.275  1.00  0.00     0.081 C 
BRANCH  20  21
HETATM   21  C1  UNL     1      20.454  -0.597  54.137  1.00  0.00     0.165 C 
HETATM   22  O1  UNL     1      21.134   0.456  54.348  1.00  0.00    -0.647 OA
BRANCH  21  23
HETATM   23  O2  UNL     1      20.910  -1.700  54.814  1.00  0.00    -0.773 OA
HETATM   24  H1  UNL     1      21.842  -2.037  54.634  1.00  0.00     0.167 HD
ENDBRANCH  21  23
ENDBRANCH  20  21
ENDBRANCH  18  19
ENDBRANCH  16  17
ENDBRANCH   1  15
TORSDOF 7
ENDMDL
MODEL 5
REMARK VINA RESULT:      -7.7      3.637      7.202
REMARK  7 active torsions:
REMARK  status: ('A' for Active; 'I' for Inactive)
REMARK    1  A    between atoms: C1_2  and  O2_3 
REMARK    2  A    between atoms: C1_2  and  C2_4 
REMARK    3  A    between atoms: C3_5  and  C4_6 
REMARK    4  A    between atoms: C5_7  and  C6_8 
REMARK    5  A    between atoms: C7_9  and  C8_10 
REMARK    6  A    between atoms: C9_11  and  N1_12 
REMARK    7  A    between atoms: N1_12  and  C10_13 
ROOT
HETATM    1  C8  UNL     1      27.876   4.840  48.545  1.00  0.00     0.017 C 
HETATM    2  C9  UNL     1      28.875   5.633  48.189  1.00  0.00     0.090 C 
ENDROOT
BRANCH   2   3
HETATM    3  N1  UNL     1      30.118   5.140  47.722  1.00  0.00    -0.350 N 
HETATM    4  H10 UNL     1      30.122   4.307  47.095  1.00  0.00     0.166 HD
BRANCH   3   5
HETATM    5  C10 UNL     1      31.322   5.783  48.113  1.00  0.00     0.141 A 
HETATM    6  N2  UNL     1      31.385   7.076  48.547  1.00  0.00    -0.224 NA
HETATM    7  C11 UNL     1      32.533   7.653  48.908  1.00  0.00     0.236 A 
HETATM    8  N3  UNL     1      33.665   6.920  48.833  1.00  0.00    -0.241 NA
HETATM    9  C12 UNL     1      33.694   5.649  48.421  1.00  0.00     0.072 A 
HETATM   10  C13 UNL     1      34.887   4.933  48.360  1.00  0.00     0.032 A 
HETATM   11  C17 UNL     1      32.491   5.051  48.045  1.00  0.00     0.039 A 
HETATM   12  C14 UNL     1      34.869   3.607  47.921  1.00  0.00     0.002 A 
HETATM   13  C15 UNL     1      33.675   3.016  47.550  1.00  0.00     0.001 A 
HETATM   14  C16 UNL     1      32.494   3.730  47.611  1.00  0.00     0.018 A 
ENDBRANCH   3   5
ENDBRANCH   2   3
BRANCH   1  15
HETATM   15  C7  UNL     1      26.601   5.358  49.024  1.00  0.00     0.001 C 
HETATM   16  C6  UNL     1      25.700   4.665  49.674  1.00  0.00     0.000 C 
BRANCH  16  17
HETATM   17  C5  UNL     1      25.948   3.262  49.963  1.00  0.00     0.000 C 
HETATM   18  C4  UNL     1      26.135   2.797  51.167  1.00  0.00     0.000 C 
BRANCH  18  19
HETATM   19  C3  UNL     1      26.395   1.457  51.665  1.00  0.00     0.007 C 
HETATM   20  C2  UNL     1      27.260   1.057  52.571  1.00  0.00     0.081 C 
BRANCH  20  21
HETATM   21  C1  UNL     1      28.204   1.823  53.336  1.00  0.00     0.165 C 
HETATM   22  O1  UNL     1      27.880   2.664  54.231  1.00  0.00    -0.647 OA
BRANCH  21  23
HETATM   23  O2  UNL     1      29.558   1.697  53.153  1.00  0.00    -0.773 OA
HETATM   24  H1  UNL     1      30.144   1.485  53.944  1.00  0.00     0.167 HD
ENDBRANCH  21  23
ENDBRANCH  20  21
ENDBRANCH  18  19
ENDBRANCH  16  17
ENDBRANCH   1  15
TORSDOF 7
ENDMDL
MODEL 6
REMARK VINA RESULT:      -7.6      4.535      6.523
REMARK  7 active torsions:
REMARK  status: ('A' for Active; 'I' for Inactive)
REMARK    1  A    between atoms: C1_2  and  O2_3 
REMARK    2  A    between atoms: C1_2  and  C2_4 
REMARK    3  A    between atoms: C3_5  and  C4_6 
REMARK    4  A    between atoms: C5_7  and  C6_8 
REMARK    5  A    between atoms: C7_9  and  C8_10 
REMARK    6  A    between atoms: C9_11  and  N1_12 
REMARK    7  A    between atoms: N1_12  and  C10_13 
ROOT
HETATM    1  C8  UNL     1      23.213  -0.659  53.262  1.00  0.00     0.017 C 
HETATM    2  C9  UNL     1      24.123   0.280  53.466  1.00  0.00     0.090 C 
ENDROOT
BRANCH   2   3
HETATM    3  N1  UNL     1      25.099   0.627  52.499  1.00  0.00    -0.350 N 
HETATM    4  H10 UNL     1      24.810   0.699  51.500  1.00  0.00     0.166 HD
BRANCH   3   5
HETATM    5  C10 UNL     1      26.438   0.866  52.906  1.00  0.00     0.141 A 
HETATM    6  N2  UNL     1      26.927   2.101  53.220  1.00  0.00    -0.224 NA
HETATM    7  C11 UNL     1      28.192   2.294  53.598  1.00  0.00     0.236 A 
HETATM    8  N3  UNL     1      29.007   1.218  53.667  1.00  0.00    -0.241 NA
HETATM    9  C12 UNL     1      28.611  -0.026  53.378  1.00  0.00     0.072 A 
HETATM   10  C13 UNL     1      29.489  -1.104  53.463  1.00  0.00     0.032 A 
HETATM   11  C17 UNL     1      27.287  -0.221  52.983  1.00  0.00     0.039 A 
HETATM   12  C14 UNL     1      29.031  -2.385  53.150  1.00  0.00     0.002 A 
HETATM   13  C15 UNL     1      27.719  -2.577  52.760  1.00  0.00     0.001 A 
HETATM   14  C16 UNL     1      26.851  -1.504  52.676  1.00  0.00     0.018 A 
ENDBRANCH   3   5
ENDBRANCH   2   3
BRANCH   1  15
HETATM   15  C7  UNL     1      22.214  -1.008  54.263  1.00  0.00     0.001 C 
HETATM   16  C6  UNL     1      20.973  -0.588  54.272  1.00  0.00     0.000 C 
BRANCH  16  17
HETATM   17  C5  UNL     1      20.512   0.300  53.216  1.00  0.00     0.000 C 
HETATM   18  C4  UNL     1      20.614   1.599  53.272  1.00  0.00     0.000 C 
BRANCH  18  19
HETATM   19  C3  UNL     1      20.225   2.648  52.346  1.00  0.00     0.007 C 
HETATM   20  C2  UNL     1      20.929   3.659  51.887  1.00  0.00     0.081 C 
BRANCH  20  21
HETATM   21  C1  UNL     1      22.290   4.028  52.164  1.00  0.00     0.165 C 
HETATM   22  O1  UNL     1      23.297   3.317  51.858  1.00  0.00    -0.647 OA
BRANCH  21  23
HETATM   23  O2  UNL     1      22.608   5.204  52.795  1.00  0.00    -0.773 OA
HETATM   24  H1  UNL     1      22.769   5.201  53.789  1.00  0.00     0.167 HD
ENDBRANCH  21  23
ENDBRANCH  20  21
ENDBRANCH  18  19
ENDBRANCH  16  17
ENDBRANCH   1  15
TORSDOF 7
ENDMDL
MODEL 7
REMARK VINA RESULT:      -7.6      6.776      9.087
REMARK  7 active torsions:
REMARK  status: ('A' for Active; 'I' for Inactive)
REMARK    1  A    between atoms: C1_2  and  O2_3 
REMARK    2  A    between atoms: C1_2  and  C2_4 
REMARK    3  A    between atoms: C3_5  and  C4_6 
REMARK    4  A    between atoms: C5_7  and  C6_8 
REMARK    5  A    between atoms: C7_9  and  C8_10 
REMARK    6  A    between atoms: C9_11  and  N1_12 
REMARK    7  A    between atoms: N1_12  and  C10_13 
ROOT
HETATM    1  C8  UNL     1      23.400  -0.699  53.755  1.00  0.00     0.017 C 
HETATM    2  C9  UNL     1      24.281   0.289  53.740  1.00  0.00     0.090 C 
ENDROOT
BRANCH   2   3
HETATM    3  N1  UNL     1      25.202   0.480  52.681  1.00  0.00    -0.350 N 
HETATM    4  H10 UNL     1      24.863   0.384  51.699  1.00  0.00     0.166 HD
BRANCH   3   5
HETATM    5  C10 UNL     1      26.555   0.798  52.973  1.00  0.00     0.141 A 
HETATM    6  N2  UNL     1      27.009   2.068  53.179  1.00  0.00    -0.224 NA
HETATM    7  C11 UNL     1      28.288   2.334  53.452  1.00  0.00     0.236 A 
HETATM    8  N3  UNL     1      29.153   1.299  53.521  1.00  0.00    -0.241 NA
HETATM    9  C12 UNL     1      28.794   0.025  53.332  1.00  0.00     0.072 A 
HETATM   10  C13 UNL     1      29.723  -1.010  53.413  1.00  0.00     0.032 A 
HETATM   11  C17 UNL     1      27.455  -0.247  53.048  1.00  0.00     0.039 A 
HETATM   12  C14 UNL     1      29.301  -2.325  53.207  1.00  0.00     0.002 A 
HETATM   13  C15 UNL     1      27.975  -2.593  52.926  1.00  0.00     0.001 A 
HETATM   14  C16 UNL     1      27.056  -1.563  52.847  1.00  0.00     0.018 A 
ENDBRANCH   3   5
ENDBRANCH   2   3
BRANCH   1  15
HETATM   15  C7  UNL     1      22.458  -0.888  54.850  1.00  0.00     0.001 C 
HETATM   16  C6  UNL     1      21.171  -0.648  54.790  1.00  0.00     0.000 C 
BRANCH  16  17
HETATM   17  C5  UNL     1      20.593  -0.151  53.551  1.00  0.00     0.000 C 
HETATM   18  C4  UNL     1      19.441  -0.545  53.086  1.00  0.00     0.000 C 
BRANCH  18  19
HETATM   19  C3  UNL     1      18.697  -0.183  51.892  1.00  0.00     0.007 C 
HETATM   20  C2  UNL     1      17.424  -0.363  51.616  1.00  0.00     0.081 C 
BRANCH  20  21
HETATM   21  C1  UNL     1      16.392  -0.969  52.410  1.00  0.00     0.165 C 
HETATM   22  O1  UNL     1      16.039  -2.185  52.312  1.00  0.00    -0.647 OA
BRANCH  21  23
HETATM   23  O2  UNL     1      15.695  -0.260  53.357  1.00  0.00    -0.773 OA
HETATM   24  H1  UNL     1      15.478  -0.699  54.238  1.00  0.00     0.167 HD
ENDBRANCH  21  23
ENDBRANCH  20  21
ENDBRANCH  18  19
ENDBRANCH  16  17
ENDBRANCH   1  15
TORSDOF 7
ENDMDL
MODEL 8
REMARK VINA RESULT:      -7.6      2.635      3.419
REMARK  7 active torsions:
REMARK  status: ('A' for Active; 'I' for Inactive)
REMARK    1  A    between atoms: C1_2  and  O2_3 
REMARK    2  A    between atoms: C1_2  and  C2_4 
REMARK    3  A    between atoms: C3_5  and  C4_6 
REMARK    4  A    between atoms: C5_7  and  C6_8 
REMARK    5  A    between atoms: C7_9  and  C8_10 
REMARK    6  A    between atoms: C9_11  and  N1_12 
REMARK    7  A    between atoms: N1_12  and  C10_13 
ROOT
HETATM    1  C8  UNL     1      25.013   3.717  50.807  1.00  0.00     0.017 C 
HETATM    2  C9  UNL     1      24.417   3.625  51.986  1.00  0.00     0.090 C 
ENDROOT
BRANCH   2   3
HETATM    3  N1  UNL     1      25.067   3.116  53.137  1.00  0.00    -0.350 N 
HETATM    4  H10 UNL     1      25.332   3.780  53.897  1.00  0.00     0.166 HD
BRANCH   3   5
HETATM    5  C10 UNL     1      25.343   1.727  53.232  1.00  0.00     0.141 A 
HETATM    6  N2  UNL     1      24.390   0.755  53.125  1.00  0.00    -0.224 NA
HETATM    7  C11 UNL     1      24.682  -0.544  53.219  1.00  0.00     0.236 A 
HETATM    8  N3  UNL     1      25.969  -0.895  53.432  1.00  0.00    -0.241 NA
HETATM    9  C12 UNL     1      26.963  -0.009  53.549  1.00  0.00     0.072 A 
HETATM   10  C13 UNL     1      28.277  -0.418  53.768  1.00  0.00     0.032 A 
HETATM   11  C17 UNL     1      26.653   1.348  53.449  1.00  0.00     0.039 A 
HETATM   12  C14 UNL     1      29.283   0.543  53.886  1.00  0.00     0.002 A 
HETATM   13  C15 UNL     1      28.973   1.886  53.786  1.00  0.00     0.001 A 
HETATM   14  C16 UNL     1      27.669   2.288  53.569  1.00  0.00     0.018 A 
ENDBRANCH   3   5
ENDBRANCH   2   3
BRANCH   1  15
HETATM   15  C7  UNL     1      24.335   4.242  49.629  1.00  0.00     0.001 C 
HETATM   16  C6  UNL     1      24.805   5.175  48.839  1.00  0.00     0.000 C 
BRANCH  16  17
HETATM   17  C5  UNL     1      26.104   5.764  49.122  1.00  0.00     0.000 C 
HETATM   18  C4  UNL     1      26.670   6.659  48.362  1.00  0.00     0.000 C 
BRANCH  18  19
HETATM   19  C3  UNL     1      27.939   7.360  48.462  1.00  0.00     0.007 C 
HETATM   20  C2  UNL     1      28.230   8.470  49.105  1.00  0.00     0.081 C 
BRANCH  20  21
HETATM   21  C1  UNL     1      27.384   9.316  49.899  1.00  0.00     0.165 C 
HETATM   22  O1  UNL     1      26.448  10.034  49.426  1.00  0.00    -0.647 OA
BRANCH  21  23
HETATM   23  O2  UNL     1      27.527   9.413  51.261  1.00  0.00    -0.773 OA
HETATM   24  H1  UNL     1      26.709   9.555  51.832  1.00  0.00     0.167 HD
ENDBRANCH  21  23
ENDBRANCH  20  21
ENDBRANCH  18  19
ENDBRANCH  16  17
ENDBRANCH   1  15
TORSDOF 7
ENDMDL
MODEL 9
REMARK VINA RESULT:      -7.5      2.934      7.545
REMARK  7 active torsions:
REMARK  status: ('A' for Active; 'I' for Inactive)
REMARK    1  A    between atoms: C1_2  and  O2_3 
REMARK    2  A    between atoms: C1_2  and  C2_4 
REMARK    3  A    between atoms: C3_5  and  C4_6 
REMARK    4  A    between atoms: C5_7  and  C6_8 
REMARK    5  A    between atoms: C7_9  and  C8_10 
REMARK    6  A    between atoms: C9_11  and  N1_12 
REMARK    7  A    between atoms: N1_12  and  C10_13 
ROOT
HETATM    1  C8  UNL     1      25.693   2.781  51.268  1.00  0.00     0.017 C 
HETATM    2  C9  UNL     1      25.900   3.206  50.031  1.00  0.00     0.090 C 
ENDROOT
BRANCH   2   3
HETATM    3  N1  UNL     1      26.918   4.133  49.699  1.00  0.00    -0.350 N 
HETATM    4  H10 UNL     1      27.901   3.916  49.971  1.00  0.00     0.166 HD
BRANCH   3   5
HETATM    5  C10 UNL     1      26.584   5.328  49.008  1.00  0.00     0.141 A 
HETATM    6  N2  UNL     1      25.321   5.843  48.951  1.00  0.00    -0.224 NA
HETATM    7  C11 UNL     1      25.038   6.970  48.293  1.00  0.00     0.236 A 
HETATM    8  N3  UNL     1      26.048   7.610  47.664  1.00  0.00    -0.241 NA
HETATM    9  C12 UNL     1      27.312   7.176  47.669  1.00  0.00     0.072 A 
HETATM   10  C13 UNL     1      28.320   7.872  47.005  1.00  0.00     0.032 A 
HETATM   11  C17 UNL     1      27.602   5.999  48.359  1.00  0.00     0.039 A 
HETATM   12  C14 UNL     1      29.626   7.380  47.037  1.00  0.00     0.002 A 
HETATM   13  C15 UNL     1      29.911   6.213  47.721  1.00  0.00     0.001 A 
HETATM   14  C16 UNL     1      28.909   5.526  48.379  1.00  0.00     0.018 A 
ENDBRANCH   3   5
ENDBRANCH   2   3
BRANCH   1  15
HETATM   15  C7  UNL     1      24.643   1.828  51.599  1.00  0.00     0.001 C 
HETATM   16  C6  UNL     1      24.787   0.783  52.377  1.00  0.00     0.000 C 
BRANCH  16  17
HETATM   17  C5  UNL     1      26.084   0.514  52.978  1.00  0.00     0.000 C 
HETATM   18  C4  UNL     1      26.835  -0.498  52.646  1.00  0.00     0.000 C 
BRANCH  18  19
HETATM   19  C3  UNL     1      28.137  -0.940  53.115  1.00  0.00     0.007 C 
HETATM   20  C2  UNL     1      29.100  -0.245  53.680  1.00  0.00     0.081 C 
BRANCH  20  21
HETATM   21  C1  UNL     1      29.152   1.154  54.002  1.00  0.00     0.165 C 
HETATM   22  O1  UNL     1      29.104   1.615  55.185  1.00  0.00    -0.647 OA
BRANCH  21  23
HETATM   23  O2  UNL     1      29.260   2.118  53.032  1.00  0.00    -0.773 OA
HETATM   24  H1  UNL     1      29.028   1.885  52.079  1.00  0.00     0.167 HD
ENDBRANCH  21  23
ENDBRANCH  20  21
ENDBRANCH  18  19
ENDBRANCH  16  17
ENDBRANCH   1  15
TORSDOF 7
ENDMDL
