MODEL 1
REMARK VINA RESULT:      -7.8      0.000      0.000
REMARK  8 active torsions:
REMARK  status: ('A' for Active; 'I' for Inactive)
REMARK    1  A    between atoms: O1_2  and  C2_3 
REMARK    2  A    between atoms: C2_3  and  C3_4 
REMARK    3  A    between atoms: C4_5  and  C5_6 
REMARK       I    between atoms: C5_6  and  N1_8 
REMARK    4  A    between atoms: N1_8  and  C6_9 
REMARK    5  A    between atoms: C11_15  and  N3_16 
REMARK    6  A    between atoms: N4_18  and  C13_19 
REMARK    7  A    between atoms: C20_26  and  O3_27 
REMARK    8  A    between atoms: O3_27  and  C21_28 
ROOT
HETATM    1  C6  UNL     1      25.475   2.918  51.492  1.00  0.00     0.067 C 
HETATM    2  C7  UNL     1      26.089   1.875  52.046  1.00  0.00     0.037 C 
HETATM    3  C8  UNL     1      25.388   0.736  52.700  1.00  0.00     0.162 C 
HETATM    4  C9  UNL     1      23.946   1.021  52.798  1.00  0.00     0.063 C 
HETATM    5  N2  UNL     1      22.977   0.401  53.432  1.00  0.00    -0.261 NA
HETATM    6  C10 UNL     1      23.162  -0.791  54.233  1.00  0.00     0.143 C 
HETATM    7  C11 UNL     1      24.246  -0.959  55.020  1.00  0.00     0.038 C 
HETATM    8  C12 UNL     1      25.384   0.026  55.172  1.00  0.00     0.182 C 
HETATM    9  N4  UNL     1      26.013   0.251  53.883  1.00  0.00    -0.361 N 
HETATM   10  C19 UNL     1      23.298   2.173  52.162  1.00  0.00     0.068 C 
HETATM   11  C20 UNL     1      24.003   3.078  51.545  1.00  0.00     0.098 C 
ENDROOT
BRANCH   1  12
HETATM   12  N1  UNL     1      26.170   4.014  50.854  1.00  0.00    -0.314 N 
HETATM   13  C5  UNL     1      26.714   3.762  49.553  1.00  0.00     0.301 C 
HETATM   14  O2  UNL     1      26.594   2.635  48.988  1.00  0.00    -0.258 OA
HETATM   15  H6  UNL     1      26.282   4.956  51.305  1.00  0.00     0.170 HD
BRANCH  13  16
HETATM   16  C4  UNL     1      27.415   4.836  48.885  1.00  0.00    -0.003 C 
HETATM   17  C3  UNL     1      27.987   5.743  48.326  1.00  0.00    -0.070 C 
BRANCH  17  18
HETATM   18  C2  UNL     1      28.674   6.849  47.654  1.00  0.00     0.261 C 
BRANCH  18  19
HETATM   19  O1  UNL     1      29.199   7.761  48.578  1.00  0.00    -0.384 OA
HETATM   20  C1  UNL     1      28.195   8.635  48.988  1.00  0.00     0.202 C 
ENDBRANCH  18  19
ENDBRANCH  17  18
ENDBRANCH  13  16
ENDBRANCH   1  12
BRANCH  11  21
HETATM   21  O3  UNL     1      23.400   4.174  50.947  1.00  0.00    -0.338 OA
BRANCH  21  22
HETATM   22  C21 UNL     1      22.302   3.948  50.088  1.00  0.00     0.260 C 
HETATM   23 BR1  UNL     1      22.926   2.951  48.532  1.00  0.00    -0.067 Br
ENDBRANCH  21  22
ENDBRANCH  11  21
BRANCH   9  24
HETATM   24  C13 UNL     1      27.396  -0.020  53.740  1.00  0.00     0.031 A 
HETATM   25  C14 UNL     1      28.399   0.852  54.100  1.00  0.00     0.029 A 
HETATM   26  C15 UNL     1      29.751   0.607  53.989  1.00  0.00     0.002 A 
HETATM   27  C16 UNL     1      30.162  -0.605  53.477  1.00  0.00     0.000 A 
HETATM   28  C17 UNL     1      29.207  -1.530  53.096  1.00  0.00     0.002 A 
HETATM   29  C18 UNL     1      27.878  -1.206  53.239  1.00  0.00     0.029 A 
ENDBRANCH   9  24
BRANCH   7  30
HETATM   30  N3  UNL     1      24.276  -2.200  55.750  1.00  0.00    -0.400 N 
HETATM   31  H10 UNL     1      23.833  -2.105  56.711  1.00  0.00     0.156 HD
HETATM   32  H11 UNL     1      24.647  -3.162  55.512  1.00  0.00     0.156 HD
ENDBRANCH   7  30
TORSDOF 8
ENDMDL
MODEL 2
REMARK VINA RESULT:      -7.3      2.505      5.313
REMARK  8 active torsions:
REMARK  status: ('A' for Active; 'I' for Inactive)
REMARK    1  A    between atoms: O1_2  and  C2_3 
REMARK    2  A    between atoms: C2_3  and  C3_4 
REMARK    3  A    between atoms: C4_5  and  C5_6 
REMARK       I    between atoms: C5_6  and  N1_8 
REMARK    4  A    between atoms: N1_8  and  C6_9 
REMARK    5  A    between atoms: C11_15  and  N3_16 
REMARK    6  A    between atoms: N4_18  and  C13_19 
REMARK    7  A    between atoms: C20_26  and  O3_27 
REMARK    8  A    between atoms: O3_27  and  C21_28 
ROOT
HETATM    1  C6  UNL     1      25.802   2.200  52.222  1.00  0.00     0.067 C 
HETATM    2  C7  UNL     1      24.474   2.281  52.206  1.00  0.00     0.037 C 
HETATM    3  C8  UNL     1      23.567   1.415  53.008  1.00  0.00     0.162 C 
HETATM    4  C9  UNL     1      24.344   0.353  53.674  1.00  0.00     0.063 C 
HETATM    5  N2  UNL     1      23.967  -0.718  54.334  1.00  0.00    -0.261 NA
HETATM    6  C10 UNL     1      22.585  -1.095  54.550  1.00  0.00     0.143 C 
HETATM    7  C11 UNL     1      21.646  -0.936  53.593  1.00  0.00     0.038 C 
HETATM    8  C12 UNL     1      21.882  -0.360  52.214  1.00  0.00     0.182 C 
HETATM    9  N4  UNL     1      22.387   0.996  52.331  1.00  0.00    -0.361 N 
HETATM   10  C19 UNL     1      25.810   0.302  53.684  1.00  0.00     0.068 C 
HETATM   11  C20 UNL     1      26.512   1.161  53.005  1.00  0.00     0.098 C 
ENDROOT
BRANCH   1  12
HETATM   12  N1  UNL     1      26.670   3.054  51.441  1.00  0.00    -0.314 N 
HETATM   13  C5  UNL     1      26.184   3.466  50.158  1.00  0.00     0.301 C 
HETATM   14  O2  UNL     1      25.051   3.100  49.726  1.00  0.00    -0.258 OA
HETATM   15  H6  UNL     1      27.613   3.368  51.780  1.00  0.00     0.170 HD
BRANCH  13  16
HETATM   16  C4  UNL     1      27.026   4.321  49.351  1.00  0.00    -0.003 C 
HETATM   17  C3  UNL     1      27.744   5.029  48.683  1.00  0.00    -0.070 C 
BRANCH  17  18
HETATM   18  C2  UNL     1      28.621   5.878  47.873  1.00  0.00     0.261 C 
BRANCH  18  19
HETATM   19  O1  UNL     1      29.931   5.386  47.850  1.00  0.00    -0.384 OA
HETATM   20  C1  UNL     1      30.827   6.449  47.942  1.00  0.00     0.202 C 
ENDBRANCH  18  19
ENDBRANCH  17  18
ENDBRANCH  13  16
ENDBRANCH   1  12
BRANCH  11  21
HETATM   21  O3  UNL     1      27.898   1.116  53.003  1.00  0.00    -0.338 OA
BRANCH  21  22
HETATM   22  C21 UNL     1      28.552   0.619  54.152  1.00  0.00     0.260 C 
HETATM   23 BR1  UNL     1      29.681  -0.882  53.624  1.00  0.00    -0.067 Br
ENDBRANCH  21  22
ENDBRANCH  11  21
BRANCH   9  24
HETATM   24  C13 UNL     1      21.667   2.050  51.715  1.00  0.00     0.031 A 
HETATM   25  C14 UNL     1      20.968   3.017  52.402  1.00  0.00     0.029 A 
HETATM   26  C15 UNL     1      20.275   4.062  51.830  1.00  0.00     0.002 A 
HETATM   27  C16 UNL     1      20.264   4.173  50.456  1.00  0.00     0.000 A 
HETATM   28  C17 UNL     1      20.947   3.235  49.703  1.00  0.00     0.002 A 
HETATM   29  C18 UNL     1      21.613   2.222  50.353  1.00  0.00     0.029 A 
ENDBRANCH   9  24
BRANCH   7  30
HETATM   30  N3  UNL     1      20.322  -1.361  53.970  1.00  0.00    -0.400 N 
HETATM   31  H10 UNL     1      20.348  -2.149  54.682  1.00  0.00     0.156 HD
HETATM   32  H11 UNL     1      19.357  -1.043  53.677  1.00  0.00     0.156 HD
ENDBRANCH   7  30
TORSDOF 8
ENDMDL
MODEL 3
REMARK VINA RESULT:      -7.2      3.009      7.246
REMARK  8 active torsions:
REMARK  status: ('A' for Active; 'I' for Inactive)
REMARK    1  A    between atoms: O1_2  and  C2_3 
REMARK    2  A    between atoms: C2_3  and  C3_4 
REMARK    3  A    between atoms: C4_5  and  C5_6 
REMARK       I    between atoms: C5_6  and  N1_8 
REMARK    4  A    between atoms: N1_8  and  C6_9 
REMARK    5  A    between atoms: C11_15  and  N3_16 
REMARK    6  A    between atoms: N4_18  and  C13_19 
REMARK    7  A    between atoms: C20_26  and  O3_27 
REMARK    8  A    between atoms: O3_27  and  C21_28 
ROOT
HETATM    1  C6  UNL     1      25.039   2.430  51.851  1.00  0.00     0.067 C 
HETATM    2  C7  UNL     1      25.276   3.528  51.137  1.00  0.00     0.037 C 
HETATM    3  C8  UNL     1      24.305   4.643  50.961  1.00  0.00     0.162 C 
HETATM    4  C9  UNL     1      23.000   4.272  51.537  1.00  0.00     0.063 C 
HETATM    5  N2  UNL     1      21.824   4.851  51.473  1.00  0.00    -0.261 NA
HETATM    6  C10 UNL     1      21.561   6.080  50.752  1.00  0.00     0.143 C 
HETATM    7  C11 UNL     1      22.135   6.343  49.559  1.00  0.00     0.038 C 
HETATM    8  C12 UNL     1      23.102   5.436  48.830  1.00  0.00     0.182 C 
HETATM    9  N4  UNL     1      24.275   5.207  49.654  1.00  0.00    -0.361 N 
HETATM   10  C19 UNL     1      22.777   3.060  52.332  1.00  0.00     0.068 C 
HETATM   11  C20 UNL     1      23.725   2.181  52.488  1.00  0.00     0.098 C 
ENDROOT
BRANCH   1  12
HETATM   12  N1  UNL     1      25.995   1.358  52.019  1.00  0.00    -0.314 N 
HETATM   13  C5  UNL     1      26.889   1.461  53.133  1.00  0.00     0.301 C 
HETATM   14  O2  UNL     1      26.846   2.443  53.933  1.00  0.00    -0.258 OA
HETATM   15  H6  UNL     1      26.048   0.536  51.367  1.00  0.00     0.170 HD
BRANCH  13  16
HETATM   16  C4  UNL     1      27.858   0.407  53.332  1.00  0.00    -0.003 C 
HETATM   17  C3  UNL     1      28.680  -0.467  53.488  1.00  0.00    -0.070 C 
BRANCH  17  18
HETATM   18  C2  UNL     1      29.683  -1.518  53.674  1.00  0.00     0.261 C 
BRANCH  18  19
HETATM   19  O1  UNL     1      29.118  -2.793  53.551  1.00  0.00    -0.384 OA
HETATM   20  C1  UNL     1      27.993  -2.722  52.732  1.00  0.00     0.202 C 
ENDBRANCH  18  19
ENDBRANCH  17  18
ENDBRANCH  13  16
ENDBRANCH   1  12
BRANCH  11  21
HETATM   21  O3  UNL     1      23.521   1.028  53.233  1.00  0.00    -0.338 OA
BRANCH  21  22
HETATM   22  C21 UNL     1      22.298   0.338  53.075  1.00  0.00     0.260 C 
HETATM   23 BR1  UNL     1      22.034  -0.818  54.623  1.00  0.00    -0.067 Br
ENDBRANCH  21  22
ENDBRANCH  11  21
BRANCH   9  24
HETATM   24  C13 UNL     1      25.549   5.559  49.144  1.00  0.00     0.031 A 
HETATM   25  C14 UNL     1      25.898   6.826  48.733  1.00  0.00     0.029 A 
HETATM   26  C15 UNL     1      27.134   7.200  48.251  1.00  0.00     0.002 A 
HETATM   27  C16 UNL     1      28.124   6.244  48.162  1.00  0.00     0.000 A 
HETATM   28  C17 UNL     1      27.843   4.950  48.559  1.00  0.00     0.002 A 
HETATM   29  C18 UNL     1      26.582   4.660  49.029  1.00  0.00     0.029 A 
ENDBRANCH   9  24
BRANCH   7  30
HETATM   30  N3  UNL     1      21.767   7.608  48.978  1.00  0.00    -0.400 N 
HETATM   31  H10 UNL     1      20.723   7.671  48.797  1.00  0.00     0.156 HD
HETATM   32  H11 UNL     1      22.330   8.462  48.706  1.00  0.00     0.156 HD
ENDBRANCH   7  30
TORSDOF 8
ENDMDL
MODEL 4
REMARK VINA RESULT:      -7.2      3.763      7.136
REMARK  8 active torsions:
REMARK  status: ('A' for Active; 'I' for Inactive)
REMARK    1  A    between atoms: O1_2  and  C2_3 
REMARK    2  A    between atoms: C2_3  and  C3_4 
REMARK    3  A    between atoms: C4_5  and  C5_6 
REMARK       I    between atoms: C5_6  and  N1_8 
REMARK    4  A    between atoms: N1_8  and  C6_9 
REMARK    5  A    between atoms: C11_15  and  N3_16 
REMARK    6  A    between atoms: N4_18  and  C13_19 
REMARK    7  A    between atoms: C20_26  and  O3_27 
REMARK    8  A    between atoms: O3_27  and  C21_28 
ROOT
HETATM    1  C6  UNL     1      21.577   1.088  51.773  1.00  0.00     0.067 C 
HETATM    2  C7  UNL     1      22.796   1.556  51.518  1.00  0.00     0.037 C 
HETATM    3  C8  UNL     1      24.041   1.058  52.164  1.00  0.00     0.162 C 
HETATM    4  C9  UNL     1      23.706   0.108  53.240  1.00  0.00     0.063 C 
HETATM    5  N2  UNL     1      24.445  -0.447  54.173  1.00  0.00    -0.261 NA
HETATM    6  C10 UNL     1      25.864  -0.205  54.337  1.00  0.00     0.143 C 
HETATM    7  C11 UNL     1      26.402   1.020  54.160  1.00  0.00     0.038 C 
HETATM    8  C12 UNL     1      25.640   2.269  53.775  1.00  0.00     0.182 C 
HETATM    9  N4  UNL     1      24.988   2.069  52.493  1.00  0.00    -0.361 N 
HETATM   10  C19 UNL     1      22.352  -0.400  53.484  1.00  0.00     0.068 C 
HETATM   11  C20 UNL     1      21.337   0.051  52.805  1.00  0.00     0.098 C 
ENDROOT
BRANCH   1  12
HETATM   12  N1  UNL     1      20.376   1.578  51.132  1.00  0.00    -0.314 N 
HETATM   13  C5  UNL     1      19.716   2.682  51.759  1.00  0.00     0.301 C 
HETATM   14  O2  UNL     1      20.158   3.206  52.824  1.00  0.00    -0.258 OA
HETATM   15  H6  UNL     1      19.991   1.157  50.249  1.00  0.00     0.170 HD
BRANCH  13  16
HETATM   16  C4  UNL     1      18.512   3.198  51.145  1.00  0.00    -0.003 C 
HETATM   17  C3  UNL     1      17.503   3.640  50.645  1.00  0.00    -0.070 C 
BRANCH  17  18
HETATM   18  C2  UNL     1      16.283   4.185  50.044  1.00  0.00     0.261 C 
BRANCH  18  19
HETATM   19  O1  UNL     1      15.142   3.531  50.522  1.00  0.00    -0.384 OA
HETATM   20  C1  UNL     1      14.923   3.893  51.850  1.00  0.00     0.202 C 
ENDBRANCH  18  19
ENDBRANCH  17  18
ENDBRANCH  13  16
ENDBRANCH   1  12
BRANCH  11  21
HETATM   21  O3  UNL     1      20.052  -0.419  53.033  1.00  0.00    -0.338 OA
BRANCH  21  22
HETATM   22  C21 UNL     1      19.892  -1.546  53.869  1.00  0.00     0.260 C 
HETATM   23 BR1  UNL     1      18.084  -2.241  53.634  1.00  0.00    -0.067 Br
ENDBRANCH  21  22
ENDBRANCH  11  21
BRANCH   9  24
HETATM   24  C13 UNL     1      25.289   2.952  51.427  1.00  0.00     0.031 A 
HETATM   25  C14 UNL     1      24.627   4.136  51.190  1.00  0.00     0.029 A 
HETATM   26  C15 UNL     1      24.911   5.021  50.173  1.00  0.00     0.002 A 
HETATM   27  C16 UNL     1      25.938   4.722  49.304  1.00  0.00     0.000 A 
HETATM   28  C17 UNL     1      26.647   3.547  49.484  1.00  0.00     0.002 A 
HETATM   29  C18 UNL     1      26.299   2.718  50.525  1.00  0.00     0.029 A 
ENDBRANCH   9  24
BRANCH   7  30
HETATM   30  N3  UNL     1      27.826   1.088  54.362  1.00  0.00    -0.400 N 
HETATM   31  H10 UNL     1      28.080   1.095  55.394  1.00  0.00     0.156 HD
HETATM   32  H11 UNL     1      28.644   1.131  53.692  1.00  0.00     0.156 HD
ENDBRANCH   7  30
TORSDOF 8
ENDMDL
MODEL 5
REMARK VINA RESULT:      -7.2      3.421      7.357
REMARK  8 active torsions:
REMARK  status: ('A' for Active; 'I' for Inactive)
REMARK    1  A    between atoms: O1_2  and  C2_3 
REMARK    2  A    between atoms: C2_3  and  C3_4 
REMARK    3  A    between atoms: C4_5  and  C5_6 
REMARK       I    between atoms: C5_6  and  N1_8 
REMARK    4  A    between atoms: N1_8  and  C6_9 
REMARK    5  A    between atoms: C11_15  and  N3_16 
REMARK    6  A    between atoms: N4_18  and  C13_19 
REMARK    7  A    between atoms: C20_26  and  O3_27 
REMARK    8  A    between atoms: O3_27  and  C21_28 
ROOT
HETATM    1  C6  UNL     1      23.930   2.376  50.909  1.00  0.00     0.067 C 
HETATM    2  C7  UNL     1      22.656   2.025  51.069  1.00  0.00     0.037 C 
HETATM    3  C8  UNL     1      21.508   2.691  50.394  1.00  0.00     0.162 C 
HETATM    4  C9  UNL     1      21.972   3.891  49.676  1.00  0.00     0.063 C 
HETATM    5  N2  UNL     1      21.314   4.865  49.090  1.00  0.00    -0.261 NA
HETATM    6  C10 UNL     1      19.869   4.952  49.038  1.00  0.00     0.143 C 
HETATM    7  C11 UNL     1      19.096   4.601  50.088  1.00  0.00     0.038 C 
HETATM    8  C12 UNL     1      19.599   4.080  51.416  1.00  0.00     0.182 C 
HETATM    9  N4  UNL     1      20.352   2.856  51.209  1.00  0.00    -0.361 N 
HETATM   10  C19 UNL     1      23.387   4.242  49.506  1.00  0.00     0.068 C 
HETATM   11  C20 UNL     1      24.321   3.541  50.081  1.00  0.00     0.098 C 
ENDROOT
BRANCH   1  12
HETATM   12  N1  UNL     1      25.036   1.715  51.565  1.00  0.00    -0.314 N 
HETATM   13  C5  UNL     1      25.316   2.112  52.912  1.00  0.00     0.301 C 
HETATM   14  O2  UNL     1      24.631   3.000  53.501  1.00  0.00    -0.258 OA
HETATM   15  H6  UNL     1      25.617   0.977  51.095  1.00  0.00     0.170 HD
BRANCH  13  16
HETATM   16  C4  UNL     1      26.415   1.471  53.600  1.00  0.00    -0.003 C 
HETATM   17  C3  UNL     1      27.338   0.926  54.161  1.00  0.00    -0.070 C 
BRANCH  17  18
HETATM   18  C2  UNL     1      28.461   0.266  54.830  1.00  0.00     0.261 C 
BRANCH  18  19
HETATM   19  O1  UNL     1      28.750  -0.971  54.243  1.00  0.00    -0.384 OA
HETATM   20  C1  UNL     1      29.955  -0.884  53.548  1.00  0.00     0.202 C 
ENDBRANCH  18  19
ENDBRANCH  17  18
ENDBRANCH  13  16
ENDBRANCH   1  12
BRANCH  11  21
HETATM   21  O3  UNL     1      25.661   3.869  49.930  1.00  0.00    -0.338 OA
BRANCH  21  22
HETATM   22  C21 UNL     1      25.984   5.154  49.442  1.00  0.00     0.260 C 
HETATM   23 BR1  UNL     1      27.744   5.077  48.606  1.00  0.00    -0.067 Br
ENDBRANCH  21  22
ENDBRANCH  11  21
BRANCH   9  24
HETATM   24  C13 UNL     1      19.935   1.675  51.871  1.00  0.00     0.031 A 
HETATM   25  C14 UNL     1      19.001   0.795  51.372  1.00  0.00     0.029 A 
HETATM   26  C15 UNL     1      18.591  -0.369  51.987  1.00  0.00     0.002 A 
HETATM   27  C16 UNL     1      19.147  -0.705  53.203  1.00  0.00     0.000 A 
HETATM   28  C17 UNL     1      20.093   0.135  53.762  1.00  0.00     0.002 A 
HETATM   29  C18 UNL     1      20.446   1.278  53.083  1.00  0.00     0.029 A 
ENDBRANCH   9  24
BRANCH   7  30
HETATM   30  N3  UNL     1      17.680   4.748  49.870  1.00  0.00    -0.400 N 
HETATM   31  H10 UNL     1      17.450   5.651  49.361  1.00  0.00     0.156 HD
HETATM   32  H11 UNL     1      16.850   4.139  50.117  1.00  0.00     0.156 HD
ENDBRANCH   7  30
TORSDOF 8
ENDMDL
MODEL 6
REMARK VINA RESULT:      -7.2      2.574      5.980
REMARK  8 active torsions:
REMARK  status: ('A' for Active; 'I' for Inactive)
REMARK    1  A    between atoms: O1_2  and  C2_3 
REMARK    2  A    between atoms: C2_3  and  C3_4 
REMARK    3  A    between atoms: C4_5  and  C5_6 
REMARK       I    between atoms: C5_6  and  N1_8 
REMARK    4  A    between atoms: N1_8  and  C6_9 
REMARK    5  A    between atoms: C11_15  and  N3_16 
REMARK    6  A    between atoms: N4_18  and  C13_19 
REMARK    7  A    between atoms: C20_26  and  O3_27 
REMARK    8  A    between atoms: O3_27  and  C21_28 
ROOT
HETATM    1  C6  UNL     1      23.836   2.826  50.966  1.00  0.00     0.067 C 
HETATM    2  C7  UNL     1      23.938   1.928  51.942  1.00  0.00     0.037 C 
HETATM    3  C8  UNL     1      25.206   1.589  52.646  1.00  0.00     0.162 C 
HETATM    4  C9  UNL     1      26.342   2.256  51.986  1.00  0.00     0.063 C 
HETATM    5  N2  UNL     1      27.640   2.126  52.143  1.00  0.00    -0.261 NA
HETATM    6  C10 UNL     1      28.256   1.211  53.083  1.00  0.00     0.143 C 
HETATM    7  C11 UNL     1      27.760  -0.024  53.305  1.00  0.00     0.038 C 
HETATM    8  C12 UNL     1      26.535  -0.613  52.640  1.00  0.00     0.182 C 
HETATM    9  N4  UNL     1      25.374   0.206  52.938  1.00  0.00    -0.361 N 
HETATM   10  C19 UNL     1      26.194   3.253  50.921  1.00  0.00     0.068 C 
HETATM   11  C20 UNL     1      25.022   3.533  50.427  1.00  0.00     0.098 C 
ENDROOT
BRANCH   1  12
HETATM   12  N1  UNL     1      22.596   3.150  50.297  1.00  0.00    -0.314 N 
HETATM   13  C5  UNL     1      21.725   4.070  50.964  1.00  0.00     0.301 C 
HETATM   14  O2  UNL     1      22.024   4.576  52.087  1.00  0.00    -0.258 OA
HETATM   15  H6  UNL     1      22.328   2.742  49.366  1.00  0.00     0.170 HD
BRANCH  13  16
HETATM   16  C4  UNL     1      20.476   4.417  50.324  1.00  0.00    -0.003 C 
HETATM   17  C3  UNL     1      19.431   4.722  49.797  1.00  0.00    -0.070 C 
BRANCH  17  18
HETATM   18  C2  UNL     1      18.168   5.102  49.158  1.00  0.00     0.261 C 
BRANCH  18  19
HETATM   19  O1  UNL     1      17.141   4.209  49.484  1.00  0.00    -0.384 OA
HETATM   20  C1  UNL     1      16.893   4.269  50.854  1.00  0.00     0.202 C 
ENDBRANCH  18  19
ENDBRANCH  17  18
ENDBRANCH  13  16
ENDBRANCH   1  12
BRANCH  11  21
HETATM   21  O3  UNL     1      24.874   4.470  49.415  1.00  0.00    -0.338 OA
BRANCH  21  22
HETATM   22  C21 UNL     1      25.259   5.803  49.676  1.00  0.00     0.260 C 
HETATM   23 BR1  UNL     1      26.850   6.208  48.624  1.00  0.00    -0.067 Br
ENDBRANCH  21  22
ENDBRANCH  11  21
BRANCH   9  24
HETATM   24  C13 UNL     1      24.262  -0.391  53.581  1.00  0.00     0.031 A 
HETATM   25  C14 UNL     1      23.056  -0.645  52.969  1.00  0.00     0.029 A 
HETATM   26  C15 UNL     1      21.965  -1.240  53.566  1.00  0.00     0.002 A 
HETATM   27  C16 UNL     1      22.063  -1.624  54.886  1.00  0.00     0.000 A 
HETATM   28  C17 UNL     1      23.248  -1.401  55.563  1.00  0.00     0.002 A 
HETATM   29  C18 UNL     1      24.289  -0.800  54.893  1.00  0.00     0.029 A 
ENDBRANCH   9  24
BRANCH   7  30
HETATM   30  N3  UNL     1      28.492  -0.804  54.269  1.00  0.00    -0.400 N 
HETATM   31  H10 UNL     1      29.043  -1.586  53.809  1.00  0.00     0.156 HD
HETATM   32  H11 UNL     1      28.578  -0.744  55.322  1.00  0.00     0.156 HD
ENDBRANCH   7  30
TORSDOF 8
ENDMDL
MODEL 7
REMARK VINA RESULT:      -7.1      3.611      7.669
REMARK  8 active torsions:
REMARK  status: ('A' for Active; 'I' for Inactive)
REMARK    1  A    between atoms: O1_2  and  C2_3 
REMARK    2  A    between atoms: C2_3  and  C3_4 
REMARK    3  A    between atoms: C4_5  and  C5_6 
REMARK       I    between atoms: C5_6  and  N1_8 
REMARK    4  A    between atoms: N1_8  and  C6_9 
REMARK    5  A    between atoms: C11_15  and  N3_16 
REMARK    6  A    between atoms: N4_18  and  C13_19 
REMARK    7  A    between atoms: C20_26  and  O3_27 
REMARK    8  A    between atoms: O3_27  and  C21_28 
ROOT
HETATM    1  C6  UNL     1      21.666   2.955  52.130  1.00  0.00     0.067 C 
HETATM    2  C7  UNL     1      22.977   2.761  52.245  1.00  0.00     0.037 C 
HETATM    3  C8  UNL     1      24.015   3.662  51.674  1.00  0.00     0.162 C 
HETATM    4  C9  UNL     1      23.382   4.685  50.823  1.00  0.00     0.063 C 
HETATM    5  N2  UNL     1      23.893   5.571  49.999  1.00  0.00    -0.261 NA
HETATM    6  C10 UNL     1      25.311   5.720  49.744  1.00  0.00     0.143 C 
HETATM    7  C11 UNL     1      26.133   4.654  49.651  1.00  0.00     0.038 C 
HETATM    8  C12 UNL     1      25.719   3.206  49.801  1.00  0.00     0.182 C 
HETATM    9  N4  UNL     1      25.143   2.995  51.116  1.00  0.00    -0.361 N 
HETATM   10  C19 UNL     1      21.931   4.882  50.731  1.00  0.00     0.068 C 
HETATM   11  C20 UNL     1      21.108   4.076  51.337  1.00  0.00     0.098 C 
ENDROOT
BRANCH   1  12
HETATM   12  N1  UNL     1      20.669   2.074  52.697  1.00  0.00    -0.314 N 
HETATM   13  C5  UNL     1      20.311   0.923  51.922  1.00  0.00     0.301 C 
HETATM   14  O2  UNL     1      20.839   0.688  50.795  1.00  0.00    -0.258 OA
HETATM   15  H6  UNL     1      20.218   2.251  53.629  1.00  0.00     0.170 HD
BRANCH  13  16
HETATM   16  C4  UNL     1      19.317   0.021  52.459  1.00  0.00    -0.003 C 
HETATM   17  C3  UNL     1      18.486  -0.744  52.893  1.00  0.00    -0.070 C 
BRANCH  17  18
HETATM   18  C2  UNL     1      17.485  -1.679  53.414  1.00  0.00     0.261 C 
BRANCH  18  19
HETATM   19  O1  UNL     1      18.045  -2.934  53.678  1.00  0.00    -0.384 OA
HETATM   20  C1  UNL     1      17.053  -3.909  53.604  1.00  0.00     0.202 C 
ENDBRANCH  18  19
ENDBRANCH  17  18
ENDBRANCH  13  16
ENDBRANCH   1  12
BRANCH  11  21
HETATM   21  O3  UNL     1      19.735   4.250  51.249  1.00  0.00    -0.338 OA
BRANCH  21  22
HETATM   22  C21 UNL     1      19.099   3.948  50.025  1.00  0.00     0.260 C 
HETATM   23 BR1  UNL     1      17.488   2.916  50.399  1.00  0.00    -0.067 Br
ENDBRANCH  21  22
ENDBRANCH  11  21
BRANCH   9  24
HETATM   24  C13 UNL     1      25.727   2.029  51.972  1.00  0.00     0.031 A 
HETATM   25  C14 UNL     1      25.884   2.189  53.330  1.00  0.00     0.029 A 
HETATM   26  C15 UNL     1      26.432   1.258  54.188  1.00  0.00     0.002 A 
HETATM   27  C16 UNL     1      26.866   0.057  53.668  1.00  0.00     0.000 A 
HETATM   28  C17 UNL     1      26.737  -0.171  52.311  1.00  0.00     0.002 A 
HETATM   29  C18 UNL     1      26.180   0.811  51.524  1.00  0.00     0.029 A 
ENDBRANCH   9  24
BRANCH   7  30
HETATM   30  N3  UNL     1      27.513   4.977  49.394  1.00  0.00    -0.400 N 
HETATM   31  H10 UNL     1      28.112   4.106  49.297  1.00  0.00     0.156 HD
HETATM   32  H11 UNL     1      28.026   5.897  49.288  1.00  0.00     0.156 HD
ENDBRANCH   7  30
TORSDOF 8
ENDMDL
MODEL 8
REMARK VINA RESULT:      -6.8      2.569      3.234
REMARK  8 active torsions:
REMARK  status: ('A' for Active; 'I' for Inactive)
REMARK    1  A    between atoms: O1_2  and  C2_3 
REMARK    2  A    between atoms: C2_3  and  C3_4 
REMARK    3  A    between atoms: C4_5  and  C5_6 
REMARK       I    between atoms: C5_6  and  N1_8 
REMARK    4  A    between atoms: N1_8  and  C6_9 
REMARK    5  A    between atoms: C11_15  and  N3_16 
REMARK    6  A    between atoms: N4_18  and  C13_19 
REMARK    7  A    between atoms: C20_26  and  O3_27 
REMARK    8  A    between atoms: O3_27  and  C21_28 
ROOT
HETATM    1  C6  UNL     1      24.456   4.198  49.728  1.00  0.00     0.067 C 
HETATM    2  C7  UNL     1      24.826   3.169  50.486  1.00  0.00     0.037 C 
HETATM    3  C8  UNL     1      23.962   1.996  50.792  1.00  0.00     0.162 C 
HETATM    4  C9  UNL     1      22.598   2.228  50.284  1.00  0.00     0.063 C 
HETATM    5  N2  UNL     1      21.478   1.564  50.460  1.00  0.00    -0.261 NA
HETATM    6  C10 UNL     1      21.362   0.366  51.266  1.00  0.00     0.143 C 
HETATM    7  C11 UNL     1      22.029   0.225  52.432  1.00  0.00     0.038 C 
HETATM    8  C12 UNL     1      22.963   1.248  53.041  1.00  0.00     0.182 C 
HETATM    9  N4  UNL     1      24.059   1.515  52.128  1.00  0.00    -0.361 N 
HETATM   10  C19 UNL     1      22.228   3.366  49.436  1.00  0.00     0.068 C 
HETATM   11  C20 UNL     1      23.089   4.305  49.166  1.00  0.00     0.098 C 
ENDROOT
BRANCH   1  12
HETATM   12  N1  UNL     1      25.310   5.328  49.434  1.00  0.00    -0.314 N 
HETATM   13  C5  UNL     1      25.239   6.440  50.333  1.00  0.00     0.301 C 
HETATM   14  O2  UNL     1      24.466   6.437  51.337  1.00  0.00    -0.258 OA
HETATM   15  H6  UNL     1      25.957   5.352  48.606  1.00  0.00     0.170 HD
BRANCH  13  16
HETATM   16  C4  UNL     1      26.078   7.588  50.070  1.00  0.00    -0.003 C 
HETATM   17  C3  UNL     1      26.767   8.558  49.851  1.00  0.00    -0.070 C 
BRANCH  17  18
HETATM   18  C2  UNL     1      27.594   9.739  49.592  1.00  0.00     0.261 C 
BRANCH  18  19
HETATM   19  O1  UNL     1      26.814  10.835  49.208  1.00  0.00    -0.384 OA
HETATM   20  C1  UNL     1      27.563  11.670  48.381  1.00  0.00     0.202 C 
ENDBRANCH  18  19
ENDBRANCH  17  18
ENDBRANCH  13  16
ENDBRANCH   1  12
BRANCH  11  21
HETATM   21  O3  UNL     1      22.746   5.388  48.372  1.00  0.00    -0.338 OA
BRANCH  21  22
HETATM   22  C21 UNL     1      21.741   6.266  48.836  1.00  0.00     0.260 C 
HETATM   23 BR1  UNL     1      22.361   8.100  48.597  1.00  0.00    -0.067 Br
ENDBRANCH  21  22
ENDBRANCH  11  21
BRANCH   9  24
HETATM   24  C13 UNL     1      25.387   1.295  52.571  1.00  0.00     0.031 A 
HETATM   25  C14 UNL     1      26.075   2.142  53.411  1.00  0.00     0.029 A 
HETATM   26  C15 UNL     1      27.359   1.944  53.871  1.00  0.00     0.002 A 
HETATM   27  C16 UNL     1      28.035   0.811  53.472  1.00  0.00     0.000 A 
HETATM   28  C17 UNL     1      27.404  -0.084  52.628  1.00  0.00     0.002 A 
HETATM   29  C18 UNL     1      26.120   0.189  52.215  1.00  0.00     0.029 A 
ENDBRANCH   9  24
BRANCH   7  30
HETATM   30  N3  UNL     1      21.802  -1.026  53.108  1.00  0.00    -0.400 N 
HETATM   31  H10 UNL     1      21.155  -0.912  53.943  1.00  0.00     0.156 HD
HETATM   32  H11 UNL     1      22.152  -2.009  52.933  1.00  0.00     0.156 HD
ENDBRANCH   7  30
TORSDOF 8
ENDMDL
MODEL 9
REMARK VINA RESULT:      -6.7      3.511      6.808
REMARK  8 active torsions:
REMARK  status: ('A' for Active; 'I' for Inactive)
REMARK    1  A    between atoms: O1_2  and  C2_3 
REMARK    2  A    between atoms: C2_3  and  C3_4 
REMARK    3  A    between atoms: C4_5  and  C5_6 
REMARK       I    between atoms: C5_6  and  N1_8 
REMARK    4  A    between atoms: N1_8  and  C6_9 
REMARK    5  A    between atoms: C11_15  and  N3_16 
REMARK    6  A    between atoms: N4_18  and  C13_19 
REMARK    7  A    between atoms: C20_26  and  O3_27 
REMARK    8  A    between atoms: O3_27  and  C21_28 
ROOT
HETATM    1  C6  UNL     1      22.741   2.335  52.209  1.00  0.00     0.067 C 
HETATM    2  C7  UNL     1      21.447   2.483  51.936  1.00  0.00     0.037 C 
HETATM    3  C8  UNL     1      20.367   1.613  52.477  1.00  0.00     0.162 C 
HETATM    4  C9  UNL     1      20.955   0.472  53.202  1.00  0.00     0.063 C 
HETATM    5  N2  UNL     1      20.415  -0.619  53.693  1.00  0.00    -0.261 NA
HETATM    6  C10 UNL     1      19.004  -0.939  53.603  1.00  0.00     0.143 C 
HETATM    7  C11 UNL     1      18.283  -0.671  52.494  1.00  0.00     0.038 C 
HETATM    8  C12 UNL     1      18.813  -0.019  51.236  1.00  0.00     0.182 C 
HETATM    9  N4  UNL     1      19.333   1.300  51.550  1.00  0.00    -0.361 N 
HETATM   10  C19 UNL     1      22.386   0.347  53.499  1.00  0.00     0.068 C 
HETATM   11  C20 UNL     1      23.241   1.213  53.037  1.00  0.00     0.098 C 
ENDROOT
BRANCH   1  12
HETATM   12  N1  UNL     1      23.778   3.194  51.681  1.00  0.00    -0.314 N 
HETATM   13  C5  UNL     1      24.056   3.083  50.281  1.00  0.00     0.301 C 
HETATM   14  O2  UNL     1      23.426   2.272  49.539  1.00  0.00    -0.258 OA
HETATM   15  H6  UNL     1      24.314   3.871  52.279  1.00  0.00     0.170 HD
BRANCH  13  16
HETATM   16  C4  UNL     1      25.087   3.927  49.719  1.00  0.00    -0.003 C 
HETATM   17  C3  UNL     1      25.958   4.632  49.265  1.00  0.00    -0.070 C 
BRANCH  17  18
HETATM   18  C2  UNL     1      27.020   5.482  48.720  1.00  0.00     0.261 C 
BRANCH  18  19
HETATM   19  O1  UNL     1      28.215   4.770  48.564  1.00  0.00    -0.384 OA
HETATM   20  C1  UNL     1      29.239   5.652  48.223  1.00  0.00     0.202 C 
ENDBRANCH  18  19
ENDBRANCH  17  18
ENDBRANCH  13  16
ENDBRANCH   1  12
BRANCH  11  21
HETATM   21  O3  UNL     1      24.597   1.098  53.307  1.00  0.00    -0.338 OA
BRANCH  21  22
HETATM   22  C21 UNL     1      25.132  -0.194  53.507  1.00  0.00     0.260 C 
HETATM   23 BR1  UNL     1      26.679  -0.413  52.339  1.00  0.00    -0.067 Br
ENDBRANCH  21  22
ENDBRANCH  11  21
BRANCH   9  24
HETATM   24  C13 UNL     1      18.790   2.426  50.884  1.00  0.00     0.031 A 
HETATM   25  C14 UNL     1      19.042   2.746  49.569  1.00  0.00     0.029 A 
HETATM   26  C15 UNL     1      18.513   3.825  48.892  1.00  0.00     0.002 A 
HETATM   27  C16 UNL     1      17.656   4.670  49.565  1.00  0.00     0.000 A 
HETATM   28  C17 UNL     1      17.358   4.407  50.889  1.00  0.00     0.002 A 
HETATM   29  C18 UNL     1      17.929   3.310  51.491  1.00  0.00     0.029 A 
ENDBRANCH   9  24
BRANCH   7  30
HETATM   30  N3  UNL     1      16.897  -1.053  52.569  1.00  0.00    -0.400 N 
HETATM   31  H10 UNL     1      16.484  -1.237  51.608  1.00  0.00     0.156 HD
HETATM   32  H11 UNL     1      16.232  -1.180  53.383  1.00  0.00     0.156 HD
ENDBRANCH   7  30
TORSDOF 8
ENDMDL
