MODEL 1
REMARK VINA RESULT:      -9.8      0.000      0.000
REMARK  2 active torsions:
REMARK  status: ('A' for Active; 'I' for Inactive)
REMARK    1  A    between atoms: N2_14  and  C11_15 
REMARK    2  A    between atoms: C15_19  and  C16_20 
ROOT
HETATM    1  C1  UNL     1      26.764  -2.278  52.146  1.00  0.00     0.053 C 
HETATM    2  C2  UNL     1      27.572  -1.456  53.016  1.00  0.00    -0.001 C 
HETATM    3  C3  UNL     1      26.708  -0.570  53.523  1.00  0.00     0.022 C 
HETATM    4  C4  UNL     1      26.956   0.190  54.857  1.00  0.00     0.090 C 
HETATM    5  C5  UNL     1      27.835   1.313  54.179  1.00  0.00     0.140 C 
HETATM    6  C6  UNL     1      29.143   1.042  54.552  1.00  0.00     0.063 C 
HETATM    7  C7  UNL     1      29.588  -0.324  54.031  1.00  0.00     0.018 C 
HETATM    8  C8  UNL     1      29.027  -1.385  53.373  1.00  0.00     0.120 C 
HETATM    9  F1  UNL     1      29.561  -2.526  52.898  1.00  0.00    -0.206 F 
HETATM   10  O1  UNL     1      26.993   2.359  54.060  1.00  0.00    -0.326 OA
HETATM   11  C9  UNL     1      25.749   2.277  53.352  1.00  0.00     0.205 C 
HETATM   12  N1  UNL     1      24.992   3.273  53.369  1.00  0.00    -0.275 NA
HETATM   13  C10 UNL     1      25.153   1.146  52.546  1.00  0.00     0.181 C 
HETATM   14  N2  UNL     1      24.263   1.122  51.681  1.00  0.00    -0.227 NA
HETATM   15  N3  UNL     1      25.582  -0.265  52.642  1.00  0.00    -0.340 N 
HETATM   16  H10 UNL     1      24.078   3.379  52.919  1.00  0.00     0.189 HD
HETATM   17  H20 UNL     1      25.364  -1.174  52.265  1.00  0.00     0.167 HD
ENDROOT
BRANCH  14  18
HETATM   18  C11 UNL     1      23.430   2.004  51.052  1.00  0.00     0.060 A 
HETATM   19  C12 UNL     1      22.030   1.959  50.992  1.00  0.00     0.031 A 
HETATM   20  C13 UNL     1      21.235   2.881  50.342  1.00  0.00     0.003 A 
HETATM   21  C14 UNL     1      21.841   3.936  49.696  1.00  0.00     0.012 A 
HETATM   22  C15 UNL     1      23.215   4.067  49.700  1.00  0.00    -0.027 A 
HETATM   23  C21 UNL     1      23.952   3.110  50.368  1.00  0.00     0.043 A 
BRANCH  22  24
HETATM   24  C16 UNL     1      23.896   5.167  49.029  1.00  0.00    -0.044 A 
HETATM   25  C17 UNL     1      23.331   6.042  48.189  1.00  0.00     0.008 A 
HETATM   26  C18 UNL     1      24.326   6.998  47.717  1.00  0.00    -0.003 A 
HETATM   27  C19 UNL     1      25.479   6.678  48.287  1.00  0.00    -0.022 A 
HETATM   28  C20 UNL     1      25.342   5.486  49.181  1.00  0.00     0.066 A 
ENDBRANCH  22  24
ENDBRANCH  14  18
TORSDOF 2
ENDMDL
MODEL 2
REMARK VINA RESULT:      -9.7      2.034      4.281
REMARK  2 active torsions:
REMARK  status: ('A' for Active; 'I' for Inactive)
REMARK    1  A    between atoms: N2_14  and  C11_15 
REMARK    2  A    between atoms: C15_19  and  C16_20 
ROOT
HETATM    1  C1  UNL     1      27.134  -2.332  52.541  1.00  0.00     0.053 C 
HETATM    2  C2  UNL     1      27.883  -1.284  53.194  1.00  0.00    -0.001 C 
HETATM    3  C3  UNL     1      26.943  -0.480  53.702  1.00  0.00     0.022 C 
HETATM    4  C4  UNL     1      27.205   0.486  54.893  1.00  0.00     0.090 C 
HETATM    5  C5  UNL     1      27.800   1.626  53.978  1.00  0.00     0.140 C 
HETATM    6  C6  UNL     1      29.169   1.614  54.205  1.00  0.00     0.063 C 
HETATM    7  C7  UNL     1      29.778   0.273  53.795  1.00  0.00     0.018 C 
HETATM    8  C8  UNL     1      29.335  -0.941  53.346  1.00  0.00     0.120 C 
HETATM    9  F1  UNL     1      29.999  -2.041  52.943  1.00  0.00    -0.206 F 
HETATM   10  O1  UNL     1      26.786   2.505  53.848  1.00  0.00    -0.326 OA
HETATM   11  C9  UNL     1      25.503   2.136  53.325  1.00  0.00     0.205 C 
HETATM   12  N1  UNL     1      24.594   2.996  53.323  1.00  0.00    -0.275 NA
HETATM   13  C10 UNL     1      25.021   0.826  52.743  1.00  0.00     0.181 C 
HETATM   14  N2  UNL     1      24.058   0.547  52.011  1.00  0.00    -0.227 NA
HETATM   15  N3  UNL     1      25.691  -0.475  52.947  1.00  0.00    -0.340 N 
HETATM   16  H10 UNL     1      23.632   2.897  52.988  1.00  0.00     0.189 HD
HETATM   17  H20 UNL     1      25.590  -1.450  52.711  1.00  0.00     0.167 HD
ENDROOT
BRANCH  14  18
HETATM   18  C11 UNL     1      23.024   1.195  51.398  1.00  0.00     0.060 A 
HETATM   19  C12 UNL     1      23.086   2.370  50.635  1.00  0.00     0.031 A 
HETATM   20  C13 UNL     1      22.005   2.982  50.033  1.00  0.00     0.003 A 
HETATM   21  C14 UNL     1      20.760   2.414  50.179  1.00  0.00     0.012 A 
HETATM   22  C15 UNL     1      20.597   1.256  50.912  1.00  0.00    -0.027 A 
HETATM   23  C21 UNL     1      21.718   0.694  51.488  1.00  0.00     0.043 A 
BRANCH  22  24
HETATM   24  C16 UNL     1      19.296   0.622  51.091  1.00  0.00    -0.044 A 
HETATM   25  C17 UNL     1      18.921  -0.111  52.145  1.00  0.00     0.008 A 
HETATM   26  C18 UNL     1      17.551  -0.578  51.968  1.00  0.00    -0.003 A 
HETATM   27  C19 UNL     1      17.124  -0.114  50.802  1.00  0.00    -0.022 A 
HETATM   28  C20 UNL     1      18.176   0.697  50.113  1.00  0.00     0.066 A 
ENDBRANCH  22  24
ENDBRANCH  14  18
TORSDOF 2
ENDMDL
MODEL 3
REMARK VINA RESULT:      -9.4      3.290      7.898
REMARK  2 active torsions:
REMARK  status: ('A' for Active; 'I' for Inactive)
REMARK    1  A    between atoms: N2_14  and  C11_15 
REMARK    2  A    between atoms: C15_19  and  C16_20 
ROOT
HETATM    1  C1  UNL     1      22.273   3.255  47.516  1.00  0.00     0.053 C 
HETATM    2  C2  UNL     1      22.075   4.516  48.191  1.00  0.00    -0.001 C 
HETATM    3  C3  UNL     1      23.060   4.560  49.095  1.00  0.00     0.022 C 
HETATM    4  C4  UNL     1      23.587   5.886  49.713  1.00  0.00     0.090 C 
HETATM    5  C5  UNL     1      22.460   5.945  50.817  1.00  0.00     0.140 C 
HETATM    6  C6  UNL     1      21.589   6.946  50.412  1.00  0.00     0.063 C 
HETATM    7  C7  UNL     1      20.953   6.602  49.065  1.00  0.00     0.018 C 
HETATM    8  C8  UNL     1      21.068   5.625  48.115  1.00  0.00     0.120 C 
HETATM    9  F1  UNL     1      20.379   5.395  46.980  1.00  0.00    -0.206 F 
HETATM   10  O1  UNL     1      23.074   5.505  51.934  1.00  0.00    -0.326 OA
HETATM   11  C9  UNL     1      23.711   4.223  52.014  1.00  0.00     0.205 C 
HETATM   12  N1  UNL     1      24.331   3.934  53.062  1.00  0.00    -0.275 NA
HETATM   13  C10 UNL     1      23.774   3.095  51.009  1.00  0.00     0.181 C 
HETATM   14  N2  UNL     1      24.028   1.886  51.132  1.00  0.00    -0.227 NA
HETATM   15  N3  UNL     1      23.496   3.246  49.566  1.00  0.00    -0.340 N 
HETATM   16  H10 UNL     1      24.835   3.070  53.279  1.00  0.00     0.189 HD
HETATM   17  H20 UNL     1      23.481   2.708  48.714  1.00  0.00     0.167 HD
ENDROOT
BRANCH  14  18
HETATM   18  C11 UNL     1      24.352   1.010  52.129  1.00  0.00     0.060 A 
HETATM   19  C12 UNL     1      23.483   0.407  53.050  1.00  0.00     0.031 A 
HETATM   20  C13 UNL     1      23.866  -0.477  54.039  1.00  0.00     0.003 A 
HETATM   21  C14 UNL     1      25.199  -0.806  54.149  1.00  0.00     0.012 A 
HETATM   22  C15 UNL     1      26.131  -0.265  53.287  1.00  0.00    -0.027 A 
HETATM   23  C21 UNL     1      25.683   0.613  52.321  1.00  0.00     0.043 A 
BRANCH  22  24
HETATM   24  C16 UNL     1      27.550  -0.588  53.370  1.00  0.00    -0.044 A 
HETATM   25  C17 UNL     1      28.108  -1.756  53.034  1.00  0.00     0.008 A 
HETATM   26  C18 UNL     1      29.549  -1.704  53.253  1.00  0.00    -0.003 A 
HETATM   27  C19 UNL     1      29.833  -0.497  53.721  1.00  0.00    -0.022 A 
HETATM   28  C20 UNL     1      28.605   0.348  53.849  1.00  0.00     0.066 A 
ENDBRANCH  22  24
ENDBRANCH  14  18
TORSDOF 2
ENDMDL
MODEL 4
REMARK VINA RESULT:      -9.3      3.396      7.708
REMARK  2 active torsions:
REMARK  status: ('A' for Active; 'I' for Inactive)
REMARK    1  A    between atoms: N2_14  and  C11_15 
REMARK    2  A    between atoms: C15_19  and  C16_20 
ROOT
HETATM    1  C1  UNL     1      24.486   7.753  51.205  1.00  0.00     0.053 C 
HETATM    2  C2  UNL     1      25.510   7.700  50.187  1.00  0.00    -0.001 C 
HETATM    3  C3  UNL     1      25.362   6.489  49.639  1.00  0.00     0.022 C 
HETATM    4  C4  UNL     1      25.863   6.138  48.209  1.00  0.00     0.090 C 
HETATM    5  C5  UNL     1      27.337   5.832  48.684  1.00  0.00     0.140 C 
HETATM    6  C6  UNL     1      28.100   6.909  48.254  1.00  0.00     0.063 C 
HETATM    7  C7  UNL     1      27.624   8.208  48.904  1.00  0.00     0.018 C 
HETATM    8  C8  UNL     1      26.606   8.613  49.723  1.00  0.00     0.120 C 
HETATM    9  F1  UNL     1      26.336   9.803  50.293  1.00  0.00    -0.206 F 
HETATM   10  O1  UNL     1      27.393   4.486  48.734  1.00  0.00    -0.326 OA
HETATM   11  C9  UNL     1      26.496   3.703  49.532  1.00  0.00     0.205 C 
HETATM   12  N1  UNL     1      26.564   2.456  49.449  1.00  0.00    -0.275 NA
HETATM   13  C10 UNL     1      25.424   4.131  50.509  1.00  0.00     0.181 C 
HETATM   14  N2  UNL     1      24.852   3.528  51.431  1.00  0.00    -0.227 NA
HETATM   15  N3  UNL     1      24.827   5.482  50.554  1.00  0.00    -0.340 N 
HETATM   16  H10 UNL     1      26.003   1.759  49.945  1.00  0.00     0.189 HD
HETATM   17  H20 UNL     1      24.127   6.009  51.052  1.00  0.00     0.167 HD
ENDROOT
BRANCH  14  18
HETATM   18  C11 UNL     1      24.875   2.289  52.005  1.00  0.00     0.060 A 
HETATM   19  C12 UNL     1      23.776   1.490  52.354  1.00  0.00     0.031 A 
HETATM   20  C13 UNL     1      23.858   0.239  52.932  1.00  0.00     0.003 A 
HETATM   21  C14 UNL     1      25.103  -0.285  53.197  1.00  0.00     0.012 A 
HETATM   22  C15 UNL     1      26.245   0.425  52.888  1.00  0.00    -0.027 A 
HETATM   23  C21 UNL     1      26.095   1.670  52.312  1.00  0.00     0.043 A 
BRANCH  22  24
HETATM   24  C16 UNL     1      27.582  -0.094  53.152  1.00  0.00    -0.044 A 
HETATM   25  C17 UNL     1      27.960  -1.373  53.048  1.00  0.00     0.008 A 
HETATM   26  C18 UNL     1      29.371  -1.508  53.391  1.00  0.00    -0.003 A 
HETATM   27  C19 UNL     1      29.819  -0.299  53.698  1.00  0.00    -0.022 A 
HETATM   28  C20 UNL     1      28.742   0.734  53.582  1.00  0.00     0.066 A 
ENDBRANCH  22  24
ENDBRANCH  14  18
TORSDOF 2
ENDMDL
MODEL 5
REMARK VINA RESULT:      -9.2      4.190      7.555
REMARK  2 active torsions:
REMARK  status: ('A' for Active; 'I' for Inactive)
REMARK    1  A    between atoms: N2_14  and  C11_15 
REMARK    2  A    between atoms: C15_19  and  C16_20 
ROOT
HETATM    1  C1  UNL     1      27.548   5.077  48.583  1.00  0.00     0.053 C 
HETATM    2  C2  UNL     1      26.827   6.326  48.660  1.00  0.00    -0.001 C 
HETATM    3  C3  UNL     1      25.958   6.139  49.659  1.00  0.00     0.022 C 
HETATM    4  C4  UNL     1      25.319   7.310  50.457  1.00  0.00     0.090 C 
HETATM    5  C5  UNL     1      24.173   7.550  49.398  1.00  0.00     0.140 C 
HETATM    6  C6  UNL     1      24.516   8.718  48.733  1.00  0.00     0.063 C 
HETATM    7  C7  UNL     1      25.849   8.558  48.002  1.00  0.00     0.018 C 
HETATM    8  C8  UNL     1      26.833   7.614  47.892  1.00  0.00     0.120 C 
HETATM    9  F1  UNL     1      27.948   7.568  47.138  1.00  0.00    -0.206 F 
HETATM   10  O1  UNL     1      23.093   6.954  49.943  1.00  0.00    -0.326 OA
HETATM   11  C9  UNL     1      23.077   5.569  50.314  1.00  0.00     0.205 C 
HETATM   12  N1  UNL     1      22.061   5.124  50.894  1.00  0.00    -0.275 NA
HETATM   13  C10 UNL     1      24.117   4.490  50.121  1.00  0.00     0.181 C 
HETATM   14  N2  UNL     1      24.041   3.251  50.133  1.00  0.00    -0.227 NA
HETATM   15  N3  UNL     1      25.545   4.748  49.837  1.00  0.00    -0.340 N 
HETATM   16  H10 UNL     1      21.889   4.169  51.221  1.00  0.00     0.189 HD
HETATM   17  H20 UNL     1      26.412   4.256  49.691  1.00  0.00     0.167 HD
ENDROOT
BRANCH  14  18
HETATM   18  C11 UNL     1      23.085   2.292  50.304  1.00  0.00     0.060 A 
HETATM   19  C12 UNL     1      22.067   1.933  49.408  1.00  0.00     0.031 A 
HETATM   20  C13 UNL     1      21.125   0.949  49.633  1.00  0.00     0.003 A 
HETATM   21  C14 UNL     1      21.168   0.253  50.820  1.00  0.00     0.012 A 
HETATM   22  C15 UNL     1      22.133   0.533  51.765  1.00  0.00    -0.027 A 
HETATM   23  C21 UNL     1      23.046   1.529  51.480  1.00  0.00     0.043 A 
BRANCH  22  24
HETATM   24  C16 UNL     1      22.214  -0.180  53.034  1.00  0.00    -0.044 A 
HETATM   25  C17 UNL     1      21.175  -0.630  53.747  1.00  0.00     0.008 A 
HETATM   26  C18 UNL     1      21.647  -1.292  54.957  1.00  0.00    -0.003 A 
HETATM   27  C19 UNL     1      22.971  -1.226  54.951  1.00  0.00    -0.022 A 
HETATM   28  C20 UNL     1      23.482  -0.517  53.737  1.00  0.00     0.066 A 
ENDBRANCH  22  24
ENDBRANCH  14  18
TORSDOF 2
ENDMDL
MODEL 6
REMARK VINA RESULT:      -9.0      3.344      7.974
REMARK  2 active torsions:
REMARK  status: ('A' for Active; 'I' for Inactive)
REMARK    1  A    between atoms: N2_14  and  C11_15 
REMARK    2  A    between atoms: C15_19  and  C16_20 
ROOT
HETATM    1  C1  UNL     1      26.849   6.027  48.443  1.00  0.00     0.053 C 
HETATM    2  C2  UNL     1      25.617   6.755  48.633  1.00  0.00    -0.001 C 
HETATM    3  C3  UNL     1      25.252   6.457  49.885  1.00  0.00     0.022 C 
HETATM    4  C4  UNL     1      24.300   7.353  50.728  1.00  0.00     0.090 C 
HETATM    5  C5  UNL     1      22.989   6.726  50.111  1.00  0.00     0.140 C 
HETATM    6  C6  UNL     1      22.483   7.689  49.249  1.00  0.00     0.063 C 
HETATM    7  C7  UNL     1      23.473   7.987  48.123  1.00  0.00     0.018 C 
HETATM    8  C8  UNL     1      24.748   7.631  47.780  1.00  0.00     0.120 C 
HETATM    9  F1  UNL     1      25.496   7.916  46.696  1.00  0.00    -0.206 F 
HETATM   10  O1  UNL     1      22.563   5.864  51.055  1.00  0.00    -0.326 OA
HETATM   11  C9  UNL     1      23.378   4.794  51.552  1.00  0.00     0.205 C 
HETATM   12  N1  UNL     1      22.932   4.097  52.491  1.00  0.00    -0.275 NA
HETATM   13  C10 UNL     1      24.752   4.329  51.126  1.00  0.00     0.181 C 
HETATM   14  N2  UNL     1      25.354   3.257  51.293  1.00  0.00    -0.227 NA
HETATM   15  N3  UNL     1      25.703   5.143  50.340  1.00  0.00    -0.340 N 
HETATM   16  H10 UNL     1      23.382   3.303  52.956  1.00  0.00     0.189 HD
HETATM   17  H20 UNL     1      26.633   5.100  49.956  1.00  0.00     0.167 HD
ENDROOT
BRANCH  14  18
HETATM   18  C11 UNL     1      25.133   2.045  51.885  1.00  0.00     0.060 A 
HETATM   19  C12 UNL     1      23.904   1.510  52.298  1.00  0.00     0.031 A 
HETATM   20  C13 UNL     1      23.737   0.275  52.890  1.00  0.00     0.003 A 
HETATM   21  C14 UNL     1      24.848  -0.511  53.102  1.00  0.00     0.012 A 
HETATM   22  C15 UNL     1      26.101  -0.072  52.727  1.00  0.00    -0.027 A 
HETATM   23  C21 UNL     1      26.200   1.174  52.141  1.00  0.00     0.043 A 
BRANCH  22  24
HETATM   24  C16 UNL     1      27.302  -0.872  52.933  1.00  0.00    -0.044 A 
HETATM   25  C17 UNL     1      28.485  -0.415  53.361  1.00  0.00     0.008 A 
HETATM   26  C18 UNL     1      29.445  -1.509  53.443  1.00  0.00    -0.003 A 
HETATM   27  C19 UNL     1      28.818  -2.612  53.059  1.00  0.00    -0.022 A 
HETATM   28  C20 UNL     1      27.394  -2.339  52.693  1.00  0.00     0.066 A 
ENDBRANCH  22  24
ENDBRANCH  14  18
TORSDOF 2
ENDMDL
MODEL 7
REMARK VINA RESULT:      -9.0      5.291      9.232
REMARK  2 active torsions:
REMARK  status: ('A' for Active; 'I' for Inactive)
REMARK    1  A    between atoms: N2_14  and  C11_15 
REMARK    2  A    between atoms: C15_19  and  C16_20 
ROOT
HETATM    1  C1  UNL     1      16.579  -0.357  49.451  1.00  0.00     0.053 C 
HETATM    2  C2  UNL     1      16.282   1.028  49.733  1.00  0.00    -0.001 C 
HETATM    3  C3  UNL     1      17.481   1.579  49.954  1.00  0.00     0.022 C 
HETATM    4  C4  UNL     1      17.755   3.103  49.802  1.00  0.00     0.090 C 
HETATM    5  C5  UNL     1      17.238   3.450  51.253  1.00  0.00     0.140 C 
HETATM    6  C6  UNL     1      16.005   4.060  51.075  1.00  0.00     0.063 C 
HETATM    7  C7  UNL     1      15.016   3.105  50.406  1.00  0.00     0.018 C 
HETATM    8  C8  UNL     1      15.035   1.852  49.860  1.00  0.00     0.120 C 
HETATM    9  F1  UNL     1      14.053   1.080  49.357  1.00  0.00    -0.206 F 
HETATM   10  O1  UNL     1      18.366   3.600  51.975  1.00  0.00    -0.326 OA
HETATM   11  C9  UNL     1      19.356   2.569  52.089  1.00  0.00     0.205 C 
HETATM   12  N1  UNL     1      20.412   2.828  52.709  1.00  0.00    -0.275 NA
HETATM   13  C10 UNL     1      19.358   1.149  51.570  1.00  0.00     0.181 C 
HETATM   14  N2  UNL     1      20.017   0.148  51.891  1.00  0.00    -0.227 NA
HETATM   15  N3  UNL     1      18.472   0.652  50.496  1.00  0.00    -0.340 N 
HETATM   16  H10 UNL     1      21.211   2.211  52.879  1.00  0.00     0.189 HD
HETATM   17  H20 UNL     1      18.280  -0.185  49.968  1.00  0.00     0.167 HD
ENDROOT
BRANCH  14  18
HETATM   18  C11 UNL     1      20.991  -0.184  52.790  1.00  0.00     0.060 A 
HETATM   19  C12 UNL     1      20.819  -0.738  54.067  1.00  0.00     0.031 A 
HETATM   20  C13 UNL     1      21.843  -1.058  54.936  1.00  0.00     0.003 A 
HETATM   21  C14 UNL     1      23.141  -0.825  54.540  1.00  0.00     0.012 A 
HETATM   22  C15 UNL     1      23.411  -0.284  53.299  1.00  0.00    -0.027 A 
HETATM   23  C21 UNL     1      22.343   0.014  52.479  1.00  0.00     0.043 A 
BRANCH  22  24
HETATM   24  C16 UNL     1      24.770  -0.022  52.842  1.00  0.00    -0.044 A 
HETATM   25  C17 UNL     1      25.831  -0.812  53.045  1.00  0.00     0.008 A 
HETATM   26  C18 UNL     1      27.020  -0.220  52.441  1.00  0.00    -0.003 A 
HETATM   27  C19 UNL     1      26.649   0.923  51.883  1.00  0.00    -0.022 A 
HETATM   28  C20 UNL     1      25.187   1.182  52.071  1.00  0.00     0.066 A 
ENDBRANCH  22  24
ENDBRANCH  14  18
TORSDOF 2
ENDMDL
MODEL 8
REMARK VINA RESULT:      -8.9      3.740      7.682
REMARK  2 active torsions:
REMARK  status: ('A' for Active; 'I' for Inactive)
REMARK    1  A    between atoms: N2_14  and  C11_15 
REMARK    2  A    between atoms: C15_19  and  C16_20 
ROOT
HETATM    1  C1  UNL     1      24.414   7.692  51.212  1.00  0.00     0.053 C 
HETATM    2  C2  UNL     1      25.441   7.577  50.203  1.00  0.00    -0.001 C 
HETATM    3  C3  UNL     1      25.310   6.328  49.745  1.00  0.00     0.022 C 
HETATM    4  C4  UNL     1      25.819   5.879  48.346  1.00  0.00     0.090 C 
HETATM    5  C5  UNL     1      27.295   5.627  48.844  1.00  0.00     0.140 C 
HETATM    6  C6  UNL     1      28.046   6.678  48.338  1.00  0.00     0.063 C 
HETATM    7  C7  UNL     1      27.553   8.016  48.891  1.00  0.00     0.018 C 
HETATM    8  C8  UNL     1      26.527   8.467  49.675  1.00  0.00     0.120 C 
HETATM    9  F1  UNL     1      26.242   9.692  50.157  1.00  0.00    -0.206 F 
HETATM   10  O1  UNL     1      27.366   4.289  48.993  1.00  0.00    -0.326 OA
HETATM   11  C9  UNL     1      26.476   3.555  49.844  1.00  0.00     0.205 C 
HETATM   12  N1  UNL     1      26.560   2.306  49.853  1.00  0.00    -0.275 NA
HETATM   13  C10 UNL     1      25.397   4.040  50.785  1.00  0.00     0.181 C 
HETATM   14  N2  UNL     1      24.830   3.500  51.747  1.00  0.00    -0.227 NA
HETATM   15  N3  UNL     1      24.784   5.384  50.730  1.00  0.00    -0.340 N 
HETATM   16  H10 UNL     1      26.005   1.641  50.398  1.00  0.00     0.189 HD
HETATM   17  H20 UNL     1      24.076   5.937  51.187  1.00  0.00     0.167 HD
ENDROOT
BRANCH  14  18
HETATM   18  C11 UNL     1      24.866   2.307  52.411  1.00  0.00     0.060 A 
HETATM   19  C12 UNL     1      25.996   1.636  52.900  1.00  0.00     0.031 A 
HETATM   20  C13 UNL     1      25.974   0.429  53.570  1.00  0.00     0.003 A 
HETATM   21  C14 UNL     1      24.760  -0.183  53.785  1.00  0.00     0.012 A 
HETATM   22  C15 UNL     1      23.590   0.400  53.342  1.00  0.00    -0.027 A 
HETATM   23  C21 UNL     1      23.681   1.607  52.680  1.00  0.00     0.043 A 
BRANCH  22  24
HETATM   24  C16 UNL     1      22.285  -0.215  53.550  1.00  0.00    -0.044 A 
HETATM   25  C17 UNL     1      21.134   0.184  52.997  1.00  0.00     0.008 A 
HETATM   26  C18 UNL     1      20.041  -0.674  53.440  1.00  0.00    -0.003 A 
HETATM   27  C19 UNL     1      20.558  -1.580  54.258  1.00  0.00    -0.022 A 
HETATM   28  C20 UNL     1      22.034  -1.396  54.423  1.00  0.00     0.066 A 
ENDBRANCH  22  24
ENDBRANCH  14  18
TORSDOF 2
ENDMDL
MODEL 9
REMARK VINA RESULT:      -8.5      4.065      8.460
REMARK  2 active torsions:
REMARK  status: ('A' for Active; 'I' for Inactive)
REMARK    1  A    between atoms: N2_14  and  C11_15 
REMARK    2  A    between atoms: C15_19  and  C16_20 
ROOT
HETATM    1  C1  UNL     1      22.280   4.962  46.672  1.00  0.00     0.053 C 
HETATM    2  C2  UNL     1      21.818   6.023  47.537  1.00  0.00    -0.001 C 
HETATM    3  C3  UNL     1      22.780   6.134  48.459  1.00  0.00     0.022 C 
HETATM    4  C4  UNL     1      23.010   7.425  49.294  1.00  0.00     0.090 C 
HETATM    5  C5  UNL     1      21.912   7.057  50.367  1.00  0.00     0.140 C 
HETATM    6  C6  UNL     1      20.837   7.895  50.106  1.00  0.00     0.063 C 
HETATM    7  C7  UNL     1      20.276   7.643  48.707  1.00  0.00     0.018 C 
HETATM    8  C8  UNL     1      20.591   6.882  47.615  1.00  0.00     0.120 C 
HETATM    9  F1  UNL     1      19.956   6.694  46.442  1.00  0.00    -0.206 F 
HETATM   10  O1  UNL     1      22.620   6.586  51.413  1.00  0.00    -0.326 OA
HETATM   11  C9  UNL     1      23.524   5.479  51.301  1.00  0.00     0.205 C 
HETATM   12  N1  UNL     1      24.205   5.167  52.304  1.00  0.00    -0.275 NA
HETATM   13  C10 UNL     1      23.821   4.570  50.130  1.00  0.00     0.181 C 
HETATM   14  N2  UNL     1      24.336   3.443  50.063  1.00  0.00    -0.227 NA
HETATM   15  N3  UNL     1      23.499   4.889  48.723  1.00  0.00    -0.340 N 
HETATM   16  H10 UNL     1      24.889   4.410  52.391  1.00  0.00     0.189 HD
HETATM   17  H20 UNL     1      23.593   4.505  47.796  1.00  0.00     0.167 HD
ENDROOT
BRANCH  14  18
HETATM   18  C11 UNL     1      24.856   2.509  50.914  1.00  0.00     0.060 A 
HETATM   19  C12 UNL     1      26.208   2.190  51.107  1.00  0.00     0.031 A 
HETATM   20  C13 UNL     1      26.680   1.236  51.986  1.00  0.00     0.003 A 
HETATM   21  C14 UNL     1      25.771   0.529  52.742  1.00  0.00     0.012 A 
HETATM   22  C15 UNL     1      24.418   0.773  52.623  1.00  0.00    -0.027 A 
HETATM   23  C21 UNL     1      24.012   1.740  51.727  1.00  0.00     0.043 A 
BRANCH  22  24
HETATM   24  C16 UNL     1      23.424   0.047  53.405  1.00  0.00    -0.044 A 
HETATM   25  C17 UNL     1      22.097   0.120  53.246  1.00  0.00     0.008 A 
HETATM   26  C18 UNL     1      21.429  -0.746  54.210  1.00  0.00    -0.003 A 
HETATM   27  C19 UNL     1      22.373  -1.328  54.937  1.00  0.00    -0.022 A 
HETATM   28  C20 UNL     1      23.741  -0.895  54.513  1.00  0.00     0.066 A 
ENDBRANCH  22  24
ENDBRANCH  14  18
TORSDOF 2
ENDMDL
