MODEL 1
REMARK VINA RESULT:      -8.3      0.000      0.000
REMARK  4 active torsions:
REMARK  status: ('A' for Active; 'I' for Inactive)
REMARK    1  A    between atoms: C3_3  and  O1_4 
REMARK    2  A    between atoms: N2_14  and  C11_15 
REMARK    3  A    between atoms: C11_15  and  C12_16 
REMARK    4  A    between atoms: C15_19  and  O2_20 
ROOT
HETATM    1  C1  UNL     1      22.349   2.389  47.684  1.00  0.00     0.047 C 
HETATM    2  C2  UNL     1      22.314   2.252  49.192  1.00  0.00    -0.044 C 
HETATM    3  C3  UNL     1      21.217   1.556  49.424  1.00  0.00     0.080 C 
HETATM    4  C4  UNL     1      20.298   0.933  50.412  1.00  0.00     0.024 A 
HETATM    5  C5  UNL     1      18.955   1.138  50.050  1.00  0.00     0.016 A 
HETATM    6  C6  UNL     1      17.840   0.743  50.743  1.00  0.00     0.001 A 
HETATM    7  C7  UNL     1      18.109   0.082  51.903  1.00  0.00     0.002 A 
HETATM    8  C8  UNL     1      19.370  -0.183  52.368  1.00  0.00     0.030 A 
HETATM    9  C9  UNL     1      20.424   0.235  51.637  1.00  0.00     0.047 A 
HETATM   10  N1  UNL     1      21.814   0.187  51.783  1.00  0.00    -0.332 N 
HETATM   11  C10 UNL     1      22.217   1.468  51.995  1.00  0.00     0.174 C 
HETATM   12  S1  UNL     1      21.416   2.743  52.331  1.00  0.00    -0.041 SA
HETATM   13  N2  UNL     1      23.506   1.851  52.091  1.00  0.00    -0.353 N 
HETATM   14  C18 UNL     1      24.525   2.874  52.093  1.00  0.00     0.131 C 
HETATM   15  C19 UNL     1      24.523   3.298  50.613  1.00  0.00     0.019 C 
HETATM   16  C20 UNL     1      23.386   2.688  50.151  1.00  0.00     0.032 C 
HETATM   17  H9  UNL     1      21.880  -0.777  51.669  1.00  0.00     0.168 HD
ENDROOT
BRANCH  13  18
HETATM   18  C11 UNL     1      24.010   0.532  51.998  1.00  0.00     0.163 C 
BRANCH  18  19
HETATM   19  C12 UNL     1      25.214   0.327  52.878  1.00  0.00    -0.040 A 
HETATM   20  C13 UNL     1      26.427   0.133  52.235  1.00  0.00     0.011 A 
HETATM   21  C14 UNL     1      27.632  -0.072  52.885  1.00  0.00     0.037 A 
HETATM   22  C15 UNL     1      27.540  -0.071  54.260  1.00  0.00     0.065 A 
HETATM   23  C16 UNL     1      26.363   0.118  54.931  1.00  0.00     0.037 A 
HETATM   24  C17 UNL     1      25.191   0.318  54.252  1.00  0.00     0.011 A 
BRANCH  22  25
HETATM   25  O2  UNL     1      28.721  -0.273  54.976  1.00  0.00    -0.361 OA
HETATM   26  H14 UNL     1      29.532  -0.529  54.408  1.00  0.00     0.217 HD
ENDBRANCH  22  25
ENDBRANCH  18  19
ENDBRANCH  13  18
BRANCH   3  27
HETATM   27  O1  UNL     1      20.769   1.356  48.127  1.00  0.00    -0.360 OA
HETATM   28  H4  UNL     1      21.305   1.257  47.304  1.00  0.00     0.217 HD
ENDBRANCH   3  27
TORSDOF 4
ENDMDL
MODEL 2
REMARK VINA RESULT:      -7.9      3.431      5.925
REMARK  4 active torsions:
REMARK  status: ('A' for Active; 'I' for Inactive)
REMARK    1  A    between atoms: C3_3  and  O1_4 
REMARK    2  A    between atoms: N2_14  and  C11_15 
REMARK    3  A    between atoms: C11_15  and  C12_16 
REMARK    4  A    between atoms: C15_19  and  O2_20 
ROOT
HETATM    1  C1  UNL     1      21.633   7.271  50.811  1.00  0.00     0.047 C 
HETATM    2  C2  UNL     1      22.091   5.850  50.556  1.00  0.00    -0.044 C 
HETATM    3  C3  UNL     1      23.390   5.965  50.354  1.00  0.00     0.080 C 
HETATM    4  C4  UNL     1      24.685   5.307  50.037  1.00  0.00     0.024 A 
HETATM    5  C5  UNL     1      25.436   6.082  49.135  1.00  0.00     0.016 A 
HETATM    6  C6  UNL     1      26.656   5.772  48.591  1.00  0.00     0.001 A 
HETATM    7  C7  UNL     1      27.159   4.573  48.997  1.00  0.00     0.002 A 
HETATM    8  C8  UNL     1      26.531   3.726  49.871  1.00  0.00     0.030 A 
HETATM    9  C9  UNL     1      25.331   4.092  50.369  1.00  0.00     0.047 A 
HETATM   10  N1  UNL     1      24.394   3.511  51.228  1.00  0.00    -0.332 N 
HETATM   11  C10 UNL     1      23.313   3.208  50.462  1.00  0.00     0.174 C 
HETATM   12  S1  UNL     1      23.131   3.171  48.930  1.00  0.00    -0.041 SA
HETATM   13  N2  UNL     1      22.156   2.715  50.946  1.00  0.00    -0.353 N 
HETATM   14  C18 UNL     1      20.751   2.410  50.801  1.00  0.00     0.131 C 
HETATM   15  C19 UNL     1      20.138   3.822  50.810  1.00  0.00     0.019 C 
HETATM   16  C20 UNL     1      21.252   4.609  50.673  1.00  0.00     0.032 C 
HETATM   17  H9  UNL     1      24.952   3.578  52.022  1.00  0.00     0.168 HD
ENDROOT
BRANCH  13  18
HETATM   18  C11 UNL     1      22.635   2.615  52.273  1.00  0.00     0.163 C 
BRANCH  18  19
HETATM   19  C12 UNL     1      22.244   1.312  52.916  1.00  0.00    -0.040 A 
HETATM   20  C13 UNL     1      21.116   1.331  53.722  1.00  0.00     0.011 A 
HETATM   21  C14 UNL     1      20.614   0.227  54.391  1.00  0.00     0.037 A 
HETATM   22  C15 UNL     1      21.338  -0.930  54.195  1.00  0.00     0.065 A 
HETATM   23  C16 UNL     1      22.454  -0.989  53.408  1.00  0.00     0.037 A 
HETATM   24  C17 UNL     1      22.920   0.125  52.762  1.00  0.00     0.011 A 
BRANCH  22  25
HETATM   25  O2  UNL     1      20.884  -2.079  54.843  1.00  0.00    -0.361 OA
HETATM   26  H14 UNL     1      20.375  -2.738  54.248  1.00  0.00     0.217 HD
ENDBRANCH  22  25
ENDBRANCH  18  19
ENDBRANCH  13  18
BRANCH   3  27
HETATM   27  O1  UNL     1      23.549   7.333  50.518  1.00  0.00    -0.360 OA
HETATM   28  H4  UNL     1      23.345   7.880  51.314  1.00  0.00     0.217 HD
ENDBRANCH   3  27
TORSDOF 4
ENDMDL
MODEL 3
REMARK VINA RESULT:      -7.9      3.115      5.848
REMARK  4 active torsions:
REMARK  status: ('A' for Active; 'I' for Inactive)
REMARK    1  A    between atoms: C3_3  and  O1_4 
REMARK    2  A    between atoms: N2_14  and  C11_15 
REMARK    3  A    between atoms: C11_15  and  C12_16 
REMARK    4  A    between atoms: C15_19  and  O2_20 
ROOT
HETATM    1  C1  UNL     1      20.627   1.210  51.742  1.00  0.00     0.047 C 
HETATM    2  C2  UNL     1      21.942   1.943  51.909  1.00  0.00    -0.044 C 
HETATM    3  C3  UNL     1      22.800   0.991  52.223  1.00  0.00     0.080 C 
HETATM    4  C4  UNL     1      24.190   0.609  52.585  1.00  0.00     0.024 A 
HETATM    5  C5  UNL     1      24.197  -0.356  53.608  1.00  0.00     0.016 A 
HETATM    6  C6  UNL     1      25.294  -0.909  54.219  1.00  0.00     0.001 A 
HETATM    7  C7  UNL     1      26.486  -0.444  53.752  1.00  0.00     0.002 A 
HETATM    8  C8  UNL     1      26.617   0.491  52.761  1.00  0.00     0.030 A 
HETATM    9  C9  UNL     1      25.497   0.996  52.202  1.00  0.00     0.047 A 
HETATM   10  N1  UNL     1      25.221   1.955  51.223  1.00  0.00    -0.332 N 
HETATM   11  C10 UNL     1      24.653   3.005  51.870  1.00  0.00     0.174 C 
HETATM   12  S1  UNL     1      24.551   3.339  53.374  1.00  0.00    -0.041 SA
HETATM   13  N2  UNL     1      24.158   4.098  51.255  1.00  0.00    -0.353 N 
HETATM   14  C18 UNL     1      23.356   5.300  51.259  1.00  0.00     0.131 C 
HETATM   15  C19 UNL     1      21.936   4.708  51.324  1.00  0.00     0.019 C 
HETATM   16  C20 UNL     1      22.195   3.395  51.617  1.00  0.00     0.032 C 
HETATM   17  H9  UNL     1      25.576   1.429  50.485  1.00  0.00     0.168 HD
ENDROOT
BRANCH  13  18
HETATM   18  C11 UNL     1      24.569   3.683  49.966  1.00  0.00     0.163 C 
BRANCH  18  19
HETATM   19  C12 UNL     1      25.524   4.662  49.337  1.00  0.00    -0.040 A 
HETATM   20  C13 UNL     1      26.833   4.238  49.178  1.00  0.00     0.011 A 
HETATM   21  C14 UNL     1      27.842   5.006  48.621  1.00  0.00     0.037 A 
HETATM   22  C15 UNL     1      27.441   6.264  48.223  1.00  0.00     0.065 A 
HETATM   23  C16 UNL     1      26.158   6.718  48.363  1.00  0.00     0.037 A 
HETATM   24  C17 UNL     1      25.188   5.928  48.919  1.00  0.00     0.011 A 
BRANCH  22  25
HETATM   25  O2  UNL     1      28.411   7.089  47.654  1.00  0.00    -0.361 OA
HETATM   26  H14 UNL     1      28.646   7.922  48.200  1.00  0.00     0.217 HD
ENDBRANCH  22  25
ENDBRANCH  18  19
ENDBRANCH  13  18
BRANCH   3  27
HETATM   27  O1  UNL     1      21.967  -0.117  52.192  1.00  0.00    -0.360 OA
HETATM   28  H4  UNL     1      21.933  -0.873  52.826  1.00  0.00     0.217 HD
ENDBRANCH   3  27
TORSDOF 4
ENDMDL
MODEL 4
REMARK VINA RESULT:      -7.6      2.404      6.884
REMARK  4 active torsions:
REMARK  status: ('A' for Active; 'I' for Inactive)
REMARK    1  A    between atoms: C3_3  and  O1_4 
REMARK    2  A    between atoms: N2_14  and  C11_15 
REMARK    3  A    between atoms: C11_15  and  C12_16 
REMARK    4  A    between atoms: C15_19  and  O2_20 
ROOT
HETATM    1  C1  UNL     1      21.756  -0.694  53.861  1.00  0.00     0.047 C 
HETATM    2  C2  UNL     1      22.412   0.539  53.277  1.00  0.00    -0.044 C 
HETATM    3  C3  UNL     1      23.703   0.274  53.341  1.00  0.00     0.080 C 
HETATM    4  C4  UNL     1      25.100   0.721  53.100  1.00  0.00     0.024 A 
HETATM    5  C5  UNL     1      25.937   0.355  54.169  1.00  0.00     0.016 A 
HETATM    6  C6  UNL     1      27.272   0.634  54.311  1.00  0.00     0.001 A 
HETATM    7  C7  UNL     1      27.806   1.345  53.279  1.00  0.00     0.002 A 
HETATM    8  C8  UNL     1      27.102   1.761  52.180  1.00  0.00     0.030 A 
HETATM    9  C9  UNL     1      25.790   1.453  52.104  1.00  0.00     0.047 A 
HETATM   10  N1  UNL     1      24.760   1.714  51.195  1.00  0.00    -0.332 N 
HETATM   11  C10 UNL     1      23.909   2.569  51.821  1.00  0.00     0.174 C 
HETATM   12  S1  UNL     1      24.066   3.392  53.117  1.00  0.00    -0.041 SA
HETATM   13  N2  UNL     1      22.737   2.986  51.304  1.00  0.00    -0.353 N 
HETATM   14  C18 UNL     1      21.438   3.604  51.446  1.00  0.00     0.131 C 
HETATM   15  C19 UNL     1      20.686   2.530  52.253  1.00  0.00     0.019 C 
HETATM   16  C20 UNL     1      21.709   1.703  52.638  1.00  0.00     0.032 C 
HETATM   17  H9  UNL     1      25.124   1.152  50.489  1.00  0.00     0.168 HD
ENDROOT
BRANCH  13  18
HETATM   18  C11 UNL     1      22.927   2.318  50.071  1.00  0.00     0.163 C 
BRANCH  18  19
HETATM   19  C12 UNL     1      22.699   3.231  48.896  1.00  0.00    -0.040 A 
HETATM   20  C13 UNL     1      21.952   2.716  47.847  1.00  0.00     0.011 A 
HETATM   21  C14 UNL     1      21.646   3.413  46.690  1.00  0.00     0.037 A 
HETATM   22  C15 UNL     1      22.153   4.695  46.651  1.00  0.00     0.065 A 
HETATM   23  C16 UNL     1      22.893   5.237  47.665  1.00  0.00     0.037 A 
HETATM   24  C17 UNL     1      23.174   4.516  48.795  1.00  0.00     0.011 A 
BRANCH  22  25
HETATM   25  O2  UNL     1      21.881   5.451  45.510  1.00  0.00    -0.361 OA
HETATM   26  H14 UNL     1      21.840   4.918  44.638  1.00  0.00     0.217 HD
ENDBRANCH  22  25
ENDBRANCH  18  19
ENDBRANCH  13  18
BRANCH   3  27
HETATM   27  O1  UNL     1      23.671  -0.996  53.896  1.00  0.00    -0.360 OA
HETATM   28  H4  UNL     1      23.257  -1.813  53.528  1.00  0.00     0.217 HD
ENDBRANCH   3  27
TORSDOF 4
ENDMDL
MODEL 5
REMARK VINA RESULT:      -7.5      3.036      5.325
REMARK  4 active torsions:
REMARK  status: ('A' for Active; 'I' for Inactive)
REMARK    1  A    between atoms: C3_3  and  O1_4 
REMARK    2  A    between atoms: N2_14  and  C11_15 
REMARK    3  A    between atoms: C11_15  and  C12_16 
REMARK    4  A    between atoms: C15_19  and  O2_20 
ROOT
HETATM    1  C1  UNL     1      22.340  -0.929  54.749  1.00  0.00     0.047 C 
HETATM    2  C2  UNL     1      22.055  -0.070  53.535  1.00  0.00    -0.044 C 
HETATM    3  C3  UNL     1      20.740  -0.099  53.427  1.00  0.00     0.080 C 
HETATM    4  C4  UNL     1      19.522   0.319  52.685  1.00  0.00     0.024 A 
HETATM    5  C5  UNL     1      18.605  -0.742  52.584  1.00  0.00     0.016 A 
HETATM    6  C6  UNL     1      17.396  -0.735  51.935  1.00  0.00     0.001 A 
HETATM    7  C7  UNL     1      17.090   0.450  51.339  1.00  0.00     0.002 A 
HETATM    8  C8  UNL     1      17.894   1.559  51.363  1.00  0.00     0.030 A 
HETATM    9  C9  UNL     1      19.071   1.484  52.018  1.00  0.00     0.047 A 
HETATM   10  N1  UNL     1      20.143   2.355  52.236  1.00  0.00    -0.332 N 
HETATM   11  C10 UNL     1      21.188   1.853  51.528  1.00  0.00     0.174 C 
HETATM   12  S1  UNL     1      21.250   0.758  50.442  1.00  0.00    -0.041 SA
HETATM   13  N2  UNL     1      22.436   2.363  51.555  1.00  0.00    -0.353 N 
HETATM   14  C18 UNL     1      23.853   2.257  51.290  1.00  0.00     0.131 C 
HETATM   15  C19 UNL     1      24.272   1.206  52.333  1.00  0.00     0.019 C 
HETATM   16  C20 UNL     1      23.058   0.736  52.759  1.00  0.00     0.032 C 
HETATM   17  H9  UNL     1      19.647   2.959  52.815  1.00  0.00     0.168 HD
ENDROOT
BRANCH  13  18
HETATM   18  C11 UNL     1      22.084   3.450  52.389  1.00  0.00     0.163 C 
BRANCH  18  19
HETATM   19  C12 UNL     1      22.494   4.771  51.795  1.00  0.00    -0.040 A 
HETATM   20  C13 UNL     1      21.536   5.438  51.046  1.00  0.00     0.011 A 
HETATM   21  C14 UNL     1      21.740   6.660  50.427  1.00  0.00     0.037 A 
HETATM   22  C15 UNL     1      23.002   7.184  50.612  1.00  0.00     0.065 A 
HETATM   23  C16 UNL     1      23.972   6.556  51.344  1.00  0.00     0.037 A 
HETATM   24  C17 UNL     1      23.732   5.348  51.941  1.00  0.00     0.011 A 
BRANCH  22  25
HETATM   25  O2  UNL     1      23.272   8.415  50.013  1.00  0.00    -0.361 OA
HETATM   26  H14 UNL     1      22.550   8.751  49.371  1.00  0.00     0.217 HD
ENDBRANCH  22  25
ENDBRANCH  18  19
ENDBRANCH  13  18
BRANCH   3  27
HETATM   27  O1  UNL     1      20.416  -0.894  54.516  1.00  0.00    -0.360 OA
HETATM   28  H4  UNL     1      19.953  -1.765  54.518  1.00  0.00     0.217 HD
ENDBRANCH   3  27
TORSDOF 4
ENDMDL
MODEL 6
REMARK VINA RESULT:      -7.5      3.155      6.085
REMARK  4 active torsions:
REMARK  status: ('A' for Active; 'I' for Inactive)
REMARK    1  A    between atoms: C3_3  and  O1_4 
REMARK    2  A    between atoms: N2_14  and  C11_15 
REMARK    3  A    between atoms: C11_15  and  C12_16 
REMARK    4  A    between atoms: C15_19  and  O2_20 
ROOT
HETATM    1  C1  UNL     1      26.853   0.951  52.552  1.00  0.00     0.047 C 
HETATM    2  C2  UNL     1      25.573   1.482  51.940  1.00  0.00    -0.044 C 
HETATM    3  C3  UNL     1      24.622   0.978  52.704  1.00  0.00     0.080 C 
HETATM    4  C4  UNL     1      23.170   0.836  52.989  1.00  0.00     0.024 A 
HETATM    5  C5  UNL     1      22.857  -0.484  53.361  1.00  0.00     0.016 A 
HETATM    6  C6  UNL     1      21.617  -0.991  53.655  1.00  0.00     0.001 A 
HETATM    7  C7  UNL     1      20.607  -0.082  53.565  1.00  0.00     0.002 A 
HETATM    8  C8  UNL     1      20.777   1.232  53.216  1.00  0.00     0.030 A 
HETATM    9  C9  UNL     1      22.025   1.666  52.938  1.00  0.00     0.047 A 
HETATM   10  N1  UNL     1      22.585   2.879  52.528  1.00  0.00    -0.332 N 
HETATM   11  C10 UNL     1      23.013   2.687  51.253  1.00  0.00     0.174 C 
HETATM   12  S1  UNL     1      22.739   1.548  50.249  1.00  0.00    -0.041 SA
HETATM   13  N2  UNL     1      23.697   3.602  50.537  1.00  0.00    -0.353 N 
HETATM   14  C18 UNL     1      24.523   3.968  49.409  1.00  0.00     0.131 C 
HETATM   15  C19 UNL     1      25.850   3.283  49.779  1.00  0.00     0.019 C 
HETATM   16  C20 UNL     1      25.468   2.477  50.820  1.00  0.00     0.032 C 
HETATM   17  H9  UNL     1      22.410   3.342  53.365  1.00  0.00     0.168 HD
ENDROOT
BRANCH  13  18
HETATM   18  C11 UNL     1      23.614   4.597  51.539  1.00  0.00     0.163 C 
BRANCH  18  19
HETATM   19  C12 UNL     1      23.246   5.941  50.969  1.00  0.00    -0.040 A 
HETATM   20  C13 UNL     1      21.934   6.099  50.551  1.00  0.00     0.011 A 
HETATM   21  C14 UNL     1      21.423   7.264  50.003  1.00  0.00     0.037 A 
HETATM   22  C15 UNL     1      22.340   8.288  49.896  1.00  0.00     0.065 A 
HETATM   23  C16 UNL     1      23.642   8.170  50.297  1.00  0.00     0.037 A 
HETATM   24  C17 UNL     1      24.110   7.002  50.835  1.00  0.00     0.011 A 
BRANCH  22  25
HETATM   25  O2  UNL     1      21.888   9.490  49.350  1.00  0.00    -0.361 OA
HETATM   26  H14 UNL     1      21.107   9.401  48.694  1.00  0.00     0.217 HD
ENDBRANCH  22  25
ENDBRANCH  18  19
ENDBRANCH  13  18
BRANCH   3  27
HETATM   27  O1  UNL     1      25.385   0.274  53.623  1.00  0.00    -0.360 OA
HETATM   28  H4  UNL     1      25.074  -0.317  54.350  1.00  0.00     0.217 HD
ENDBRANCH   3  27
TORSDOF 4
ENDMDL
MODEL 7
REMARK VINA RESULT:      -7.5      3.005      5.425
REMARK  4 active torsions:
REMARK  status: ('A' for Active; 'I' for Inactive)
REMARK    1  A    between atoms: C3_3  and  O1_4 
REMARK    2  A    between atoms: N2_14  and  C11_15 
REMARK    3  A    between atoms: C11_15  and  C12_16 
REMARK    4  A    between atoms: C15_19  and  O2_20 
ROOT
HETATM    1  C1  UNL     1      21.273   6.429  51.106  1.00  0.00     0.047 C 
HETATM    2  C2  UNL     1      22.225   5.331  50.678  1.00  0.00    -0.044 C 
HETATM    3  C3  UNL     1      23.299   5.981  50.271  1.00  0.00     0.080 C 
HETATM    4  C4  UNL     1      24.669   5.927  49.697  1.00  0.00     0.024 A 
HETATM    5  C5  UNL     1      24.854   6.940  48.739  1.00  0.00     0.016 A 
HETATM    6  C6  UNL     1      25.972   7.168  47.979  1.00  0.00     0.001 A 
HETATM    7  C7  UNL     1      26.991   6.295  48.210  1.00  0.00     0.002 A 
HETATM    8  C8  UNL     1      26.940   5.268  49.114  1.00  0.00     0.030 A 
HETATM    9  C9  UNL     1      25.809   5.098  49.830  1.00  0.00     0.047 A 
HETATM   10  N1  UNL     1      25.370   4.182  50.791  1.00  0.00    -0.332 N 
HETATM   11  C10 UNL     1      24.393   3.448  50.196  1.00  0.00     0.174 C 
HETATM   12  S1  UNL     1      23.969   3.328  48.718  1.00  0.00    -0.041 SA
HETATM   13  N2  UNL     1      23.653   2.517  50.830  1.00  0.00    -0.353 N 
HETATM   14  C18 UNL     1      22.500   1.648  50.901  1.00  0.00     0.131 C 
HETATM   15  C19 UNL     1      21.370   2.672  51.111  1.00  0.00     0.019 C 
HETATM   16  C20 UNL     1      22.012   3.853  50.846  1.00  0.00     0.032 C 
HETATM   17  H9  UNL     1      25.984   4.483  51.483  1.00  0.00     0.168 HD
ENDROOT
BRANCH  13  18
HETATM   18  C11 UNL     1      24.362   2.637  52.049  1.00  0.00     0.163 C 
BRANCH  18  19
HETATM   19  C12 UNL     1      24.996   1.336  52.461  1.00  0.00    -0.040 A 
HETATM   20  C13 UNL     1      26.183   0.997  51.829  1.00  0.00     0.011 A 
HETATM   21  C14 UNL     1      26.900  -0.161  52.083  1.00  0.00     0.037 A 
HETATM   22  C15 UNL     1      26.335  -0.979  53.037  1.00  0.00     0.065 A 
HETATM   23  C16 UNL     1      25.168  -0.678  53.683  1.00  0.00     0.037 A 
HETATM   24  C17 UNL     1      24.486   0.476  53.405  1.00  0.00     0.011 A 
BRANCH  22  25
HETATM   25  O2  UNL     1      27.010  -2.162  53.339  1.00  0.00    -0.361 OA
HETATM   26  H14 UNL     1      27.716  -2.444  52.654  1.00  0.00     0.217 HD
ENDBRANCH  22  25
ENDBRANCH  18  19
ENDBRANCH  13  18
BRANCH   3  27
HETATM   27  O1  UNL     1      22.903   7.289  50.502  1.00  0.00    -0.360 OA
HETATM   28  H4  UNL     1      22.576   7.953  49.848  1.00  0.00     0.217 HD
ENDBRANCH   3  27
TORSDOF 4
ENDMDL
MODEL 8
REMARK VINA RESULT:      -7.4      2.895      5.538
REMARK  4 active torsions:
REMARK  status: ('A' for Active; 'I' for Inactive)
REMARK    1  A    between atoms: C3_3  and  O1_4 
REMARK    2  A    between atoms: N2_14  and  C11_15 
REMARK    3  A    between atoms: C11_15  and  C12_16 
REMARK    4  A    between atoms: C15_19  and  O2_20 
ROOT
HETATM    1  C1  UNL     1      26.794   3.768  49.332  1.00  0.00     0.047 C 
HETATM    2  C2  UNL     1      25.706   3.659  50.380  1.00  0.00    -0.044 C 
HETATM    3  C3  UNL     1      24.844   4.599  50.043  1.00  0.00     0.080 C 
HETATM    4  C4  UNL     1      23.575   5.317  50.336  1.00  0.00     0.024 A 
HETATM    5  C5  UNL     1      23.719   6.700  50.126  1.00  0.00     0.016 A 
HETATM    6  C6  UNL     1      22.776   7.673  50.334  1.00  0.00     0.001 A 
HETATM    7  C7  UNL     1      21.582   7.204  50.792  1.00  0.00     0.002 A 
HETATM    8  C8  UNL     1      21.312   5.883  51.036  1.00  0.00     0.030 A 
HETATM    9  C9  UNL     1      22.286   4.977  50.812  1.00  0.00     0.047 A 
HETATM   10  N1  UNL     1      22.407   3.592  50.963  1.00  0.00    -0.332 N 
HETATM   11  C10 UNL     1      23.287   3.398  51.980  1.00  0.00     0.174 C 
HETATM   12  S1  UNL     1      23.865   4.375  53.025  1.00  0.00    -0.041 SA
HETATM   13  N2  UNL     1      23.740   2.190  52.370  1.00  0.00    -0.353 N 
HETATM   14  C18 UNL     1      24.679   1.362  53.093  1.00  0.00     0.131 C 
HETATM   15  C19 UNL     1      25.953   1.555  52.251  1.00  0.00     0.019 C 
HETATM   16  C20 UNL     1      25.598   2.604  51.445  1.00  0.00     0.032 C 
HETATM   17  H9  UNL     1      21.782   3.373  50.251  1.00  0.00     0.168 HD
ENDROOT
BRANCH  13  18
HETATM   18  C11 UNL     1      22.919   1.477  51.465  1.00  0.00     0.163 C 
BRANCH  18  19
HETATM   19  C12 UNL     1      21.779   0.786  52.164  1.00  0.00    -0.040 A 
HETATM   20  C13 UNL     1      20.628   0.581  51.419  1.00  0.00     0.011 A 
HETATM   21  C14 UNL     1      19.485  -0.035  51.900  1.00  0.00     0.037 A 
HETATM   22  C15 UNL     1      19.573  -0.443  53.214  1.00  0.00     0.065 A 
HETATM   23  C16 UNL     1      20.690  -0.259  53.981  1.00  0.00     0.037 A 
HETATM   24  C17 UNL     1      21.802   0.355  53.469  1.00  0.00     0.011 A 
BRANCH  22  25
HETATM   25  O2  UNL     1      18.453  -1.072  53.760  1.00  0.00    -0.361 OA
HETATM   26  H14 UNL     1      18.644  -1.956  54.239  1.00  0.00     0.217 HD
ENDBRANCH  22  25
ENDBRANCH  18  19
ENDBRANCH  13  18
BRANCH   3  27
HETATM   27  O1  UNL     1      25.458   5.109  48.910  1.00  0.00    -0.360 OA
HETATM   28  H4  UNL     1      25.053   5.638  48.181  1.00  0.00     0.217 HD
ENDBRANCH   3  27
TORSDOF 4
ENDMDL
MODEL 9
REMARK VINA RESULT:      -7.0      3.108      4.994
REMARK  4 active torsions:
REMARK  status: ('A' for Active; 'I' for Inactive)
REMARK    1  A    between atoms: C3_3  and  O1_4 
REMARK    2  A    between atoms: N2_14  and  C11_15 
REMARK    3  A    between atoms: C11_15  and  C12_16 
REMARK    4  A    between atoms: C15_19  and  O2_20 
ROOT
HETATM    1  C1  UNL     1      18.683   4.747  49.623  1.00  0.00     0.047 C 
HETATM    2  C2  UNL     1      20.147   4.389  49.776  1.00  0.00    -0.044 C 
HETATM    3  C3  UNL     1      20.727   5.538  50.065  1.00  0.00     0.080 C 
HETATM    4  C4  UNL     1      21.978   6.285  50.363  1.00  0.00     0.024 A 
HETATM    5  C5  UNL     1      21.991   7.528  49.706  1.00  0.00     0.016 A 
HETATM    6  C6  UNL     1      22.996   8.461  49.716  1.00  0.00     0.001 A 
HETATM    7  C7  UNL     1      24.081   8.103  50.457  1.00  0.00     0.002 A 
HETATM    8  C8  UNL     1      24.194   6.924  51.146  1.00  0.00     0.030 A 
HETATM    9  C9  UNL     1      23.168   6.049  51.093  1.00  0.00     0.047 A 
HETATM   10  N1  UNL     1      22.923   4.775  51.612  1.00  0.00    -0.332 N 
HETATM   11  C10 UNL     1      22.916   3.928  50.549  1.00  0.00     0.174 C 
HETATM   12  S1  UNL     1      23.364   4.128  49.086  1.00  0.00    -0.041 SA
HETATM   13  N2  UNL     1      22.619   2.615  50.628  1.00  0.00    -0.353 N 
HETATM   14  C18 UNL     1      22.257   1.359  50.011  1.00  0.00     0.131 C 
HETATM   15  C19 UNL     1      20.809   1.649  49.576  1.00  0.00     0.019 C 
HETATM   16  C20 UNL     1      20.731   3.005  49.753  1.00  0.00     0.032 C 
HETATM   17  H9  UNL     1      22.868   5.068  52.538  1.00  0.00     0.168 HD
ENDROOT
BRANCH  13  18
HETATM   18  C11 UNL     1      22.488   2.625  52.037  1.00  0.00     0.163 C 
BRANCH  18  19
HETATM   19  C12 UNL     1      23.419   1.642  52.695  1.00  0.00    -0.040 A 
HETATM   20  C13 UNL     1      22.841   0.496  53.218  1.00  0.00     0.011 A 
HETATM   21  C14 UNL     1      23.544  -0.512  53.857  1.00  0.00     0.037 A 
HETATM   22  C15 UNL     1      24.901  -0.289  53.942  1.00  0.00     0.065 A 
HETATM   23  C16 UNL     1      25.508   0.829  53.438  1.00  0.00     0.037 A 
HETATM   24  C17 UNL     1      24.779   1.804  52.812  1.00  0.00     0.011 A 
BRANCH  22  25
HETATM   25  O2  UNL     1      25.667  -1.268  54.576  1.00  0.00    -0.361 OA
HETATM   26  H14 UNL     1      26.269  -0.925  55.330  1.00  0.00     0.217 HD
ENDBRANCH  22  25
ENDBRANCH  18  19
ENDBRANCH  13  18
BRANCH   3  27
HETATM   27  O1  UNL     1      19.626   6.381  50.069  1.00  0.00    -0.360 OA
HETATM   28  H4  UNL     1      19.093   6.684  50.842  1.00  0.00     0.217 HD
ENDBRANCH   3  27
TORSDOF 4
ENDMDL
