MODEL 1
REMARK VINA RESULT:      -6.6      0.000      0.000
REMARK  9 active torsions:
REMARK  status: ('A' for Active; 'I' for Inactive)
REMARK    1  A    between atoms: C2_2  and  O1_3 
REMARK    2  A    between atoms: O1_3  and  C3_4 
REMARK    3  A    between atoms: C3_4  and  C4_5 
REMARK    4  A    between atoms: C4_5  and  N1_6 
REMARK    5  A    between atoms: C4_5  and  C11_15 
REMARK       I    between atoms: N1_6  and  C5_7 
REMARK    6  A    between atoms: C5_7  and  C6_9 
REMARK    7  A    between atoms: C7_10  and  C8_11 
REMARK    8  A    between atoms: C8_11  and  N2_12 
REMARK    9  A    between atoms: C16_21  and  S1_22 
ROOT
HETATM    1  C4  UNL     1      25.171   0.181  52.707  1.00  0.00     0.027 C 
ENDROOT
BRANCH   1   2
HETATM    2  C3  UNL     1      24.346   0.035  53.920  1.00  0.00     0.221 C 
BRANCH   2   3
HETATM    3  O1  UNL     1      23.436  -1.040  53.745  1.00  0.00    -0.386 OA
BRANCH   3   4
HETATM    4  C2  UNL     1      22.561  -1.023  54.813  1.00  0.00     0.163 C 
HETATM    5  C1  UNL     1      21.365  -0.105  54.537  1.00  0.00     0.033 C 
ENDBRANCH   3   4
ENDBRANCH   2   3
ENDBRANCH   1   2
BRANCH   1   6
HETATM    6  N1  UNL     1      24.944   1.481  52.220  1.00  0.00    -0.328 N 
HETATM    7  C5  UNL     1      23.702   1.702  51.578  1.00  0.00     0.245 C 
HETATM    8  O2  UNL     1      22.654   1.041  51.265  1.00  0.00    -0.268 OA
HETATM    9  H8  UNL     1      25.530   2.311  52.253  1.00  0.00     0.168 HD
BRANCH   7  10
HETATM   10  C6  UNL     1      23.194   2.905  51.014  1.00  0.00     0.072 C 
HETATM   11  C7  UNL     1      23.242   3.927  50.200  1.00  0.00     0.008 C 
BRANCH  11  12
HETATM   12  C8  UNL     1      22.429   5.098  49.873  1.00  0.00     0.299 C 
BRANCH  12  13
HETATM   13  N2  UNL     1      22.512   6.141  50.878  1.00  0.00     0.083 N 
HETATM   14  C9  UNL     1      23.883   6.553  51.112  1.00  0.00     0.309 C 
HETATM   15  C10 UNL     1      21.674   7.275  50.541  1.00  0.00     0.309 C 
ENDBRANCH  12  13
ENDBRANCH  11  12
ENDBRANCH   7  10
ENDBRANCH   1   6
BRANCH   1  16
HETATM   16  C11 UNL     1      25.953  -0.779  52.632  1.00  0.00     0.059 A 
HETATM   17  C12 UNL     1      26.846  -1.656  52.719  1.00  0.00     0.088 A 
HETATM   18  C13 UNL     1      27.620  -2.383  52.803  1.00  0.00    -0.060 C 
HETATM   19  C16 UNL     1      27.360  -0.063  53.101  1.00  0.00     0.051 A 
HETATM   20  N3  UNL     1      28.509  -3.190  52.908  1.00  0.00    -0.359 N 
HETATM   21  C14 UNL     1      29.289  -2.036  53.436  1.00  0.00     0.135 C 
HETATM   22  H19 UNL     1      29.239  -3.851  52.994  1.00  0.00     0.168 HD
HETATM   23  C15 UNL     1      28.657  -0.667  53.404  1.00  0.00     0.033 C 
BRANCH  19  24
HETATM   24  S1  UNL     1      27.556   1.794  53.144  1.00  0.00    -0.160 SA
HETATM   25  C17 UNL     1      29.069   2.246  53.971  1.00  0.00     0.090 C 
ENDBRANCH  19  24
ENDBRANCH   1  16
TORSDOF 9
ENDMDL
MODEL 2
REMARK VINA RESULT:      -6.3      3.035      7.582
REMARK  9 active torsions:
REMARK  status: ('A' for Active; 'I' for Inactive)
REMARK    1  A    between atoms: C2_2  and  O1_3 
REMARK    2  A    between atoms: O1_3  and  C3_4 
REMARK    3  A    between atoms: C3_4  and  C4_5 
REMARK    4  A    between atoms: C4_5  and  N1_6 
REMARK    5  A    between atoms: C4_5  and  C11_15 
REMARK       I    between atoms: N1_6  and  C5_7 
REMARK    6  A    between atoms: C5_7  and  C6_9 
REMARK    7  A    between atoms: C7_10  and  C8_11 
REMARK    8  A    between atoms: C8_11  and  N2_12 
REMARK    9  A    between atoms: C16_21  and  S1_22 
ROOT
HETATM    1  C4  UNL     1      24.786   3.768  49.898  1.00  0.00     0.027 C 
ENDROOT
BRANCH   1   2
HETATM    2  C3  UNL     1      23.665   3.357  49.034  1.00  0.00     0.221 C 
BRANCH   2   3
HETATM    3  O1  UNL     1      22.552   3.004  49.842  1.00  0.00    -0.386 OA
BRANCH   3   4
HETATM    4  C2  UNL     1      21.751   2.160  49.100  1.00  0.00     0.163 C 
HETATM    5  C1  UNL     1      22.346   1.907  47.710  1.00  0.00     0.033 C 
ENDBRANCH   3   4
ENDBRANCH   2   3
ENDBRANCH   1   2
BRANCH   1   6
HETATM    6  N1  UNL     1      24.826   2.856  50.968  1.00  0.00    -0.328 N 
HETATM    7  C5  UNL     1      26.111   2.531  51.467  1.00  0.00     0.245 C 
HETATM    8  O2  UNL     1      27.333   2.813  51.222  1.00  0.00    -0.268 OA
HETATM    9  H8  UNL     1      24.074   2.381  51.461  1.00  0.00     0.168 HD
BRANCH   7  10
HETATM   10  C6  UNL     1      26.455   1.668  52.544  1.00  0.00     0.072 C 
HETATM   11  C7  UNL     1      26.724   1.411  53.797  1.00  0.00     0.008 C 
BRANCH  11  12
HETATM   12  C8  UNL     1      27.073   0.254  54.621  1.00  0.00     0.299 C 
BRANCH  12  13
HETATM   13  N2  UNL     1      28.498  -0.020  54.633  1.00  0.00     0.083 N 
HETATM   14  C9  UNL     1      28.877  -0.944  53.581  1.00  0.00     0.309 C 
HETATM   15  C10 UNL     1      29.277   1.201  54.563  1.00  0.00     0.309 C 
ENDBRANCH  12  13
ENDBRANCH  11  12
ENDBRANCH   7  10
ENDBRANCH   1   6
BRANCH   1  16
HETATM   16  C11 UNL     1      25.460   4.625  49.306  1.00  0.00     0.059 A 
HETATM   17  C12 UNL     1      26.167   5.580  48.902  1.00  0.00     0.088 A 
HETATM   18  C13 UNL     1      26.760   6.403  48.578  1.00  0.00    -0.060 C 
HETATM   19  C16 UNL     1      25.145   5.951  50.231  1.00  0.00     0.051 A 
HETATM   20  N3  UNL     1      27.423   7.347  48.231  1.00  0.00    -0.359 N 
HETATM   21  C14 UNL     1      26.827   8.012  49.422  1.00  0.00     0.135 C 
HETATM   22  H19 UNL     1      27.967   8.122  47.945  1.00  0.00     0.168 HD
HETATM   23  C15 UNL     1      25.761   7.278  50.196  1.00  0.00     0.033 C 
BRANCH  19  24
HETATM   24  S1  UNL     1      23.718   6.001  51.434  1.00  0.00    -0.160 SA
HETATM   25  C17 UNL     1      22.244   6.606  50.634  1.00  0.00     0.090 C 
ENDBRANCH  19  24
ENDBRANCH   1  16
TORSDOF 9
ENDMDL
MODEL 3
REMARK VINA RESULT:      -6.1      3.195      5.045
REMARK  9 active torsions:
REMARK  status: ('A' for Active; 'I' for Inactive)
REMARK    1  A    between atoms: C2_2  and  O1_3 
REMARK    2  A    between atoms: O1_3  and  C3_4 
REMARK    3  A    between atoms: C3_4  and  C4_5 
REMARK    4  A    between atoms: C4_5  and  N1_6 
REMARK    5  A    between atoms: C4_5  and  C11_15 
REMARK       I    between atoms: N1_6  and  C5_7 
REMARK    6  A    between atoms: C5_7  and  C6_9 
REMARK    7  A    between atoms: C7_10  and  C8_11 
REMARK    8  A    between atoms: C8_11  and  N2_12 
REMARK    9  A    between atoms: C16_21  and  S1_22 
ROOT
HETATM    1  C4  UNL     1      25.861   2.310  51.834  1.00  0.00     0.027 C 
ENDROOT
BRANCH   1   2
HETATM    2  C3  UNL     1      26.339   2.388  50.442  1.00  0.00     0.221 C 
BRANCH   2   3
HETATM    3  O1  UNL     1      27.148   3.543  50.285  1.00  0.00    -0.386 OA
BRANCH   3   4
HETATM    4  C2  UNL     1      26.619   4.283  49.247  1.00  0.00     0.163 C 
HETATM    5  C1  UNL     1      27.702   5.107  48.542  1.00  0.00     0.033 C 
ENDBRANCH   3   4
ENDBRANCH   2   3
ENDBRANCH   1   2
BRANCH   1   6
HETATM    6  N1  UNL     1      24.519   1.891  51.777  1.00  0.00    -0.328 N 
HETATM    7  C5  UNL     1      23.548   2.843  52.171  1.00  0.00     0.245 C 
HETATM    8  O2  UNL     1      23.505   4.043  52.609  1.00  0.00    -0.268 OA
HETATM    9  H8  UNL     1      24.115   1.004  51.490  1.00  0.00     0.168 HD
BRANCH   7  10
HETATM   10  C6  UNL     1      22.131   2.712  52.193  1.00  0.00     0.072 C 
HETATM   11  C7  UNL     1      20.982   2.360  51.681  1.00  0.00     0.008 C 
BRANCH  11  12
HETATM   12  C8  UNL     1      19.567   2.390  52.056  1.00  0.00     0.299 C 
BRANCH  12  13
HETATM   13  N2  UNL     1      18.844   1.209  51.623  1.00  0.00     0.083 N 
HETATM   14  C9  UNL     1      18.879   1.056  50.181  1.00  0.00     0.309 C 
HETATM   15  C10 UNL     1      19.326   0.015  52.289  1.00  0.00     0.309 C 
ENDBRANCH  12  13
ENDBRANCH  11  12
ENDBRANCH   7  10
ENDBRANCH   1   6
BRANCH   1  16
HETATM   16  C11 UNL     1      26.830   2.415  52.602  1.00  0.00     0.059 A 
HETATM   17  C12 UNL     1      27.862   2.325  53.309  1.00  0.00     0.088 A 
HETATM   18  C13 UNL     1      28.737   2.224  53.909  1.00  0.00    -0.060 C 
HETATM   19  C16 UNL     1      27.035   0.844  53.049  1.00  0.00     0.051 A 
HETATM   20  N3  UNL     1      29.724   2.087  54.586  1.00  0.00    -0.359 N 
HETATM   21  C14 UNL     1      29.406   0.636  54.487  1.00  0.00     0.135 C 
HETATM   22  H19 UNL     1      30.534   1.973  55.142  1.00  0.00     0.168 HD
HETATM   23  C15 UNL     1      28.119   0.227  53.813  1.00  0.00     0.033 C 
BRANCH  19  24
HETATM   24  S1  UNL     1      25.711  -0.444  52.771  1.00  0.00    -0.160 SA
HETATM   25  C17 UNL     1      24.763  -0.701  54.258  1.00  0.00     0.090 C 
ENDBRANCH  19  24
ENDBRANCH   1  16
TORSDOF 9
ENDMDL
MODEL 4
REMARK VINA RESULT:      -6.0      3.769      5.897
REMARK  9 active torsions:
REMARK  status: ('A' for Active; 'I' for Inactive)
REMARK    1  A    between atoms: C2_2  and  O1_3 
REMARK    2  A    between atoms: O1_3  and  C3_4 
REMARK    3  A    between atoms: C3_4  and  C4_5 
REMARK    4  A    between atoms: C4_5  and  N1_6 
REMARK    5  A    between atoms: C4_5  and  C11_15 
REMARK       I    between atoms: N1_6  and  C5_7 
REMARK    6  A    between atoms: C5_7  and  C6_9 
REMARK    7  A    between atoms: C7_10  and  C8_11 
REMARK    8  A    between atoms: C8_11  and  N2_12 
REMARK    9  A    between atoms: C16_21  and  S1_22 
ROOT
HETATM    1  C4  UNL     1      24.982   2.383  52.016  1.00  0.00     0.027 C 
ENDROOT
BRANCH   1   2
HETATM    2  C3  UNL     1      25.226   2.036  53.428  1.00  0.00     0.221 C 
BRANCH   2   3
HETATM    3  O1  UNL     1      26.562   1.579  53.576  1.00  0.00    -0.386 OA
BRANCH   3   4
HETATM    4  C2  UNL     1      26.511   0.335  54.172  1.00  0.00     0.163 C 
HETATM    5  C1  UNL     1      26.476  -0.783  53.125  1.00  0.00     0.033 C 
ENDBRANCH   3   4
ENDBRANCH   2   3
ENDBRANCH   1   2
BRANCH   1   6
HETATM    6  N1  UNL     1      26.145   3.024  51.551  1.00  0.00    -0.328 N 
HETATM    7  C5  UNL     1      26.098   3.524  50.227  1.00  0.00     0.245 C 
HETATM    8  O2  UNL     1      25.279   3.564  49.247  1.00  0.00    -0.268 OA
HETATM    9  H8  UNL     1      27.033   3.199  52.013  1.00  0.00     0.168 HD
BRANCH   7  10
HETATM   10  C6  UNL     1      27.102   4.229  49.506  1.00  0.00     0.072 C 
HETATM   11  C7  UNL     1      27.513   5.083  48.606  1.00  0.00     0.008 C 
BRANCH  11  12
HETATM   12  C8  UNL     1      28.783   5.601  48.096  1.00  0.00     0.299 C 
BRANCH  12  13
HETATM   13  N2  UNL     1      28.893   7.042  48.218  1.00  0.00     0.083 N 
HETATM   14  C9  UNL     1      30.236   7.449  48.586  1.00  0.00     0.309 C 
HETATM   15  C10 UNL     1      28.453   7.715  47.012  1.00  0.00     0.309 C 
ENDBRANCH  12  13
ENDBRANCH  11  12
ENDBRANCH   7  10
ENDBRANCH   1   6
BRANCH   1  16
HETATM   16  C11 UNL     1      23.948   1.814  51.632  1.00  0.00     0.059 A 
HETATM   17  C12 UNL     1      22.854   1.428  51.155  1.00  0.00     0.088 A 
HETATM   18  C13 UNL     1      21.917   1.122  50.750  1.00  0.00    -0.060 C 
HETATM   19  C16 UNL     1      22.885   3.072  51.647  1.00  0.00     0.051 A 
HETATM   20  N3  UNL     1      20.851   0.800  50.292  1.00  0.00    -0.359 N 
HETATM   21  C14 UNL     1      20.518   2.243  50.448  1.00  0.00     0.135 C 
HETATM   22  H19 UNL     1      19.974   0.536  49.917  1.00  0.00     0.168 HD
HETATM   23  C15 UNL     1      21.516   3.140  51.137  1.00  0.00     0.033 C 
BRANCH  19  24
HETATM   24  S1  UNL     1      23.252   4.665  52.550  1.00  0.00    -0.160 SA
HETATM   25  C17 UNL     1      23.635   5.967  51.395  1.00  0.00     0.090 C 
ENDBRANCH  19  24
ENDBRANCH   1  16
TORSDOF 9
ENDMDL
MODEL 5
REMARK VINA RESULT:      -6.0      2.800      6.683
REMARK  9 active torsions:
REMARK  status: ('A' for Active; 'I' for Inactive)
REMARK    1  A    between atoms: C2_2  and  O1_3 
REMARK    2  A    between atoms: O1_3  and  C3_4 
REMARK    3  A    between atoms: C3_4  and  C4_5 
REMARK    4  A    between atoms: C4_5  and  N1_6 
REMARK    5  A    between atoms: C4_5  and  C11_15 
REMARK       I    between atoms: N1_6  and  C5_7 
REMARK    6  A    between atoms: C5_7  and  C6_9 
REMARK    7  A    between atoms: C7_10  and  C8_11 
REMARK    8  A    between atoms: C8_11  and  N2_12 
REMARK    9  A    between atoms: C16_21  and  S1_22 
ROOT
HETATM    1  C4  UNL     1      22.104   1.238  51.816  1.00  0.00     0.027 C 
ENDROOT
BRANCH   1   2
HETATM    2  C3  UNL     1      20.751   1.166  52.396  1.00  0.00     0.221 C 
BRANCH   2   3
HETATM    3  O1  UNL     1      20.211  -0.128  52.175  1.00  0.00    -0.386 OA
BRANCH   3   4
HETATM    4  C2  UNL     1      18.841  -0.036  52.311  1.00  0.00     0.163 C 
HETATM    5  C1  UNL     1      18.289  -1.180  53.168  1.00  0.00     0.033 C 
ENDBRANCH   3   4
ENDBRANCH   2   3
ENDBRANCH   1   2
BRANCH   1   6
HETATM    6  N1  UNL     1      22.995   0.808  52.817  1.00  0.00    -0.328 N 
HETATM    7  C5  UNL     1      24.374   0.948  52.530  1.00  0.00     0.245 C 
HETATM    8  O2  UNL     1      25.117   1.355  51.573  1.00  0.00    -0.268 OA
HETATM    9  H8  UNL     1      22.816   0.410  53.735  1.00  0.00     0.168 HD
BRANCH   7  10
HETATM   10  C6  UNL     1      25.490   0.626  53.351  1.00  0.00     0.072 C 
HETATM   11  C7  UNL     1      26.467   0.924  54.166  1.00  0.00     0.008 C 
BRANCH  11  12
HETATM   12  C8  UNL     1      27.535   0.231  54.888  1.00  0.00     0.299 C 
BRANCH  12  13
HETATM   13  N2  UNL     1      28.859   0.700  54.523  1.00  0.00     0.083 N 
HETATM   14  C9  UNL     1      29.562  -0.264  53.698  1.00  0.00     0.309 C 
HETATM   15  C10 UNL     1      28.806   2.000  53.883  1.00  0.00     0.309 C 
ENDBRANCH  12  13
ENDBRANCH  11  12
ENDBRANCH   7  10
ENDBRANCH   1   6
BRANCH   1  16
HETATM   16  C11 UNL     1      22.011   1.429  50.594  1.00  0.00     0.059 A 
HETATM   17  C12 UNL     1      22.051   1.788  49.392  1.00  0.00     0.088 A 
HETATM   18  C13 UNL     1      22.090   2.115  48.379  1.00  0.00    -0.060 C 
HETATM   19  C16 UNL     1      22.169   3.067  50.530  1.00  0.00     0.051 A 
HETATM   20  N3  UNL     1      22.141   2.506  47.241  1.00  0.00    -0.359 N 
HETATM   21  C14 UNL     1      22.409   3.830  47.867  1.00  0.00     0.135 C 
HETATM   22  H19 UNL     1      22.182   2.828  46.306  1.00  0.00     0.168 HD
HETATM   23  C15 UNL     1      22.327   3.943  49.370  1.00  0.00     0.033 C 
BRANCH  19  24
HETATM   24  S1  UNL     1      21.977   4.139  52.048  1.00  0.00    -0.160 SA
HETATM   25  C17 UNL     1      23.571   4.603  52.694  1.00  0.00     0.090 C 
ENDBRANCH  19  24
ENDBRANCH   1  16
TORSDOF 9
ENDMDL
MODEL 6
REMARK VINA RESULT:      -6.0      3.701      5.636
REMARK  9 active torsions:
REMARK  status: ('A' for Active; 'I' for Inactive)
REMARK    1  A    between atoms: C2_2  and  O1_3 
REMARK    2  A    between atoms: O1_3  and  C3_4 
REMARK    3  A    between atoms: C3_4  and  C4_5 
REMARK    4  A    between atoms: C4_5  and  N1_6 
REMARK    5  A    between atoms: C4_5  and  C11_15 
REMARK       I    between atoms: N1_6  and  C5_7 
REMARK    6  A    between atoms: C5_7  and  C6_9 
REMARK    7  A    between atoms: C7_10  and  C8_11 
REMARK    8  A    between atoms: C8_11  and  N2_12 
REMARK    9  A    between atoms: C16_21  and  S1_22 
ROOT
HETATM    1  C4  UNL     1      24.161   3.425  51.615  1.00  0.00     0.027 C 
ENDROOT
BRANCH   1   2
HETATM    2  C3  UNL     1      23.604   4.406  52.563  1.00  0.00     0.221 C 
BRANCH   2   3
HETATM    3  O1  UNL     1      22.240   4.643  52.249  1.00  0.00    -0.386 OA
BRANCH   3   4
HETATM    4  C2  UNL     1      22.195   5.698  51.360  1.00  0.00     0.163 C 
HETATM    5  C1  UNL     1      21.269   5.391  50.179  1.00  0.00     0.033 C 
ENDBRANCH   3   4
ENDBRANCH   2   3
ENDBRANCH   1   2
BRANCH   1   6
HETATM    6  N1  UNL     1      25.405   3.931  51.195  1.00  0.00    -0.328 N 
HETATM    7  C5  UNL     1      25.441   4.518  49.907  1.00  0.00     0.245 C 
HETATM    8  O2  UNL     1      24.646   4.732  48.930  1.00  0.00    -0.268 OA
HETATM    9  H8  UNL     1      26.304   3.954  51.670  1.00  0.00     0.168 HD
BRANCH   7  10
HETATM   10  C6  UNL     1      26.539   5.126  49.237  1.00  0.00     0.072 C 
HETATM   11  C7  UNL     1      27.669   5.098  48.581  1.00  0.00     0.008 C 
BRANCH  11  12
HETATM   12  C8  UNL     1      28.606   6.051  47.984  1.00  0.00     0.299 C 
BRANCH  12  13
HETATM   13  N2  UNL     1      29.942   5.952  48.542  1.00  0.00     0.083 N 
HETATM   14  C9  UNL     1      30.803   5.113  47.729  1.00  0.00     0.309 C 
HETATM   15  C10 UNL     1      30.530   7.260  48.751  1.00  0.00     0.309 C 
ENDBRANCH  12  13
ENDBRANCH  11  12
ENDBRANCH   7  10
ENDBRANCH   1   6
BRANCH   1  16
HETATM   16  C11 UNL     1      23.483   2.387  51.660  1.00  0.00     0.059 A 
HETATM   17  C12 UNL     1      22.850   1.334  51.915  1.00  0.00     0.088 A 
HETATM   18  C13 UNL     1      22.328   0.436  52.149  1.00  0.00    -0.060 C 
HETATM   19  C16 UNL     1      24.287   1.550  52.829  1.00  0.00     0.051 A 
HETATM   20  N3  UNL     1      21.751  -0.583  52.433  1.00  0.00    -0.359 N 
HETATM   21  C14 UNL     1      22.795  -0.702  53.488  1.00  0.00     0.135 C 
HETATM   22  H19 UNL     1      21.279  -1.420  52.666  1.00  0.00     0.168 HD
HETATM   23  C15 UNL     1      23.917   0.307  53.505  1.00  0.00     0.033 C 
BRANCH  19  24
HETATM   24  S1  UNL     1      26.011   2.020  53.373  1.00  0.00    -0.160 SA
HETATM   25  C17 UNL     1      27.226   1.009  52.549  1.00  0.00     0.090 C 
ENDBRANCH  19  24
ENDBRANCH   1  16
TORSDOF 9
ENDMDL
MODEL 7
REMARK VINA RESULT:      -5.9     10.284     12.307
REMARK  9 active torsions:
REMARK  status: ('A' for Active; 'I' for Inactive)
REMARK    1  A    between atoms: C2_2  and  O1_3 
REMARK    2  A    between atoms: O1_3  and  C3_4 
REMARK    3  A    between atoms: C3_4  and  C4_5 
REMARK    4  A    between atoms: C4_5  and  N1_6 
REMARK    5  A    between atoms: C4_5  and  C11_15 
REMARK       I    between atoms: N1_6  and  C5_7 
REMARK    6  A    between atoms: C5_7  and  C6_9 
REMARK    7  A    between atoms: C7_10  and  C8_11 
REMARK    8  A    between atoms: C8_11  and  N2_12 
REMARK    9  A    between atoms: C16_21  and  S1_22 
ROOT
HETATM    1  C4  UNL     1      32.111   6.391  46.850  1.00  0.00     0.027 C 
ENDROOT
BRANCH   1   2
HETATM    2  C3  UNL     1      33.217   6.658  47.786  1.00  0.00     0.221 C 
BRANCH   2   3
HETATM    3  O1  UNL     1      33.454   5.504  48.578  1.00  0.00    -0.386 OA
BRANCH   3   4
HETATM    4  C2  UNL     1      34.760   5.114  48.363  1.00  0.00     0.163 C 
HETATM    5  C1  UNL     1      34.836   3.652  47.908  1.00  0.00     0.033 C 
ENDBRANCH   3   4
ENDBRANCH   2   3
ENDBRANCH   1   2
BRANCH   1   6
HETATM    6  N1  UNL     1      32.663   6.412  45.556  1.00  0.00    -0.328 N 
HETATM    7  C5  UNL     1      32.884   5.153  44.948  1.00  0.00     0.245 C 
HETATM    8  O2  UNL     1      32.744   3.914  45.232  1.00  0.00    -0.268 OA
HETATM    9  H8  UNL     1      32.934   7.194  44.966  1.00  0.00     0.168 HD
BRANCH   7  10
HETATM   10  C6  UNL     1      33.402   4.868  43.654  1.00  0.00     0.072 C 
HETATM   11  C7  UNL     1      33.294   4.700  42.362  1.00  0.00     0.008 C 
BRANCH  11  12
HETATM   12  C8  UNL     1      34.162   4.375  41.230  1.00  0.00     0.299 C 
BRANCH  12  13
HETATM   13  N2  UNL     1      33.421   3.961  40.053  1.00  0.00     0.083 N 
HETATM   14  C9  UNL     1      34.303   3.669  38.938  1.00  0.00     0.309 C 
HETATM   15  C10 UNL     1      32.549   2.839  40.339  1.00  0.00     0.309 C 
ENDBRANCH  12  13
ENDBRANCH  11  12
ENDBRANCH   7  10
ENDBRANCH   1   6
BRANCH   1  16
HETATM   16  C11 UNL     1      31.117   6.017  47.492  1.00  0.00     0.059 A 
HETATM   17  C12 UNL     1      30.000   5.746  47.994  1.00  0.00     0.088 A 
HETATM   18  C13 UNL     1      29.042   5.536  48.410  1.00  0.00    -0.060 C 
HETATM   19  C16 UNL     1      30.097   7.285  47.241  1.00  0.00     0.051 A 
HETATM   20  N3  UNL     1      27.950   5.318  48.870  1.00  0.00    -0.359 N 
HETATM   21  C14 UNL     1      27.586   6.609  48.223  1.00  0.00     0.135 C 
HETATM   22  H19 UNL     1      27.053   5.140  49.248  1.00  0.00     0.168 HD
HETATM   23  C15 UNL     1      28.680   7.421  47.575  1.00  0.00     0.033 C 
BRANCH  19  24
HETATM   24  S1  UNL     1      30.706   8.931  46.599  1.00  0.00    -0.160 SA
HETATM   25  C17 UNL     1      31.229   9.974  47.945  1.00  0.00     0.090 C 
ENDBRANCH  19  24
ENDBRANCH   1  16
TORSDOF 9
ENDMDL
MODEL 8
REMARK VINA RESULT:      -5.9      3.628      6.976
REMARK  9 active torsions:
REMARK  status: ('A' for Active; 'I' for Inactive)
REMARK    1  A    between atoms: C2_2  and  O1_3 
REMARK    2  A    between atoms: O1_3  and  C3_4 
REMARK    3  A    between atoms: C3_4  and  C4_5 
REMARK    4  A    between atoms: C4_5  and  N1_6 
REMARK    5  A    between atoms: C4_5  and  C11_15 
REMARK       I    between atoms: N1_6  and  C5_7 
REMARK    6  A    between atoms: C5_7  and  C6_9 
REMARK    7  A    between atoms: C7_10  and  C8_11 
REMARK    8  A    between atoms: C8_11  and  N2_12 
REMARK    9  A    between atoms: C16_21  and  S1_22 
ROOT
HETATM    1  C4  UNL     1      22.958   0.954  52.599  1.00  0.00     0.027 C 
ENDROOT
BRANCH   1   2
HETATM    2  C3  UNL     1      23.963   0.028  53.152  1.00  0.00     0.221 C 
BRANCH   2   3
HETATM    3  O1  UNL     1      25.189   0.195  52.457  1.00  0.00    -0.386 OA
BRANCH   3   4
HETATM    4  C2  UNL     1      26.061  -0.772  52.916  1.00  0.00     0.163 C 
HETATM    5  C1  UNL     1      27.507  -0.263  52.914  1.00  0.00     0.033 C 
ENDBRANCH   3   4
ENDBRANCH   2   3
ENDBRANCH   1   2
BRANCH   1   6
HETATM    6  N1  UNL     1      21.813   0.186  52.319  1.00  0.00    -0.328 N 
HETATM    7  C5  UNL     1      20.837   0.121  53.342  1.00  0.00     0.245 C 
HETATM    8  O2  UNL     1      20.664   0.558  54.531  1.00  0.00    -0.268 OA
HETATM    9  H8  UNL     1      21.556  -0.339  51.488  1.00  0.00     0.168 HD
BRANCH   7  10
HETATM   10  C6  UNL     1      19.583  -0.551  53.335  1.00  0.00     0.072 C 
HETATM   11  C7  UNL     1      18.441  -0.890  52.796  1.00  0.00     0.008 C 
BRANCH  11  12
HETATM   12  C8  UNL     1      17.272  -1.700  53.141  1.00  0.00     0.299 C 
BRANCH  12  13
HETATM   13  N2  UNL     1      16.020  -1.071  52.765  1.00  0.00     0.083 N 
HETATM   14  C9  UNL     1      16.232   0.066  51.889  1.00  0.00     0.309 C 
HETATM   15  C10 UNL     1      15.100  -2.023  52.174  1.00  0.00     0.309 C 
ENDBRANCH  12  13
ENDBRANCH  11  12
ENDBRANCH   7  10
ENDBRANCH   1   6
BRANCH   1  16
HETATM   16  C11 UNL     1      23.348   2.121  52.763  1.00  0.00     0.059 A 
HETATM   17  C12 UNL     1      23.571   3.354  52.810  1.00  0.00     0.088 A 
HETATM   18  C13 UNL     1      23.750   4.404  52.829  1.00  0.00    -0.060 C 
HETATM   19  C16 UNL     1      22.862   2.806  51.346  1.00  0.00     0.051 A 
HETATM   20  N3  UNL     1      23.939   5.594  52.830  1.00  0.00    -0.359 N 
HETATM   21  C14 UNL     1      23.224   5.556  51.524  1.00  0.00     0.135 C 
HETATM   22  H19 UNL     1      24.094   6.571  52.830  1.00  0.00     0.168 HD
HETATM   23  C15 UNL     1      22.852   4.213  50.947  1.00  0.00     0.033 C 
BRANCH  19  24
HETATM   24  S1  UNL     1      22.381   1.775  49.864  1.00  0.00    -0.160 SA
HETATM   25  C17 UNL     1      22.784   2.627  48.351  1.00  0.00     0.090 C 
ENDBRANCH  19  24
ENDBRANCH   1  16
TORSDOF 9
ENDMDL
MODEL 9
REMARK VINA RESULT:      -5.8      2.854      7.530
REMARK  9 active torsions:
REMARK  status: ('A' for Active; 'I' for Inactive)
REMARK    1  A    between atoms: C2_2  and  O1_3 
REMARK    2  A    between atoms: O1_3  and  C3_4 
REMARK    3  A    between atoms: C3_4  and  C4_5 
REMARK    4  A    between atoms: C4_5  and  N1_6 
REMARK    5  A    between atoms: C4_5  and  C11_15 
REMARK       I    between atoms: N1_6  and  C5_7 
REMARK    6  A    between atoms: C5_7  and  C6_9 
REMARK    7  A    between atoms: C7_10  and  C8_11 
REMARK    8  A    between atoms: C8_11  and  N2_12 
REMARK    9  A    between atoms: C16_21  and  S1_22 
ROOT
HETATM    1  C4  UNL     1      22.949   3.126  52.143  1.00  0.00     0.027 C 
ENDROOT
BRANCH   1   2
HETATM    2  C3  UNL     1      23.064   4.592  52.243  1.00  0.00     0.221 C 
BRANCH   2   3
HETATM    3  O1  UNL     1      24.113   5.041  51.400  1.00  0.00    -0.386 OA
BRANCH   3   4
HETATM    4  C2  UNL     1      23.976   6.407  51.257  1.00  0.00     0.163 C 
HETATM    5  C1  UNL     1      22.553   6.780  50.828  1.00  0.00     0.033 C 
ENDBRANCH   3   4
ENDBRANCH   2   3
ENDBRANCH   1   2
BRANCH   1   6
HETATM    6  N1  UNL     1      24.242   2.606  52.333  1.00  0.00    -0.328 N 
HETATM    7  C5  UNL     1      24.326   1.221  52.611  1.00  0.00     0.245 C 
HETATM    8  O2  UNL     1      23.540   0.226  52.773  1.00  0.00    -0.268 OA
HETATM    9  H8  UNL     1      25.150   3.062  52.298  1.00  0.00     0.168 HD
BRANCH   7  10
HETATM   10  C6  UNL     1      25.486   0.424  52.822  1.00  0.00     0.072 C 
HETATM   11  C7  UNL     1      26.445  -0.373  52.429  1.00  0.00     0.008 C 
BRANCH  11  12
HETATM   12  C8  UNL     1      27.593  -1.067  53.014  1.00  0.00     0.299 C 
BRANCH  12  13
HETATM   13  N2  UNL     1      28.568  -0.159  53.588  1.00  0.00     0.083 N 
HETATM   14  C9  UNL     1      28.267   0.147  54.974  1.00  0.00     0.309 C 
HETATM   15  C10 UNL     1      29.919  -0.667  53.445  1.00  0.00     0.309 C 
ENDBRANCH  12  13
ENDBRANCH  11  12
ENDBRANCH   7  10
ENDBRANCH   1   6
BRANCH   1  16
HETATM   16  C11 UNL     1      21.748   2.812  52.151  1.00  0.00     0.059 A 
HETATM   17  C12 UNL     1      20.594   2.338  52.025  1.00  0.00     0.088 A 
HETATM   18  C13 UNL     1      19.619   1.927  51.895  1.00  0.00    -0.060 C 
HETATM   19  C16 UNL     1      21.579   2.220  50.623  1.00  0.00     0.051 A 
HETATM   20  N3  UNL     1      18.524   1.453  51.728  1.00  0.00    -0.359 N 
HETATM   21  C14 UNL     1      19.071   1.040  50.406  1.00  0.00     0.135 C 
HETATM   22  H19 UNL     1      17.625   1.064  51.590  1.00  0.00     0.168 HD
HETATM   23  C15 UNL     1      20.449   1.515  50.018  1.00  0.00     0.033 C 
BRANCH  19  24
HETATM   24  S1  UNL     1      22.843   2.552  49.289  1.00  0.00    -0.160 SA
HETATM   25  C17 UNL     1      22.382   3.982  48.330  1.00  0.00     0.090 C 
ENDBRANCH  19  24
ENDBRANCH   1  16
TORSDOF 9
ENDMDL
