MODEL 1
REMARK VINA RESULT:      -7.8      0.000      0.000
REMARK  6 active torsions:
REMARK  status: ('A' for Active; 'I' for Inactive)
REMARK    1  A    between atoms: O1_2  and  C2_3 
REMARK    2  A    between atoms: C3_5  and  N2_6 
REMARK    3  A    between atoms: N2_6  and  C4_7 
REMARK    4  A    between atoms: C4_7  and  C5_8 
REMARK    5  A    between atoms: C9_15  and  N5_16 
REMARK    6  A    between atoms: N5_16  and  C10_17 
ROOT
HETATM    1  C2  UNL     1      27.064   2.158  53.099  1.00  0.00     0.302 A 
HETATM    2  N1  UNL     1      25.751   2.114  53.393  1.00  0.00    -0.018 NA
HETATM    3  C3  UNL     1      24.789   2.415  52.504  1.00  0.00     0.742 A 
HETATM    4  N4  UNL     1      25.199   2.773  51.264  1.00  0.00     0.130 NA
HETATM    5  C9  UNL     1      26.500   2.834  50.919  1.00  0.00     0.746 A 
HETATM    6  N6  UNL     1      27.422   2.519  51.862  1.00  0.00    -0.017 NA
ENDROOT
BRANCH   3   7
HETATM    7  N2  UNL     1      23.404   2.330  52.912  1.00  0.00    -0.220 N 
HETATM    8  H4  UNL     1      23.032   3.145  53.461  1.00  0.00     0.177 HD
BRANCH   7   9
HETATM    9  C4  UNL     1      22.903   1.077  52.405  1.00  0.00     0.165 C 
BRANCH   9  10
HETATM   10  C5  UNL     1      22.469   0.217  53.569  1.00  0.00     0.130 C 
HETATM   11  C6  UNL     1      23.564  -0.731  53.999  1.00  0.00     0.055 C 
HETATM   12  C7  UNL     1      23.072  -1.382  55.273  1.00  0.00     0.178 C 
HETATM   13  O2  UNL     1      21.657  -1.179  55.298  1.00  0.00    -0.345 OA
HETATM   14  C8  UNL     1      20.886  -1.413  54.144  1.00  0.00     0.245 C 
HETATM   15  N3  UNL     1      21.342  -0.639  53.195  1.00  0.00    -0.272 NA
ENDBRANCH   9  10
ENDBRANCH   7   9
ENDBRANCH   3   7
BRANCH   1  16
HETATM   16  O1  UNL     1      27.909   1.826  54.108  1.00  0.00    -0.323 OA
HETATM   17  C1  UNL     1      28.101   0.533  54.617  1.00  0.00     0.213 C 
ENDBRANCH   1  16
BRANCH   5  18
HETATM   18  N5  UNL     1      26.650   3.229  49.570  1.00  0.00    -0.188 N 
HETATM   19  H13 UNL     1      26.564   2.400  48.953  1.00  0.00     0.184 HD
BRANCH  18  20
HETATM   20  C10 UNL     1      26.876   4.525  49.050  1.00  0.00     0.049 A 
HETATM   21  C11 UNL     1      28.097   4.980  48.569  1.00  0.00     0.032 A 
HETATM   22  C12 UNL     1      28.209   6.269  48.083  1.00  0.00     0.026 A 
HETATM   23  C13 UNL     1      27.110   7.137  48.070  1.00  0.00     0.034 A 
HETATM   24 CL1  UNL     1      27.227   8.773  47.470  1.00  0.00    -0.084 Cl
HETATM   25  C14 UNL     1      25.899   6.690  48.547  1.00  0.00     0.026 A 
HETATM   26  C15 UNL     1      25.781   5.396  49.033  1.00  0.00     0.032 A 
ENDBRANCH  18  20
ENDBRANCH   5  18
TORSDOF 6
ENDMDL
MODEL 2
REMARK VINA RESULT:      -7.7      2.479      4.120
REMARK  6 active torsions:
REMARK  status: ('A' for Active; 'I' for Inactive)
REMARK    1  A    between atoms: O1_2  and  C2_3 
REMARK    2  A    between atoms: C3_5  and  N2_6 
REMARK    3  A    between atoms: N2_6  and  C4_7 
REMARK    4  A    between atoms: C4_7  and  C5_8 
REMARK    5  A    between atoms: C9_15  and  N5_16 
REMARK    6  A    between atoms: N5_16  and  C10_17 
ROOT
HETATM    1  C2  UNL     1      24.506   2.509  52.319  1.00  0.00     0.302 A 
HETATM    2  N1  UNL     1      25.480   2.142  53.173  1.00  0.00    -0.018 NA
HETATM    3  C3  UNL     1      26.786   2.171  52.855  1.00  0.00     0.742 A 
HETATM    4  N4  UNL     1      27.097   2.599  51.607  1.00  0.00     0.130 NA
HETATM    5  C9  UNL     1      26.160   2.977  50.716  1.00  0.00     0.746 A 
HETATM    6  N6  UNL     1      24.861   2.923  51.098  1.00  0.00    -0.017 NA
ENDROOT
BRANCH   3   7
HETATM    7  N2  UNL     1      27.759   1.764  53.843  1.00  0.00    -0.220 N 
HETATM    8  H4  UNL     1      28.664   2.299  53.851  1.00  0.00     0.177 HD
BRANCH   7   9
HETATM    9  C4  UNL     1      27.162   0.681  54.585  1.00  0.00     0.165 C 
BRANCH   9  10
HETATM   10  C5  UNL     1      27.820  -0.615  54.172  1.00  0.00     0.130 C 
HETATM   11  C6  UNL     1      29.179  -0.378  53.557  1.00  0.00     0.055 C 
HETATM   12  C7  UNL     1      29.795  -1.748  53.371  1.00  0.00     0.178 C 
HETATM   13  O2  UNL     1      28.710  -2.677  53.431  1.00  0.00    -0.345 OA
HETATM   14  C8  UNL     1      27.523  -2.430  52.719  1.00  0.00     0.245 C 
HETATM   15  N3  UNL     1      27.039  -1.289  53.133  1.00  0.00    -0.272 NA
ENDBRANCH   9  10
ENDBRANCH   7   9
ENDBRANCH   3   7
BRANCH   1  16
HETATM   16  O1  UNL     1      23.238   2.420  52.793  1.00  0.00    -0.323 OA
HETATM   17  C1  UNL     1      22.085   2.857  52.123  1.00  0.00     0.213 C 
ENDBRANCH   1  16
BRANCH   5  18
HETATM   18  N5  UNL     1      26.753   3.382  49.497  1.00  0.00    -0.188 N 
HETATM   19  H13 UNL     1      27.087   2.548  48.979  1.00  0.00     0.184 HD
BRANCH  18  20
HETATM   20  C10 UNL     1      26.904   4.691  48.982  1.00  0.00     0.049 A 
HETATM   21  C11 UNL     1      25.881   5.626  48.894  1.00  0.00     0.032 A 
HETATM   22  C12 UNL     1      26.136   6.879  48.371  1.00  0.00     0.026 A 
HETATM   23  C13 UNL     1      27.416   7.230  47.920  1.00  0.00     0.034 A 
HETATM   24 CL1  UNL     1      27.763   8.804  47.248  1.00  0.00    -0.084 Cl
HETATM   25  C14 UNL     1      28.431   6.305  48.005  1.00  0.00     0.026 A 
HETATM   26  C15 UNL     1      28.180   5.047  48.531  1.00  0.00     0.032 A 
ENDBRANCH  18  20
ENDBRANCH   5  18
TORSDOF 6
ENDMDL
MODEL 3
REMARK VINA RESULT:      -7.5      3.342      7.441
REMARK  6 active torsions:
REMARK  status: ('A' for Active; 'I' for Inactive)
REMARK    1  A    between atoms: O1_2  and  C2_3 
REMARK    2  A    between atoms: C3_5  and  N2_6 
REMARK    3  A    between atoms: N2_6  and  C4_7 
REMARK    4  A    between atoms: C4_7  and  C5_8 
REMARK    5  A    between atoms: C9_15  and  N5_16 
REMARK    6  A    between atoms: N5_16  and  C10_17 
ROOT
HETATM    1  C2  UNL     1      21.180   0.705  52.518  1.00  0.00     0.302 A 
HETATM    2  N1  UNL     1      21.739   1.787  51.945  1.00  0.00    -0.018 NA
HETATM    3  C3  UNL     1      23.039   2.103  52.083  1.00  0.00     0.742 A 
HETATM    4  N4  UNL     1      23.789   1.268  52.842  1.00  0.00     0.130 NA
HETATM    5  C9  UNL     1      23.277   0.173  53.437  1.00  0.00     0.746 A 
HETATM    6  N6  UNL     1      21.959  -0.090  53.260  1.00  0.00    -0.017 NA
ENDROOT
BRANCH   3   7
HETATM    7  N2  UNL     1      23.549   3.283  51.421  1.00  0.00    -0.220 N 
HETATM    8  H4  UNL     1      23.486   4.182  51.961  1.00  0.00     0.177 HD
BRANCH   7   9
HETATM    9  C4  UNL     1      24.038   2.852  50.134  1.00  0.00     0.165 C 
BRANCH   9  10
HETATM   10  C5  UNL     1      24.953   3.918  49.578  1.00  0.00     0.130 C 
HETATM   11  C6  UNL     1      26.405   3.511  49.673  1.00  0.00     0.055 C 
HETATM   12  C7  UNL     1      27.182   4.567  48.917  1.00  0.00     0.178 C 
HETATM   13  O2  UNL     1      26.313   5.697  48.816  1.00  0.00    -0.345 OA
HETATM   14  C8  UNL     1      25.595   6.143  49.941  1.00  0.00     0.245 C 
HETATM   15  N3  UNL     1      24.847   5.155  50.355  1.00  0.00    -0.272 NA
ENDBRANCH   9  10
ENDBRANCH   7   9
ENDBRANCH   3   7
BRANCH   1  16
HETATM   16  O1  UNL     1      19.855   0.528  52.282  1.00  0.00    -0.323 OA
HETATM   17  C1  UNL     1      19.045  -0.449  52.882  1.00  0.00     0.213 C 
ENDBRANCH   1  16
BRANCH   5  18
HETATM   18  N5  UNL     1      24.273  -0.522  54.162  1.00  0.00    -0.188 N 
HETATM   19  H13 UNL     1      23.832  -1.061  54.929  1.00  0.00     0.184 HD
BRANCH  18  20
HETATM   20  C10 UNL     1      25.670  -0.545  53.941  1.00  0.00     0.049 A 
HETATM   21  C11 UNL     1      26.293  -1.208  52.892  1.00  0.00     0.032 A 
HETATM   22  C12 UNL     1      27.668  -1.167  52.769  1.00  0.00     0.026 A 
HETATM   23  C13 UNL     1      28.458  -0.467  53.691  1.00  0.00     0.034 A 
HETATM   24 CL1  UNL     1      30.198  -0.405  53.564  1.00  0.00    -0.084 Cl
HETATM   25  C14 UNL     1      27.844   0.192  54.733  1.00  0.00     0.026 A 
HETATM   26  C15 UNL     1      26.463   0.154  54.858  1.00  0.00     0.032 A 
ENDBRANCH  18  20
ENDBRANCH   5  18
TORSDOF 6
ENDMDL
MODEL 4
REMARK VINA RESULT:      -7.5      1.881      4.580
REMARK  6 active torsions:
REMARK  status: ('A' for Active; 'I' for Inactive)
REMARK    1  A    between atoms: O1_2  and  C2_3 
REMARK    2  A    between atoms: C3_5  and  N2_6 
REMARK    3  A    between atoms: N2_6  and  C4_7 
REMARK    4  A    between atoms: C4_7  and  C5_8 
REMARK    5  A    between atoms: C9_15  and  N5_16 
REMARK    6  A    between atoms: N5_16  and  C10_17 
ROOT
HETATM    1  C2  UNL     1      23.232   0.328  52.810  1.00  0.00     0.302 A 
HETATM    2  N1  UNL     1      24.330   0.615  53.533  1.00  0.00    -0.018 NA
HETATM    3  C3  UNL     1      25.229   1.546  53.168  1.00  0.00     0.742 A 
HETATM    4  N4  UNL     1      24.981   2.207  52.012  1.00  0.00     0.130 NA
HETATM    5  C9  UNL     1      23.898   1.958  51.252  1.00  0.00     0.746 A 
HETATM    6  N6  UNL     1      23.030   1.006  51.674  1.00  0.00    -0.017 NA
ENDROOT
BRANCH   3   7
HETATM    7  N2  UNL     1      26.374   1.787  54.016  1.00  0.00    -0.220 N 
HETATM    8  H4  UNL     1      26.836   2.726  53.917  1.00  0.00     0.177 HD
BRANCH   7   9
HETATM    9  C4  UNL     1      26.555   0.597  54.812  1.00  0.00     0.165 C 
BRANCH   9  10
HETATM   10  C5  UNL     1      27.880  -0.034  54.451  1.00  0.00     0.130 C 
HETATM   11  C6  UNL     1      28.756   0.917  53.672  1.00  0.00     0.055 C 
HETATM   12  C7  UNL     1      30.101   0.235  53.548  1.00  0.00     0.178 C 
HETATM   13  O2  UNL     1      29.866  -1.150  53.814  1.00  0.00    -0.345 OA
HETATM   14  C8  UNL     1      28.778  -1.812  53.216  1.00  0.00     0.245 C 
HETATM   15  N3  UNL     1      27.686  -1.189  53.572  1.00  0.00    -0.272 NA
ENDBRANCH   9  10
ENDBRANCH   7   9
ENDBRANCH   3   7
BRANCH   1  16
HETATM   16  O1  UNL     1      22.425  -0.639  53.315  1.00  0.00    -0.323 OA
HETATM   17  C1  UNL     1      22.307  -0.974  54.672  1.00  0.00     0.213 C 
ENDBRANCH   1  16
BRANCH   5  18
HETATM   18  N5  UNL     1      23.879   2.788  50.107  1.00  0.00    -0.188 N 
HETATM   19  H13 UNL     1      23.001   2.632  49.579  1.00  0.00     0.184 HD
BRANCH  18  20
HETATM   20  C10 UNL     1      24.855   3.718  49.676  1.00  0.00     0.049 A 
HETATM   21  C11 UNL     1      24.609   5.062  49.430  1.00  0.00     0.032 A 
HETATM   22  C12 UNL     1      25.636   5.886  49.011  1.00  0.00     0.026 A 
HETATM   23  C13 UNL     1      26.932   5.389  48.822  1.00  0.00     0.034 A 
HETATM   24 CL1  UNL     1      28.246   6.406  48.284  1.00  0.00    -0.084 Cl
HETATM   25  C14 UNL     1      27.180   4.057  49.063  1.00  0.00     0.026 A 
HETATM   26  C15 UNL     1      26.152   3.227  49.487  1.00  0.00     0.032 A 
ENDBRANCH  18  20
ENDBRANCH   5  18
TORSDOF 6
ENDMDL
MODEL 5
REMARK VINA RESULT:      -7.4      3.601      7.079
REMARK  6 active torsions:
REMARK  status: ('A' for Active; 'I' for Inactive)
REMARK    1  A    between atoms: O1_2  and  C2_3 
REMARK    2  A    between atoms: C3_5  and  N2_6 
REMARK    3  A    between atoms: N2_6  and  C4_7 
REMARK    4  A    between atoms: C4_7  and  C5_8 
REMARK    5  A    between atoms: C9_15  and  N5_16 
REMARK    6  A    between atoms: N5_16  and  C10_17 
ROOT
HETATM    1  C2  UNL     1      27.444  -0.828  53.380  1.00  0.00     0.302 A 
HETATM    2  N1  UNL     1      27.574   0.424  52.904  1.00  0.00    -0.018 NA
HETATM    3  C3  UNL     1      26.565   1.313  52.889  1.00  0.00     0.742 A 
HETATM    4  N4  UNL     1      25.378   0.891  53.387  1.00  0.00     0.130 NA
HETATM    5  C9  UNL     1      25.196  -0.351  53.875  1.00  0.00     0.746 A 
HETATM    6  N6  UNL     1      26.252  -1.200  53.861  1.00  0.00    -0.017 NA
ENDROOT
BRANCH   3   7
HETATM    7  N2  UNL     1      26.804   2.638  52.364  1.00  0.00    -0.220 N 
HETATM    8  H4  UNL     1      27.118   3.363  53.057  1.00  0.00     0.177 HD
BRANCH   7   9
HETATM    9  C4  UNL     1      26.537   2.573  50.948  1.00  0.00     0.165 C 
BRANCH   9  10
HETATM   10  C5  UNL     1      25.458   3.575  50.608  1.00  0.00     0.130 C 
HETATM   11  C6  UNL     1      24.154   2.895  50.264  1.00  0.00     0.055 C 
HETATM   12  C7  UNL     1      23.129   4.001  50.137  1.00  0.00     0.178 C 
HETATM   13  O2  UNL     1      23.874   5.208  49.959  1.00  0.00    -0.345 OA
HETATM   14  C8  UNL     1      24.949   5.252  49.051  1.00  0.00     0.245 C 
HETATM   15  N3  UNL     1      25.817   4.347  49.417  1.00  0.00    -0.272 NA
ENDBRANCH   9  10
ENDBRANCH   7   9
ENDBRANCH   3   7
BRANCH   1  16
HETATM   16  O1  UNL     1      28.557  -1.603  53.323  1.00  0.00    -0.323 OA
HETATM   17  C1  UNL     1      29.864  -1.171  53.595  1.00  0.00     0.213 C 
ENDBRANCH   1  16
BRANCH   5  18
HETATM   18  N5  UNL     1      23.869  -0.527  54.333  1.00  0.00    -0.188 N 
HETATM   19  H13 UNL     1      23.881  -0.813  55.329  1.00  0.00     0.184 HD
BRANCH  18  20
HETATM   20  C10 UNL     1      22.660  -0.355  53.620  1.00  0.00     0.049 A 
HETATM   21  C11 UNL     1      22.570   0.153  52.331  1.00  0.00     0.032 A 
HETATM   22  C12 UNL     1      21.335   0.280  51.724  1.00  0.00     0.026 A 
HETATM   23  C13 UNL     1      20.159  -0.090  52.389  1.00  0.00     0.034 A 
HETATM   24 CL1  UNL     1      18.585   0.069  51.650  1.00  0.00    -0.084 Cl
HETATM   25  C14 UNL     1      20.244  -0.593  53.668  1.00  0.00     0.026 A 
HETATM   26  C15 UNL     1      21.482  -0.726  54.279  1.00  0.00     0.032 A 
ENDBRANCH  18  20
ENDBRANCH   5  18
TORSDOF 6
ENDMDL
MODEL 6
REMARK VINA RESULT:      -7.2      3.826      7.934
REMARK  6 active torsions:
REMARK  status: ('A' for Active; 'I' for Inactive)
REMARK    1  A    between atoms: O1_2  and  C2_3 
REMARK    2  A    between atoms: C3_5  and  N2_6 
REMARK    3  A    between atoms: N2_6  and  C4_7 
REMARK    4  A    between atoms: C4_7  and  C5_8 
REMARK    5  A    between atoms: C9_15  and  N5_16 
REMARK    6  A    between atoms: N5_16  and  C10_17 
ROOT
HETATM    1  C2  UNL     1      22.498   1.871  50.680  1.00  0.00     0.302 A 
HETATM    2  N1  UNL     1      23.173   3.030  50.556  1.00  0.00    -0.018 NA
HETATM    3  C3  UNL     1      24.221   3.356  51.332  1.00  0.00     0.742 A 
HETATM    4  N4  UNL     1      24.588   2.449  52.269  1.00  0.00     0.130 NA
HETATM    5  C9  UNL     1      23.946   1.277  52.434  1.00  0.00     0.746 A 
HETATM    6  N6  UNL     1      22.895   1.007  51.621  1.00  0.00    -0.017 NA
ENDROOT
BRANCH   3   7
HETATM    7  N2  UNL     1      24.887   4.621  51.117  1.00  0.00    -0.220 N 
HETATM    8  H4  UNL     1      24.713   5.365  51.838  1.00  0.00     0.177 HD
BRANCH   7   9
HETATM    9  C4  UNL     1      25.654   4.481  49.903  1.00  0.00     0.165 C 
BRANCH   9  10
HETATM   10  C5  UNL     1      25.794   5.839  49.255  1.00  0.00     0.130 C 
HETATM   11  C6  UNL     1      27.134   5.995  48.574  1.00  0.00     0.055 C 
HETATM   12  C7  UNL     1      27.064   7.303  47.816  1.00  0.00     0.178 C 
HETATM   13  O2  UNL     1      25.979   8.033  48.392  1.00  0.00    -0.345 OA
HETATM   14  C8  UNL     1      25.844   8.120  49.790  1.00  0.00     0.245 C 
HETATM   15  N3  UNL     1      25.744   6.904  50.258  1.00  0.00    -0.272 NA
ENDBRANCH   9  10
ENDBRANCH   7   9
ENDBRANCH   3   7
BRANCH   1  16
HETATM   16  O1  UNL     1      21.462   1.693  49.821  1.00  0.00    -0.323 OA
HETATM   17  C1  UNL     1      21.579   1.363  48.463  1.00  0.00     0.213 C 
ENDBRANCH   1  16
BRANCH   5  18
HETATM   18  N5  UNL     1      24.533   0.519  53.474  1.00  0.00    -0.188 N 
HETATM   19  H13 UNL     1      23.801   0.228  54.148  1.00  0.00     0.184 HD
BRANCH  18  20
HETATM   20  C10 UNL     1      25.890   0.159  53.645  1.00  0.00     0.049 A 
HETATM   21  C11 UNL     1      26.708   0.628  54.665  1.00  0.00     0.032 A 
HETATM   22  C12 UNL     1      28.024   0.213  54.740  1.00  0.00     0.026 A 
HETATM   23  C13 UNL     1      28.558  -0.677  53.798  1.00  0.00     0.034 A 
HETATM   24 CL1  UNL     1      30.219  -1.211  53.865  1.00  0.00    -0.084 Cl
HETATM   25  C14 UNL     1      27.751  -1.143  52.786  1.00  0.00     0.026 A 
HETATM   26  C15 UNL     1      26.428  -0.731  52.709  1.00  0.00     0.032 A 
ENDBRANCH  18  20
ENDBRANCH   5  18
TORSDOF 6
ENDMDL
MODEL 7
REMARK VINA RESULT:      -7.2      4.715      7.774
REMARK  6 active torsions:
REMARK  status: ('A' for Active; 'I' for Inactive)
REMARK    1  A    between atoms: O1_2  and  C2_3 
REMARK    2  A    between atoms: C3_5  and  N2_6 
REMARK    3  A    between atoms: N2_6  and  C4_7 
REMARK    4  A    between atoms: C4_7  and  C5_8 
REMARK    5  A    between atoms: C9_15  and  N5_16 
REMARK    6  A    between atoms: N5_16  and  C10_17 
ROOT
HETATM    1  C2  UNL     1      22.581   3.955  52.055  1.00  0.00     0.302 A 
HETATM    2  N1  UNL     1      23.841   3.888  52.524  1.00  0.00    -0.018 NA
HETATM    3  C3  UNL     1      24.411   2.744  52.940  1.00  0.00     0.742 A 
HETATM    4  N4  UNL     1      23.650   1.626  52.865  1.00  0.00     0.130 NA
HETATM    5  C9  UNL     1      22.384   1.638  52.405  1.00  0.00     0.746 A 
HETATM    6  N6  UNL     1      21.867   2.825  52.002  1.00  0.00    -0.017 NA
ENDROOT
BRANCH   3   7
HETATM    7  N2  UNL     1      25.774   2.773  53.420  1.00  0.00    -0.220 N 
HETATM    8  H4  UNL     1      25.919   3.168  54.382  1.00  0.00     0.177 HD
BRANCH   7   9
HETATM    9  C4  UNL     1      26.590   2.203  52.375  1.00  0.00     0.165 C 
BRANCH   9  10
HETATM   10  C5  UNL     1      27.353   1.026  52.937  1.00  0.00     0.130 C 
HETATM   11  C6  UNL     1      26.715  -0.287  52.550  1.00  0.00     0.055 C 
HETATM   12  C7  UNL     1      27.674  -1.364  53.009  1.00  0.00     0.178 C 
HETATM   13  O2  UNL     1      28.528  -0.746  53.973  1.00  0.00    -0.345 OA
HETATM   14  C8  UNL     1      27.986   0.072  54.982  1.00  0.00     0.245 C 
HETATM   15  N3  UNL     1      27.338   1.046  54.402  1.00  0.00    -0.272 NA
ENDBRANCH   9  10
ENDBRANCH   7   9
ENDBRANCH   3   7
BRANCH   1  16
HETATM   16  O1  UNL     1      22.153   5.186  51.677  1.00  0.00    -0.323 OA
HETATM   17  C1  UNL     1      21.079   5.444  50.811  1.00  0.00     0.213 C 
ENDBRANCH   1  16
BRANCH   5  18
HETATM   18  N5  UNL     1      21.822   0.341  52.430  1.00  0.00    -0.188 N 
HETATM   19  H13 UNL     1      22.578  -0.365  52.481  1.00  0.00     0.184 HD
BRANCH  18  20
HETATM   20  C10 UNL     1      20.456  -0.028  52.402  1.00  0.00     0.049 A 
HETATM   21  C11 UNL     1      19.805  -0.719  53.416  1.00  0.00     0.032 A 
HETATM   22  C12 UNL     1      18.465  -1.031  53.287  1.00  0.00     0.026 A 
HETATM   23  C13 UNL     1      17.743  -0.667  52.143  1.00  0.00     0.034 A 
HETATM   24 CL1  UNL     1      16.051  -1.057  51.950  1.00  0.00    -0.084 Cl
HETATM   25  C14 UNL     1      18.385   0.016  51.136  1.00  0.00     0.026 A 
HETATM   26  C15 UNL     1      19.729   0.335  51.263  1.00  0.00     0.032 A 
ENDBRANCH  18  20
ENDBRANCH   5  18
TORSDOF 6
ENDMDL
MODEL 8
REMARK VINA RESULT:      -7.1      1.871      2.613
REMARK  6 active torsions:
REMARK  status: ('A' for Active; 'I' for Inactive)
REMARK    1  A    between atoms: O1_2  and  C2_3 
REMARK    2  A    between atoms: C3_5  and  N2_6 
REMARK    3  A    between atoms: N2_6  and  C4_7 
REMARK    4  A    between atoms: C4_7  and  C5_8 
REMARK    5  A    between atoms: C9_15  and  N5_16 
REMARK    6  A    between atoms: N5_16  and  C10_17 
ROOT
HETATM    1  C2  UNL     1      26.124   1.411  53.562  1.00  0.00     0.302 A 
HETATM    2  N1  UNL     1      25.171   0.476  53.732  1.00  0.00    -0.018 NA
HETATM    3  C3  UNL     1      24.102   0.361  52.925  1.00  0.00     0.742 A 
HETATM    4  N4  UNL     1      24.017   1.245  51.902  1.00  0.00     0.130 NA
HETATM    5  C9  UNL     1      24.943   2.199  51.688  1.00  0.00     0.746 A 
HETATM    6  N6  UNL     1      25.997   2.263  52.539  1.00  0.00    -0.017 NA
ENDROOT
BRANCH   3   7
HETATM    7  N2  UNL     1      23.134  -0.682  53.185  1.00  0.00    -0.220 N 
HETATM    8  H4  UNL     1      23.377  -1.640  52.828  1.00  0.00     0.177 HD
BRANCH   7   9
HETATM    9  C4  UNL     1      22.053  -0.066  53.915  1.00  0.00     0.165 C 
BRANCH   9  10
HETATM   10  C5  UNL     1      20.832  -0.015  53.027  1.00  0.00     0.130 C 
HETATM   11  C6  UNL     1      20.328   1.399  52.854  1.00  0.00     0.055 C 
HETATM   12  C7  UNL     1      19.239   1.325  51.806  1.00  0.00     0.178 C 
HETATM   13  O2  UNL     1      18.845  -0.047  51.743  1.00  0.00    -0.345 OA
HETATM   14  C8  UNL     1      18.617  -0.776  52.925  1.00  0.00     0.245 C 
HETATM   15  N3  UNL     1      19.718  -0.752  53.628  1.00  0.00    -0.272 NA
ENDBRANCH   9  10
ENDBRANCH   7   9
ENDBRANCH   3   7
BRANCH   1  16
HETATM   16  O1  UNL     1      27.138   1.395  54.464  1.00  0.00    -0.323 OA
HETATM   17  C1  UNL     1      27.930   0.280  54.779  1.00  0.00     0.213 C 
ENDBRANCH   1  16
BRANCH   5  18
HETATM   18  N5  UNL     1      24.615   2.980  50.556  1.00  0.00    -0.188 N 
HETATM   19  H13 UNL     1      23.669   2.725  50.220  1.00  0.00     0.184 HD
BRANCH  18  20
HETATM   20  C10 UNL     1      25.390   3.979  49.920  1.00  0.00     0.049 A 
HETATM   21  C11 UNL     1      24.983   5.293  49.734  1.00  0.00     0.032 A 
HETATM   22  C12 UNL     1      25.819   6.190  49.097  1.00  0.00     0.026 A 
HETATM   23  C13 UNL     1      27.080   5.799  48.627  1.00  0.00     0.034 A 
HETATM   24 CL1  UNL     1      28.152   6.910  47.812  1.00  0.00    -0.084 Cl
HETATM   25  C14 UNL     1      27.486   4.496  48.809  1.00  0.00     0.026 A 
HETATM   26  C15 UNL     1      26.651   3.593  49.450  1.00  0.00     0.032 A 
ENDBRANCH  18  20
ENDBRANCH   5  18
TORSDOF 6
ENDMDL
MODEL 9
REMARK VINA RESULT:      -7.0      4.723      6.468
REMARK  6 active torsions:
REMARK  status: ('A' for Active; 'I' for Inactive)
REMARK    1  A    between atoms: O1_2  and  C2_3 
REMARK    2  A    between atoms: C3_5  and  N2_6 
REMARK    3  A    between atoms: N2_6  and  C4_7 
REMARK    4  A    between atoms: C4_7  and  C5_8 
REMARK    5  A    between atoms: C9_15  and  N5_16 
REMARK    6  A    between atoms: N5_16  and  C10_17 
ROOT
HETATM    1  C2  UNL     1      22.798   2.890  52.188  1.00  0.00     0.302 A 
HETATM    2  N1  UNL     1      21.758   2.259  51.612  1.00  0.00    -0.018 NA
HETATM    3  C3  UNL     1      21.548   0.936  51.723  1.00  0.00     0.742 A 
HETATM    4  N4  UNL     1      22.447   0.239  52.460  1.00  0.00     0.130 NA
HETATM    5  C9  UNL     1      23.504   0.822  53.055  1.00  0.00     0.746 A 
HETATM    6  N6  UNL     1      23.661   2.160  52.904  1.00  0.00    -0.017 NA
ENDROOT
BRANCH   3   7
HETATM    7  N2  UNL     1      20.397   0.351  51.074  1.00  0.00    -0.220 N 
HETATM    8  H4  UNL     1      20.592  -0.245  50.231  1.00  0.00     0.177 HD
BRANCH   7   9
HETATM    9  C4  UNL     1      19.241   0.772  51.828  1.00  0.00     0.165 C 
BRANCH   9  10
HETATM   10  C5  UNL     1      18.368  -0.431  52.098  1.00  0.00     0.130 C 
HETATM   11  C6  UNL     1      16.906  -0.056  52.158  1.00  0.00     0.055 C 
HETATM   12  C7  UNL     1      16.146  -1.362  52.239  1.00  0.00     0.178 C 
HETATM   13  O2  UNL     1      17.096  -2.344  52.660  1.00  0.00    -0.345 OA
HETATM   14  C8  UNL     1      17.975  -2.072  53.725  1.00  0.00     0.245 C 
HETATM   15  N3  UNL     1      18.672  -1.014  53.406  1.00  0.00    -0.272 NA
ENDBRANCH   9  10
ENDBRANCH   7   9
ENDBRANCH   3   7
BRANCH   1  16
HETATM   16  O1  UNL     1      22.869   4.229  51.980  1.00  0.00    -0.323 OA
HETATM   17  C1  UNL     1      21.781   5.067  51.693  1.00  0.00     0.213 C 
ENDBRANCH   1  16
BRANCH   5  18
HETATM   18  N5  UNL     1      24.277  -0.129  53.762  1.00  0.00    -0.188 N 
HETATM   19  H13 UNL     1      23.660  -0.693  54.374  1.00  0.00     0.184 HD
BRANCH  18  20
HETATM   20  C10 UNL     1      25.673  -0.351  53.700  1.00  0.00     0.049 A 
HETATM   21  C11 UNL     1      26.300  -1.175  52.774  1.00  0.00     0.032 A 
HETATM   22  C12 UNL     1      27.674  -1.324  52.802  1.00  0.00     0.026 A 
HETATM   23  C13 UNL     1      28.456  -0.658  53.756  1.00  0.00     0.034 A 
HETATM   24 CL1  UNL     1      30.192  -0.835  53.818  1.00  0.00    -0.084 Cl
HETATM   25  C14 UNL     1      27.837   0.159  54.675  1.00  0.00     0.026 A 
HETATM   26  C15 UNL     1      26.459   0.312  54.648  1.00  0.00     0.032 A 
ENDBRANCH  18  20
ENDBRANCH   5  18
TORSDOF 6
ENDMDL
