MODEL 1
REMARK VINA RESULT:      -9.3      0.000      0.000
REMARK  4 active torsions:
REMARK  status: ('A' for Active; 'I' for Inactive)
REMARK    1  A    between atoms: O1_2  and  C2_3 
REMARK    2  A    between atoms: C5_6  and  C6_7 
REMARK    3  A    between atoms: C16_20  and  C17_21 
REMARK    4  A    between atoms: C20_24  and  O2_25 
ROOT
HETATM    1  C6  UNL     1      23.436   1.519  51.057  1.00  0.00     0.044 C 
HETATM    2  N1  UNL     1      22.590   0.930  51.789  1.00  0.00    -0.254 NA
HETATM    3  C7  UNL     1      21.212   0.680  52.107  1.00  0.00     0.180 C 
HETATM    4  C8  UNL     1      21.073  -0.402  53.065  1.00  0.00     0.031 C 
HETATM    5  C9  UNL     1      20.231  -1.220  53.719  1.00  0.00     0.000 C 
HETATM    6  C10 UNL     1      18.769  -1.326  53.675  1.00  0.00    -0.000 C 
HETATM    7  C11 UNL     1      17.837  -0.811  52.857  1.00  0.00    -0.000 C 
HETATM    8  C12 UNL     1      17.892   0.059  51.686  1.00  0.00    -0.003 C 
HETATM    9  C13 UNL     1      18.935   0.558  51.040  1.00  0.00    -0.010 C 
HETATM   10  C14 UNL     1      20.368   0.685  50.907  1.00  0.00     0.134 C 
HETATM   11  C15 UNL     1      20.742   2.148  51.059  1.00  0.00     0.111 C 
HETATM   12  N2  UNL     1      20.460   1.898  52.326  1.00  0.00    -0.237 NA
HETATM   13  N3  UNL     1      21.181   3.148  50.115  1.00  0.00    -0.369 N 
HETATM   14  C16 UNL     1      22.497   3.230  49.506  1.00  0.00     0.121 C 
HETATM   15  C23 UNL     1      23.297   1.955  49.656  1.00  0.00     0.089 C 
HETATM   16  H13 UNL     1      20.644   3.973  49.709  1.00  0.00     0.161 HD
ENDROOT
BRANCH   1  17
HETATM   17  C5  UNL     1      24.698   1.764  51.761  1.00  0.00    -0.012 A 
HETATM   18  C4  UNL     1      24.761   1.708  53.137  1.00  0.00     0.016 A 
HETATM   19  C3  UNL     1      25.906   1.933  53.836  1.00  0.00     0.037 A 
HETATM   20  C2  UNL     1      27.098   2.237  53.185  1.00  0.00     0.068 A 
HETATM   21  C25 UNL     1      27.077   2.302  51.810  1.00  0.00     0.037 A 
HETATM   22  C24 UNL     1      25.892   2.066  51.151  1.00  0.00     0.016 A 
BRANCH  20  23
HETATM   23  O1  UNL     1      28.137   2.428  54.066  1.00  0.00    -0.356 OA
HETATM   24  C1  UNL     1      29.145   1.511  54.373  1.00  0.00     0.210 C 
ENDBRANCH  20  23
ENDBRANCH   1  17
BRANCH  14  25
HETATM   25  C17 UNL     1      23.256   4.405  49.968  1.00  0.00    -0.035 A 
HETATM   26  C18 UNL     1      22.946   5.110  51.136  1.00  0.00     0.012 A 
HETATM   27  C19 UNL     1      23.757   6.203  51.436  1.00  0.00     0.037 A 
HETATM   28  C20 UNL     1      24.810   6.589  50.643  1.00  0.00     0.065 A 
HETATM   29  C21 UNL     1      25.082   5.861  49.492  1.00  0.00     0.037 A 
HETATM   30  C22 UNL     1      24.306   4.768  49.152  1.00  0.00     0.012 A 
BRANCH  28  31
HETATM   31  O2  UNL     1      25.469   7.689  51.127  1.00  0.00    -0.361 OA
HETATM   32  H17 UNL     1      25.192   8.150  51.993  1.00  0.00     0.217 HD
ENDBRANCH  28  31
ENDBRANCH  14  25
TORSDOF 4
ENDMDL
MODEL 2
REMARK VINA RESULT:      -9.0      3.261      5.242
REMARK  4 active torsions:
REMARK  status: ('A' for Active; 'I' for Inactive)
REMARK    1  A    between atoms: O1_2  and  C2_3 
REMARK    2  A    between atoms: C5_6  and  C6_7 
REMARK    3  A    between atoms: C16_20  and  C17_21 
REMARK    4  A    between atoms: C20_24  and  O2_25 
ROOT
HETATM    1  C6  UNL     1      25.160   3.781  49.980  1.00  0.00     0.044 C 
HETATM    2  N1  UNL     1      25.679   3.220  50.986  1.00  0.00    -0.254 NA
HETATM    3  C7  UNL     1      25.523   2.351  52.119  1.00  0.00     0.180 C 
HETATM    4  C8  UNL     1      26.802   2.025  52.723  1.00  0.00     0.031 C 
HETATM    5  C9  UNL     1      27.455   1.286  53.636  1.00  0.00     0.000 C 
HETATM    6  C10 UNL     1      26.964   0.288  54.592  1.00  0.00    -0.000 C 
HETATM    7  C11 UNL     1      25.789  -0.346  54.733  1.00  0.00    -0.000 C 
HETATM    8  C12 UNL     1      24.526  -0.304  54.001  1.00  0.00    -0.003 C 
HETATM    9  C13 UNL     1      24.194   0.362  52.906  1.00  0.00    -0.010 C 
HETATM   10  C14 UNL     1      24.564   1.274  51.848  1.00  0.00     0.134 C 
HETATM   11  C15 UNL     1      23.674   2.500  51.930  1.00  0.00     0.111 C 
HETATM   12  N2  UNL     1      24.432   2.753  52.983  1.00  0.00    -0.237 NA
HETATM   13  N3  UNL     1      22.576   2.968  51.117  1.00  0.00    -0.369 N 
HETATM   14  C16 UNL     1      22.683   3.559  49.794  1.00  0.00     0.121 C 
HETATM   15  C23 UNL     1      24.031   3.321  49.150  1.00  0.00     0.089 C 
HETATM   16  H13 UNL     1      21.533   2.967  51.328  1.00  0.00     0.161 HD
ENDROOT
BRANCH   1  17
HETATM   17  C5  UNL     1      25.821   5.047  49.651  1.00  0.00    -0.012 A 
HETATM   18  C4  UNL     1      26.884   5.081  48.774  1.00  0.00     0.016 A 
HETATM   19  C3  UNL     1      27.534   6.228  48.440  1.00  0.00     0.037 A 
HETATM   20  C2  UNL     1      27.151   7.453  48.978  1.00  0.00     0.068 A 
HETATM   21  C25 UNL     1      26.092   7.463  49.859  1.00  0.00     0.037 A 
HETATM   22  C24 UNL     1      25.470   6.273  50.162  1.00  0.00     0.016 A 
BRANCH  20  23
HETATM   23  O1  UNL     1      27.929   8.489  48.518  1.00  0.00    -0.356 OA
HETATM   24  C1  UNL     1      28.619   9.421  49.298  1.00  0.00     0.210 C 
ENDBRANCH  20  23
ENDBRANCH   1  17
BRANCH  14  25
HETATM   25  C17 UNL     1      22.321   4.986  49.787  1.00  0.00    -0.035 A 
HETATM   26  C18 UNL     1      22.019   5.709  50.946  1.00  0.00     0.012 A 
HETATM   27  C19 UNL     1      21.691   7.052  50.773  1.00  0.00     0.037 A 
HETATM   28  C20 UNL     1      21.657   7.658  49.540  1.00  0.00     0.065 A 
HETATM   29  C21 UNL     1      21.964   6.903  48.416  1.00  0.00     0.037 A 
HETATM   30  C22 UNL     1      22.297   5.566  48.536  1.00  0.00     0.012 A 
BRANCH  28  31
HETATM   31  O2  UNL     1      21.309   8.982  49.605  1.00  0.00    -0.361 OA
HETATM   32  H17 UNL     1      21.206   9.474  50.492  1.00  0.00     0.217 HD
ENDBRANCH  28  31
ENDBRANCH  14  25
TORSDOF 4
ENDMDL
MODEL 3
REMARK VINA RESULT:      -8.9      2.991      6.454
REMARK  4 active torsions:
REMARK  status: ('A' for Active; 'I' for Inactive)
REMARK    1  A    between atoms: O1_2  and  C2_3 
REMARK    2  A    between atoms: C5_6  and  C6_7 
REMARK    3  A    between atoms: C16_20  and  C17_21 
REMARK    4  A    between atoms: C20_24  and  O2_25 
ROOT
HETATM    1  C6  UNL     1      23.892   1.547  52.751  1.00  0.00     0.044 C 
HETATM    2  N1  UNL     1      24.748   0.617  52.749  1.00  0.00    -0.254 NA
HETATM    3  C7  UNL     1      26.126   0.222  52.660  1.00  0.00     0.180 C 
HETATM    4  C8  UNL     1      26.303  -1.179  52.994  1.00  0.00     0.031 C 
HETATM    5  C9  UNL     1      27.175  -2.176  53.226  1.00  0.00     0.000 C 
HETATM    6  C10 UNL     1      28.642  -2.189  53.215  1.00  0.00    -0.000 C 
HETATM    7  C11 UNL     1      29.567  -1.217  53.176  1.00  0.00    -0.000 C 
HETATM    8  C12 UNL     1      29.497   0.241  53.129  1.00  0.00    -0.003 C 
HETATM    9  C13 UNL     1      28.448   1.049  53.172  1.00  0.00    -0.010 C 
HETATM   10  C14 UNL     1      27.017   1.220  53.263  1.00  0.00     0.134 C 
HETATM   11  C15 UNL     1      26.530   1.921  52.008  1.00  0.00     0.111 C 
HETATM   12  N2  UNL     1      26.776   0.737  51.473  1.00  0.00    -0.237 NA
HETATM   13  N3  UNL     1      26.059   3.262  51.757  1.00  0.00    -0.369 N 
HETATM   14  C16 UNL     1      24.767   3.801  52.144  1.00  0.00     0.121 C 
HETATM   15  C23 UNL     1      24.057   2.950  53.173  1.00  0.00     0.089 C 
HETATM   16  H13 UNL     1      26.550   4.068  51.264  1.00  0.00     0.161 HD
ENDROOT
BRANCH   1  17
HETATM   17  C5  UNL     1      22.587   1.097  52.258  1.00  0.00    -0.012 A 
HETATM   18  C4  UNL     1      21.587   0.738  53.136  1.00  0.00     0.016 A 
HETATM   19  C3  UNL     1      20.361   0.310  52.730  1.00  0.00     0.037 A 
HETATM   20  C2  UNL     1      20.047   0.210  51.378  1.00  0.00     0.068 A 
HETATM   21  C25 UNL     1      21.020   0.559  50.468  1.00  0.00     0.037 A 
HETATM   22  C24 UNL     1      22.242   0.986  50.932  1.00  0.00     0.016 A 
BRANCH  20  23
HETATM   23  O1  UNL     1      18.764  -0.240  51.175  1.00  0.00    -0.356 OA
HETATM   24  C1  UNL     1      17.865  -0.660  52.159  1.00  0.00     0.210 C 
ENDBRANCH  20  23
ENDBRANCH   1  17
BRANCH  14  25
HETATM   25  C17 UNL     1      23.905   4.081  50.983  1.00  0.00    -0.035 A 
HETATM   26  C18 UNL     1      24.258   3.756  49.668  1.00  0.00     0.012 A 
HETATM   27  C19 UNL     1      23.337   4.090  48.677  1.00  0.00     0.037 A 
HETATM   28  C20 UNL     1      22.139   4.706  48.950  1.00  0.00     0.065 A 
HETATM   29  C21 UNL     1      21.830   5.010  50.269  1.00  0.00     0.037 A 
HETATM   30  C22 UNL     1      22.712   4.699  51.288  1.00  0.00     0.012 A 
BRANCH  28  31
HETATM   31  O2  UNL     1      21.391   4.941  47.827  1.00  0.00    -0.361 OA
HETATM   32  H17 UNL     1      20.938   4.188  47.310  1.00  0.00     0.217 HD
ENDBRANCH  28  31
ENDBRANCH  14  25
TORSDOF 4
ENDMDL
MODEL 4
REMARK VINA RESULT:      -8.2      2.879      6.792
REMARK  4 active torsions:
REMARK  status: ('A' for Active; 'I' for Inactive)
REMARK    1  A    between atoms: O1_2  and  C2_3 
REMARK    2  A    between atoms: C5_6  and  C6_7 
REMARK    3  A    between atoms: C16_20  and  C17_21 
REMARK    4  A    between atoms: C20_24  and  O2_25 
ROOT
HETATM    1  C6  UNL     1      24.286   4.109  51.648  1.00  0.00     0.044 C 
HETATM    2  N1  UNL     1      25.081   4.518  50.755  1.00  0.00    -0.254 NA
HETATM    3  C7  UNL     1      25.319   5.371  49.625  1.00  0.00     0.180 C 
HETATM    4  C8  UNL     1      26.723   5.394  49.258  1.00  0.00     0.031 C 
HETATM    5  C9  UNL     1      27.671   5.949  48.483  1.00  0.00     0.000 C 
HETATM    6  C10 UNL     1      27.584   7.006  47.470  1.00  0.00    -0.000 C 
HETATM    7  C11 UNL     1      26.620   7.878  47.135  1.00  0.00    -0.000 C 
HETATM    8  C12 UNL     1      25.272   8.132  47.635  1.00  0.00    -0.003 C 
HETATM    9  C13 UNL     1      24.617   7.583  48.646  1.00  0.00    -0.010 C 
HETATM   10  C14 UNL     1      24.588   6.639  49.740  1.00  0.00     0.134 C 
HETATM   11  C15 UNL     1      23.479   5.636  49.486  1.00  0.00     0.111 C 
HETATM   12  N2  UNL     1      24.333   5.197  48.578  1.00  0.00    -0.237 NA
HETATM   13  N3  UNL     1      22.181   5.439  50.089  1.00  0.00    -0.369 N 
HETATM   14  C16 UNL     1      21.925   4.873  51.402  1.00  0.00     0.121 C 
HETATM   15  C23 UNL     1      23.160   4.826  52.275  1.00  0.00     0.089 C 
HETATM   16  H13 UNL     1      21.216   5.664  49.700  1.00  0.00     0.161 HD
ENDROOT
BRANCH   1  17
HETATM   17  C5  UNL     1      24.585   2.738  52.070  1.00  0.00    -0.012 A 
HETATM   18  C4  UNL     1      25.724   2.098  51.631  1.00  0.00     0.016 A 
HETATM   19  C3  UNL     1      26.044   0.825  51.989  1.00  0.00     0.037 A 
HETATM   20  C2  UNL     1      25.219   0.087  52.833  1.00  0.00     0.068 A 
HETATM   21  C25 UNL     1      24.070   0.691  53.294  1.00  0.00     0.037 A 
HETATM   22  C24 UNL     1      23.795   1.981  52.901  1.00  0.00     0.016 A 
BRANCH  20  23
HETATM   23  O1  UNL     1      25.716  -1.172  53.074  1.00  0.00    -0.356 OA
HETATM   24  C1  UNL     1      26.812  -1.768  52.444  1.00  0.00     0.210 C 
ENDBRANCH  20  23
ENDBRANCH   1  17
BRANCH  14  25
HETATM   25  C17 UNL     1      21.262   3.560  51.327  1.00  0.00    -0.035 A 
HETATM   26  C18 UNL     1      21.355   2.714  50.216  1.00  0.00     0.012 A 
HETATM   27  C19 UNL     1      20.667   1.506  50.295  1.00  0.00     0.037 A 
HETATM   28  C20 UNL     1      19.927   1.141  51.394  1.00  0.00     0.065 A 
HETATM   29  C21 UNL     1      19.861   2.011  52.475  1.00  0.00     0.037 A 
HETATM   30  C22 UNL     1      20.528   3.222  52.444  1.00  0.00     0.012 A 
BRANCH  28  31
HETATM   31  O2  UNL     1      19.335  -0.087  51.256  1.00  0.00    -0.361 OA
HETATM   32  H17 UNL     1      19.262  -0.745  52.031  1.00  0.00     0.217 HD
ENDBRANCH  28  31
ENDBRANCH  14  25
TORSDOF 4
ENDMDL
MODEL 5
REMARK VINA RESULT:      -8.2      2.640      4.107
REMARK  4 active torsions:
REMARK  status: ('A' for Active; 'I' for Inactive)
REMARK    1  A    between atoms: O1_2  and  C2_3 
REMARK    2  A    between atoms: C5_6  and  C6_7 
REMARK    3  A    between atoms: C16_20  and  C17_21 
REMARK    4  A    between atoms: C20_24  and  O2_25 
ROOT
HETATM    1  C6  UNL     1      23.974   3.090  49.704  1.00  0.00     0.044 C 
HETATM    2  N1  UNL     1      24.280   2.393  50.713  1.00  0.00    -0.254 NA
HETATM    3  C7  UNL     1      23.850   1.655  51.868  1.00  0.00     0.180 C 
HETATM    4  C8  UNL     1      24.940   0.896  52.453  1.00  0.00     0.031 C 
HETATM    5  C9  UNL     1      25.306  -0.016  53.370  1.00  0.00     0.000 C 
HETATM    6  C10 UNL     1      24.512  -0.756  54.357  1.00  0.00    -0.000 C 
HETATM    7  C11 UNL     1      23.191  -0.919  54.535  1.00  0.00    -0.000 C 
HETATM    8  C12 UNL     1      22.010  -0.433  53.827  1.00  0.00    -0.003 C 
HETATM    9  C13 UNL     1      21.913   0.293  52.724  1.00  0.00    -0.010 C 
HETATM   10  C14 UNL     1      22.560   0.994  51.639  1.00  0.00     0.134 C 
HETATM   11  C15 UNL     1      22.176   2.460  51.711  1.00  0.00     0.111 C 
HETATM   12  N2  UNL     1      23.002   2.436  52.743  1.00  0.00    -0.237 NA
HETATM   13  N3  UNL     1      21.302   3.283  50.910  1.00  0.00    -0.369 N 
HETATM   14  C16 UNL     1      21.580   3.777  49.572  1.00  0.00     0.121 C 
HETATM   15  C23 UNL     1      22.734   3.058  48.907  1.00  0.00     0.089 C 
HETATM   16  H13 UNL     1      20.334   3.663  51.140  1.00  0.00     0.161 HD
ENDROOT
BRANCH   1  17
HETATM   17  C5  UNL     1      25.039   4.026  49.335  1.00  0.00    -0.012 A 
HETATM   18  C4  UNL     1      24.740   5.309  48.929  1.00  0.00     0.016 A 
HETATM   19  C3  UNL     1      25.691   6.214  48.571  1.00  0.00     0.037 A 
HETATM   20  C2  UNL     1      27.042   5.884  48.596  1.00  0.00     0.068 A 
HETATM   21  C25 UNL     1      27.383   4.610  48.995  1.00  0.00     0.037 A 
HETATM   22  C24 UNL     1      26.382   3.735  49.347  1.00  0.00     0.016 A 
BRANCH  20  23
HETATM   23  O1  UNL     1      27.841   6.931  48.200  1.00  0.00    -0.356 OA
HETATM   24  C1  UNL     1      29.237   6.968  48.228  1.00  0.00     0.210 C 
ENDBRANCH  20  23
ENDBRANCH   1  17
BRANCH  14  25
HETATM   25  C17 UNL     1      21.759   5.238  49.539  1.00  0.00    -0.035 A 
HETATM   26  C18 UNL     1      22.021   6.006  50.679  1.00  0.00     0.012 A 
HETATM   27  C19 UNL     1      22.160   7.379  50.485  1.00  0.00     0.037 A 
HETATM   28  C20 UNL     1      22.050   7.972  49.251  1.00  0.00     0.065 A 
HETATM   29  C21 UNL     1      21.789   7.172  48.146  1.00  0.00     0.037 A 
HETATM   30  C22 UNL     1      21.642   5.804  48.287  1.00  0.00     0.012 A 
BRANCH  28  31
HETATM   31  O2  UNL     1      22.222   9.330  49.293  1.00  0.00    -0.361 OA
HETATM   32  H17 UNL     1      21.440   9.980  49.211  1.00  0.00     0.217 HD
ENDBRANCH  28  31
ENDBRANCH  14  25
TORSDOF 4
ENDMDL
MODEL 6
REMARK VINA RESULT:      -7.8      6.144      8.664
REMARK  4 active torsions:
REMARK  status: ('A' for Active; 'I' for Inactive)
REMARK    1  A    between atoms: O1_2  and  C2_3 
REMARK    2  A    between atoms: C5_6  and  C6_7 
REMARK    3  A    between atoms: C16_20  and  C17_21 
REMARK    4  A    between atoms: C20_24  and  O2_25 
ROOT
HETATM    1  C6  UNL     1      28.810   7.265  47.322  1.00  0.00     0.044 C 
HETATM    2  N1  UNL     1      28.202   6.417  48.036  1.00  0.00    -0.254 NA
HETATM    3  C7  UNL     1      26.986   6.006  48.680  1.00  0.00     0.180 C 
HETATM    4  C8  UNL     1      27.083   4.650  49.188  1.00  0.00     0.031 C 
HETATM    5  C9  UNL     1      26.437   3.615  49.752  1.00  0.00     0.000 C 
HETATM    6  C10 UNL     1      25.035   3.465  50.156  1.00  0.00    -0.000 C 
HETATM    7  C11 UNL     1      23.931   4.192  49.925  1.00  0.00    -0.000 C 
HETATM    8  C12 UNL     1      23.671   5.423  49.182  1.00  0.00    -0.003 C 
HETATM    9  C13 UNL     1      24.484   6.166  48.447  1.00  0.00    -0.010 C 
HETATM   10  C14 UNL     1      25.803   6.398  47.905  1.00  0.00     0.134 C 
HETATM   11  C15 UNL     1      26.316   7.727  48.427  1.00  0.00     0.111 C 
HETATM   12  N2  UNL     1      26.440   7.032  49.544  1.00  0.00    -0.237 NA
HETATM   13  N3  UNL     1      26.501   9.017  47.805  1.00  0.00    -0.369 N 
HETATM   14  C16 UNL     1      27.553   9.370  46.867  1.00  0.00     0.121 C 
HETATM   15  C23 UNL     1      28.259   8.163  46.290  1.00  0.00     0.089 C 
HETATM   16  H13 UNL     1      25.927   9.906  47.912  1.00  0.00     0.161 HD
ENDROOT
BRANCH   1  17
HETATM   17  C5  UNL     1      30.246   7.303  47.611  1.00  0.00    -0.012 A 
HETATM   18  C4  UNL     1      30.709   7.762  48.825  1.00  0.00     0.016 A 
HETATM   19  C3  UNL     1      32.031   7.822  49.140  1.00  0.00     0.037 A 
HETATM   20  C2  UNL     1      33.005   7.415  48.233  1.00  0.00     0.068 A 
HETATM   21  C25 UNL     1      32.583   6.950  47.007  1.00  0.00     0.037 A 
HETATM   22  C24 UNL     1      31.234   6.909  46.740  1.00  0.00     0.016 A 
BRANCH  20  23
HETATM   23  O1  UNL     1      34.276   7.553  48.738  1.00  0.00    -0.356 OA
HETATM   24  C1  UNL     1      35.356   6.693  48.519  1.00  0.00     0.210 C 
ENDBRANCH  20  23
ENDBRANCH   1  17
BRANCH  14  25
HETATM   25  C17 UNL     1      28.507  10.338  47.434  1.00  0.00    -0.035 A 
HETATM   26  C18 UNL     1      28.436  10.807  48.750  1.00  0.00     0.012 A 
HETATM   27  C19 UNL     1      29.411  11.725  49.136  1.00  0.00     0.037 A 
HETATM   28  C20 UNL     1      30.399  12.164  48.288  1.00  0.00     0.065 A 
HETATM   29  C21 UNL     1      30.431  11.673  46.989  1.00  0.00     0.037 A 
HETATM   30  C22 UNL     1      29.486  10.760  46.559  1.00  0.00     0.012 A 
BRANCH  28  31
HETATM   31  O2  UNL     1      31.247  13.064  48.876  1.00  0.00    -0.361 OA
HETATM   32  H17 UNL     1      30.957  13.655  49.655  1.00  0.00     0.217 HD
ENDBRANCH  28  31
ENDBRANCH  14  25
TORSDOF 4
ENDMDL
MODEL 7
REMARK VINA RESULT:      -7.7      3.093      6.441
REMARK  4 active torsions:
REMARK  status: ('A' for Active; 'I' for Inactive)
REMARK    1  A    between atoms: O1_2  and  C2_3 
REMARK    2  A    between atoms: C5_6  and  C6_7 
REMARK    3  A    between atoms: C16_20  and  C17_21 
REMARK    4  A    between atoms: C20_24  and  O2_25 
ROOT
HETATM    1  C6  UNL     1      22.079   2.684  52.277  1.00  0.00     0.044 C 
HETATM    2  N1  UNL     1      22.889   1.810  52.696  1.00  0.00    -0.254 NA
HETATM    3  C7  UNL     1      24.248   1.370  52.843  1.00  0.00     0.180 C 
HETATM    4  C8  UNL     1      24.347   0.224  53.727  1.00  0.00     0.031 C 
HETATM    5  C9  UNL     1      25.162  -0.617  54.387  1.00  0.00     0.000 C 
HETATM    6  C10 UNL     1      26.626  -0.679  54.454  1.00  0.00    -0.000 C 
HETATM    7  C11 UNL     1      27.597   0.164  54.069  1.00  0.00    -0.000 C 
HETATM    8  C12 UNL     1      27.599   1.476  53.429  1.00  0.00    -0.003 C 
HETATM    9  C13 UNL     1      26.590   2.263  53.088  1.00  0.00    -0.010 C 
HETATM   10  C14 UNL     1      25.166   2.500  53.031  1.00  0.00     0.134 C 
HETATM   11  C15 UNL     1      24.755   2.641  51.577  1.00  0.00     0.111 C 
HETATM   12  N2  UNL     1      24.961   1.336  51.583  1.00  0.00    -0.237 NA
HETATM   13  N3  UNL     1      24.357   3.777  50.779  1.00  0.00    -0.369 N 
HETATM   14  C16 UNL     1      23.081   4.466  50.849  1.00  0.00     0.121 C 
HETATM   15  C23 UNL     1      22.298   4.132  52.100  1.00  0.00     0.089 C 
HETATM   16  H13 UNL     1      24.902   4.295  50.026  1.00  0.00     0.161 HD
ENDROOT
BRANCH   1  17
HETATM   17  C5  UNL     1      20.770   2.113  51.946  1.00  0.00    -0.012 A 
HETATM   18  C4  UNL     1      19.648   2.911  51.884  1.00  0.00     0.016 A 
HETATM   19  C3  UNL     1      18.411   2.429  51.586  1.00  0.00     0.037 A 
HETATM   20  C2  UNL     1      18.211   1.077  51.325  1.00  0.00     0.068 A 
HETATM   21  C25 UNL     1      19.308   0.245  51.378  1.00  0.00     0.037 A 
HETATM   22  C24 UNL     1      20.536   0.785  51.683  1.00  0.00     0.016 A 
BRANCH  20  23
HETATM   23  O1  UNL     1      16.895   0.790  51.046  1.00  0.00    -0.356 OA
HETATM   24  C1  UNL     1      15.774   1.332  51.681  1.00  0.00     0.210 C 
ENDBRANCH  20  23
ENDBRANCH   1  17
BRANCH  14  25
HETATM   25  C17 UNL     1      22.271   4.273  49.634  1.00  0.00    -0.035 A 
HETATM   26  C18 UNL     1      21.109   5.002  49.360  1.00  0.00     0.012 A 
HETATM   27  C19 UNL     1      20.452   4.700  48.169  1.00  0.00     0.037 A 
HETATM   28  C20 UNL     1      20.899   3.739  47.294  1.00  0.00     0.065 A 
HETATM   29  C21 UNL     1      22.057   3.039  47.606  1.00  0.00     0.037 A 
HETATM   30  C22 UNL     1      22.746   3.303  48.776  1.00  0.00     0.012 A 
BRANCH  28  31
HETATM   31  O2  UNL     1      20.099   3.608  46.190  1.00  0.00    -0.361 OA
HETATM   32  H17 UNL     1      19.223   3.088  46.213  1.00  0.00     0.217 HD
ENDBRANCH  28  31
ENDBRANCH  14  25
TORSDOF 4
ENDMDL
MODEL 8
REMARK VINA RESULT:      -7.7      9.162     12.002
REMARK  4 active torsions:
REMARK  status: ('A' for Active; 'I' for Inactive)
REMARK    1  A    between atoms: O1_2  and  C2_3 
REMARK    2  A    between atoms: C5_6  and  C6_7 
REMARK    3  A    between atoms: C16_20  and  C17_21 
REMARK    4  A    between atoms: C20_24  and  O2_25 
ROOT
HETATM    1  C6  UNL     1      30.113   7.450  48.107  1.00  0.00     0.044 C 
HETATM    2  N1  UNL     1      30.657   6.400  47.661  1.00  0.00    -0.254 NA
HETATM    3  C7  UNL     1      31.855   5.637  47.450  1.00  0.00     0.180 C 
HETATM    4  C8  UNL     1      31.558   4.288  47.005  1.00  0.00     0.031 C 
HETATM    5  C9  UNL     1      32.045   3.067  46.722  1.00  0.00     0.000 C 
HETATM    6  C10 UNL     1      33.413   2.542  46.784  1.00  0.00    -0.000 C 
HETATM    7  C11 UNL     1      34.553   3.015  47.313  1.00  0.00    -0.000 C 
HETATM    8  C12 UNL     1      34.900   4.234  48.037  1.00  0.00    -0.003 C 
HETATM    9  C13 UNL     1      34.133   5.234  48.444  1.00  0.00    -0.010 C 
HETATM   10  C14 UNL     1      32.823   5.836  48.535  1.00  0.00     0.134 C 
HETATM   11  C15 UNL     1      32.850   7.171  47.814  1.00  0.00     0.111 C 
HETATM   12  N2  UNL     1      32.876   6.387  46.750  1.00  0.00    -0.237 NA
HETATM   13  N3  UNL     1      32.837   8.536  48.283  1.00  0.00    -0.369 N 
HETATM   14  C16 UNL     1      31.690   9.243  48.826  1.00  0.00     0.121 C 
HETATM   15  C23 UNL     1      30.556   8.318  49.213  1.00  0.00     0.089 C 
HETATM   16  H13 UNL     1      33.630   9.245  48.316  1.00  0.00     0.161 HD
ENDROOT
BRANCH   1  17
HETATM   17  C5  UNL     1      28.884   7.786  47.382  1.00  0.00    -0.012 A 
HETATM   18  C4  UNL     1      28.926   8.151  46.054  1.00  0.00     0.016 A 
HETATM   19  C3  UNL     1      27.815   8.477  45.339  1.00  0.00     0.037 A 
HETATM   20  C2  UNL     1      26.553   8.459  45.924  1.00  0.00     0.068 A 
HETATM   21  C25 UNL     1      26.468   8.100  47.251  1.00  0.00     0.037 A 
HETATM   22  C24 UNL     1      27.623   7.779  47.928  1.00  0.00     0.016 A 
BRANCH  20  23
HETATM   23  O1  UNL     1      25.564   8.818  45.039  1.00  0.00    -0.356 OA
HETATM   24  C1  UNL     1      25.478   8.447  43.694  1.00  0.00     0.210 C 
ENDBRANCH  20  23
ENDBRANCH   1  17
BRANCH  14  25
HETATM   25  C17 UNL     1      31.229  10.327  47.943  1.00  0.00    -0.035 A 
HETATM   26  C18 UNL     1      31.743  10.544  46.660  1.00  0.00     0.012 A 
HETATM   27  C19 UNL     1      31.206  11.615  45.948  1.00  0.00     0.037 A 
HETATM   28  C20 UNL     1      30.224  12.431  46.458  1.00  0.00     0.065 A 
HETATM   29  C21 UNL     1      29.743  12.179  47.736  1.00  0.00     0.037 A 
HETATM   30  C22 UNL     1      30.243  11.128  48.481  1.00  0.00     0.012 A 
BRANCH  28  31
HETATM   31  O2  UNL     1      29.845  13.419  45.588  1.00  0.00    -0.361 OA
HETATM   32  H17 UNL     1      30.170  14.381  45.684  1.00  0.00     0.217 HD
ENDBRANCH  28  31
ENDBRANCH  14  25
TORSDOF 4
ENDMDL
MODEL 9
REMARK VINA RESULT:      -7.5      8.435     11.824
REMARK  4 active torsions:
REMARK  status: ('A' for Active; 'I' for Inactive)
REMARK    1  A    between atoms: O1_2  and  C2_3 
REMARK    2  A    between atoms: C5_6  and  C6_7 
REMARK    3  A    between atoms: C16_20  and  C17_21 
REMARK    4  A    between atoms: C20_24  and  O2_25 
ROOT
HETATM    1  C6  UNL     1      31.603   8.276  47.719  1.00  0.00     0.044 C 
HETATM    2  N1  UNL     1      30.452   8.520  47.259  1.00  0.00    -0.254 NA
HETATM    3  C7  UNL     1      29.036   8.286  47.316  1.00  0.00     0.180 C 
HETATM    4  C8  UNL     1      28.305   9.222  46.482  1.00  0.00     0.031 C 
HETATM    5  C9  UNL     1      27.101   9.687  46.107  1.00  0.00     0.000 C 
HETATM    6  C10 UNL     1      25.750   9.302  46.528  1.00  0.00    -0.000 C 
HETATM    7  C11 UNL     1      25.285   8.538  47.529  1.00  0.00    -0.000 C 
HETATM    8  C12 UNL     1      25.925   7.781  48.602  1.00  0.00    -0.003 C 
HETATM    9  C13 UNL     1      27.203   7.683  48.935  1.00  0.00    -0.010 C 
HETATM   10  C14 UNL     1      28.580   8.046  48.690  1.00  0.00     0.134 C 
HETATM   11  C15 UNL     1      29.365   6.786  48.373  1.00  0.00     0.111 C 
HETATM   12  N2  UNL     1      28.701   6.879  47.235  1.00  0.00    -0.237 NA
HETATM   13  N3  UNL     1      30.338   6.026  49.122  1.00  0.00    -0.369 N 
HETATM   14  C16 UNL     1      31.717   6.410  49.370  1.00  0.00     0.121 C 
HETATM   15  C23 UNL     1      31.982   7.872  49.086  1.00  0.00     0.089 C 
HETATM   16  H13 UNL     1      30.229   5.086  49.609  1.00  0.00     0.161 HD
ENDROOT
BRANCH   1  17
HETATM   17  C5  UNL     1      32.649   8.438  46.706  1.00  0.00    -0.012 A 
HETATM   18  C4  UNL     1      32.658   7.657  45.570  1.00  0.00     0.016 A 
HETATM   19  C3  UNL     1      33.608   7.765  44.603  1.00  0.00     0.037 A 
HETATM   20  C2  UNL     1      34.643   8.688  44.712  1.00  0.00     0.068 A 
HETATM   21  C25 UNL     1      34.670   9.489  45.833  1.00  0.00     0.037 A 
HETATM   22  C24 UNL     1      33.684   9.338  46.781  1.00  0.00     0.016 A 
BRANCH  20  23
HETATM   23  O1  UNL     1      35.497   8.642  43.636  1.00  0.00    -0.356 OA
HETATM   24  C1  UNL     1      35.453   7.729  42.578  1.00  0.00     0.210 C 
ENDBRANCH  20  23
ENDBRANCH   1  17
BRANCH  14  25
HETATM   25  C17 UNL     1      32.676   5.538  48.670  1.00  0.00    -0.035 A 
HETATM   26  C18 UNL     1      32.290   4.488  47.831  1.00  0.00     0.012 A 
HETATM   27  C19 UNL     1      33.317   3.751  47.245  1.00  0.00     0.037 A 
HETATM   28  C20 UNL     1      34.646   4.020  47.464  1.00  0.00     0.065 A 
HETATM   29  C21 UNL     1      34.985   5.072  48.305  1.00  0.00     0.037 A 
HETATM   30  C22 UNL     1      34.002   5.833  48.910  1.00  0.00     0.012 A 
BRANCH  28  31
HETATM   31  O2  UNL     1      35.482   3.171  46.788  1.00  0.00    -0.361 OA
HETATM   32  H17 UNL     1      36.319   3.501  46.308  1.00  0.00     0.217 HD
ENDBRANCH  28  31
ENDBRANCH  14  25
TORSDOF 4
ENDMDL
