MODEL 1
REMARK VINA RESULT:      -8.3      0.000      0.000
REMARK  4 active torsions:
REMARK  status: ('A' for Active; 'I' for Inactive)
REMARK    1  A    between atoms: C2_2  and  C3_3 
REMARK       I    between atoms: C3_3  and  N1_5 
REMARK    2  A    between atoms: C7_9  and  N2_10 
REMARK    3  A    between atoms: N2_10  and  C8_11 
REMARK    4  A    between atoms: C15_18  and  N3_19 
ROOT
HETATM    1  C3  UNL     1      27.882  -1.204  53.134  1.00  0.00     0.220 C 
HETATM    2  O1  UNL     1      26.885  -1.993  53.276  1.00  0.00    -0.273 OA
HETATM    3  N1  UNL     1      27.132  -0.036  52.823  1.00  0.00    -0.342 N 
HETATM    4  C4  UNL     1      25.743  -0.444  52.866  1.00  0.00     0.154 C 
HETATM    5  C5  UNL     1      24.800   0.700  52.660  1.00  0.00     0.005 C 
HETATM    6  C6  UNL     1      25.027   1.785  51.937  1.00  0.00    -0.005 A 
HETATM    7  C7  UNL     1      24.115   2.902  51.732  1.00  0.00     0.063 A 
HETATM    8  C15 UNL     1      24.601   3.891  50.998  1.00  0.00     0.046 A 
HETATM    9  C17 UNL     1      25.946   3.831  50.436  1.00  0.00     0.136 A 
HETATM   10  N4  UNL     1      26.766   2.847  50.588  1.00  0.00    -0.288 NA
HETATM   11  C18 UNL     1      26.412   1.687  51.348  1.00  0.00     0.165 A 
HETATM   12  C19 UNL     1      27.358   1.379  52.490  1.00  0.00     0.112 C 
HETATM   13  C20 UNL     1      27.150   2.277  53.682  1.00  0.00     0.035 C 
ENDROOT
BRANCH   7  14
HETATM   14  N2  UNL     1      22.833   2.799  52.333  1.00  0.00    -0.354 N 
HETATM   15  H7  UNL     1      22.746   3.425  53.164  1.00  0.00     0.166 HD
BRANCH  14  16
HETATM   16  C8  UNL     1      21.793   1.949  51.867  1.00  0.00     0.033 A 
HETATM   17  C9  UNL     1      21.517   1.964  50.516  1.00  0.00     0.029 A 
HETATM   18  C10 UNL     1      20.502   1.127  50.094  1.00  0.00     0.003 A 
HETATM   19  C11 UNL     1      19.827   0.334  51.026  1.00  0.00     0.007 A 
HETATM   20  C12 UNL     1      20.124   0.337  52.382  1.00  0.00    -0.060 A 
HETATM   21  C13 UNL     1      19.335  -0.550  53.252  1.00  0.00     0.048 C 
HETATM   22  C14 UNL     1      21.150   1.180  52.812  1.00  0.00     0.036 A 
ENDBRANCH  14  16
ENDBRANCH   7  14
BRANCH   8  23
HETATM   23  N3  UNL     1      23.713   4.981  50.801  1.00  0.00    -0.306 NA
HETATM   24  C16 UNL     1      23.914   6.184  51.196  1.00  0.00     0.260 C 
ENDBRANCH   8  23
BRANCH   1  25
HETATM   25  C2  UNL     1      29.273  -1.588  53.288  1.00  0.00     0.061 C 
HETATM   26  C1  UNL     1      30.289  -0.852  53.762  1.00  0.00     0.051 C 
ENDBRANCH   1  25
TORSDOF 4
ENDMDL
MODEL 2
REMARK VINA RESULT:      -8.1      2.447      6.835
REMARK  4 active torsions:
REMARK  status: ('A' for Active; 'I' for Inactive)
REMARK    1  A    between atoms: C2_2  and  C3_3 
REMARK       I    between atoms: C3_3  and  N1_5 
REMARK    2  A    between atoms: C7_9  and  N2_10 
REMARK    3  A    between atoms: N2_10  and  C8_11 
REMARK    4  A    between atoms: C15_18  and  N3_19 
ROOT
HETATM    1  C3  UNL     1      24.630   5.008  49.177  1.00  0.00     0.220 C 
HETATM    2  O1  UNL     1      25.891   4.797  49.119  1.00  0.00    -0.273 OA
HETATM    3  N1  UNL     1      24.340   4.039  50.177  1.00  0.00    -0.342 N 
HETATM    4  C4  UNL     1      25.614   3.435  50.511  1.00  0.00     0.154 C 
HETATM    5  C5  UNL     1      25.508   2.452  51.636  1.00  0.00     0.005 C 
HETATM    6  C6  UNL     1      24.456   1.705  51.929  1.00  0.00    -0.005 A 
HETATM    7  C7  UNL     1      24.344   0.746  53.021  1.00  0.00     0.063 A 
HETATM    8  C15 UNL     1      23.164   0.156  53.125  1.00  0.00     0.046 A 
HETATM    9  C17 UNL     1      22.082   0.449  52.193  1.00  0.00     0.136 A 
HETATM   10  N4  UNL     1      22.160   1.279  51.208  1.00  0.00    -0.288 NA
HETATM   11  C18 UNL     1      23.361   2.008  50.937  1.00  0.00     0.165 A 
HETATM   12  C19 UNL     1      23.185   3.512  50.919  1.00  0.00     0.112 C 
HETATM   13  C20 UNL     1      23.084   4.108  52.300  1.00  0.00     0.035 C 
ENDROOT
BRANCH   7  14
HETATM   14  N2  UNL     1      25.497   0.563  53.829  1.00  0.00    -0.354 N 
HETATM   15  H7  UNL     1      25.451   1.136  54.700  1.00  0.00     0.166 HD
BRANCH  14  16
HETATM   16  C8  UNL     1      26.583  -0.294  53.498  1.00  0.00     0.033 A 
HETATM   17  C9  UNL     1      26.282  -1.496  52.894  1.00  0.00     0.029 A 
HETATM   18  C10 UNL     1      27.358  -2.305  52.585  1.00  0.00     0.003 A 
HETATM   19  C11 UNL     1      28.653  -1.881  52.890  1.00  0.00     0.007 A 
HETATM   20  C12 UNL     1      28.930  -0.664  53.499  1.00  0.00    -0.060 A 
HETATM   21  C13 UNL     1      30.342  -0.342  53.762  1.00  0.00     0.048 C 
HETATM   22  C14 UNL     1      27.846   0.157  53.812  1.00  0.00     0.036 A 
ENDBRANCH  14  16
ENDBRANCH   7  14
BRANCH   8  23
HETATM   23  N3  UNL     1      23.056  -0.775  54.192  1.00  0.00    -0.306 NA
HETATM   24  C16 UNL     1      22.014  -0.955  54.917  1.00  0.00     0.260 C 
ENDBRANCH   8  23
BRANCH   1  25
HETATM   25  C2  UNL     1      23.915   5.985  48.377  1.00  0.00     0.061 C 
HETATM   26  C1  UNL     1      22.961   5.768  47.459  1.00  0.00     0.051 C 
ENDBRANCH   1  25
TORSDOF 4
ENDMDL
MODEL 3
REMARK VINA RESULT:      -8.1      1.809      6.396
REMARK  4 active torsions:
REMARK  status: ('A' for Active; 'I' for Inactive)
REMARK    1  A    between atoms: C2_2  and  C3_3 
REMARK       I    between atoms: C3_3  and  N1_5 
REMARK    2  A    between atoms: C7_9  and  N2_10 
REMARK    3  A    between atoms: N2_10  and  C8_11 
REMARK    4  A    between atoms: C15_18  and  N3_19 
ROOT
HETATM    1  C3  UNL     1      20.455  -0.924  53.670  1.00  0.00     0.220 C 
HETATM    2  O1  UNL     1      21.291  -1.671  54.286  1.00  0.00    -0.273 OA
HETATM    3  N1  UNL     1      21.413  -0.110  53.004  1.00  0.00    -0.342 N 
HETATM    4  C4  UNL     1      22.706  -0.619  53.413  1.00  0.00     0.154 C 
HETATM    5  C5  UNL     1      23.841   0.066  52.717  1.00  0.00     0.005 C 
HETATM    6  C6  UNL     1      23.859   1.317  52.288  1.00  0.00    -0.005 A 
HETATM    7  C7  UNL     1      24.959   1.991  51.610  1.00  0.00     0.063 A 
HETATM    8  C15 UNL     1      24.706   3.237  51.242  1.00  0.00     0.046 A 
HETATM    9  C17 UNL     1      23.422   3.868  51.522  1.00  0.00     0.136 A 
HETATM   10  N4  UNL     1      22.439   3.301  52.135  1.00  0.00    -0.288 NA
HETATM   11  C18 UNL     1      22.530   1.954  52.612  1.00  0.00     0.165 A 
HETATM   12  C19 UNL     1      21.456   1.031  52.077  1.00  0.00     0.112 C 
HETATM   13  C20 UNL     1      21.711   0.593  50.657  1.00  0.00     0.035 C 
ENDROOT
BRANCH   7  14
HETATM   14  N2  UNL     1      26.151   1.242  51.429  1.00  0.00    -0.354 N 
HETATM   15  H7  UNL     1      26.153   0.736  50.516  1.00  0.00     0.166 HD
BRANCH  14  16
HETATM   16  C8  UNL     1      27.215   1.184  52.371  1.00  0.00     0.033 A 
HETATM   17  C9  UNL     1      27.566   2.357  53.006  1.00  0.00     0.029 A 
HETATM   18  C10 UNL     1      28.602   2.268  53.916  1.00  0.00     0.003 A 
HETATM   19  C11 UNL     1      29.223   1.037  54.139  1.00  0.00     0.007 A 
HETATM   20  C12 UNL     1      28.851  -0.131  53.486  1.00  0.00    -0.060 A 
HETATM   21  C13 UNL     1      29.589  -1.360  53.817  1.00  0.00     0.048 C 
HETATM   22  C14 UNL     1      27.803  -0.046  52.567  1.00  0.00     0.036 A 
ENDBRANCH  14  16
ENDBRANCH   7  14
BRANCH   8  23
HETATM   23  N3  UNL     1      25.778   3.891  50.579  1.00  0.00    -0.306 NA
HETATM   24  C16 UNL     1      25.653   4.740  49.626  1.00  0.00     0.260 C 
ENDBRANCH   8  23
BRANCH   1  25
HETATM   25  C2  UNL     1      19.013  -1.041  53.763  1.00  0.00     0.061 C 
HETATM   26  C1  UNL     1      18.112  -1.012  52.770  1.00  0.00     0.051 C 
ENDBRANCH   1  25
TORSDOF 4
ENDMDL
MODEL 4
REMARK VINA RESULT:      -8.0      2.002      4.078
REMARK  4 active torsions:
REMARK  status: ('A' for Active; 'I' for Inactive)
REMARK    1  A    between atoms: C2_2  and  C3_3 
REMARK       I    between atoms: C3_3  and  N1_5 
REMARK    2  A    between atoms: C7_9  and  N2_10 
REMARK    3  A    between atoms: N2_10  and  C8_11 
REMARK    4  A    between atoms: C15_18  and  N3_19 
ROOT
HETATM    1  C3  UNL     1      28.870   1.054  53.858  1.00  0.00     0.220 C 
HETATM    2  O1  UNL     1      28.891   2.306  54.122  1.00  0.00    -0.273 OA
HETATM    3  N1  UNL     1      27.488   0.973  53.528  1.00  0.00    -0.342 N 
HETATM    4  C4  UNL     1      26.974   2.319  53.680  1.00  0.00     0.154 C 
HETATM    5  C5  UNL     1      25.539   2.436  53.269  1.00  0.00     0.005 C 
HETATM    6  C6  UNL     1      24.619   1.489  53.348  1.00  0.00    -0.005 A 
HETATM    7  C7  UNL     1      23.221   1.595  52.950  1.00  0.00     0.063 A 
HETATM    8  C15 UNL     1      22.517   0.483  53.090  1.00  0.00     0.046 A 
HETATM    9  C17 UNL     1      23.115  -0.736  53.621  1.00  0.00     0.136 A 
HETATM   10  N4  UNL     1      24.344  -0.852  53.997  1.00  0.00    -0.288 NA
HETATM   11  C18 UNL     1      25.257   0.248  53.923  1.00  0.00     0.165 A 
HETATM   12  C19 UNL     1      26.500  -0.030  53.104  1.00  0.00     0.112 C 
HETATM   13  C20 UNL     1      26.248   0.022  51.619  1.00  0.00     0.035 C 
ENDROOT
BRANCH   7  14
HETATM   14  N2  UNL     1      22.789   2.859  52.468  1.00  0.00    -0.354 N 
HETATM   15  H7  UNL     1      22.303   3.408  53.210  1.00  0.00     0.166 HD
BRANCH  14  16
HETATM   16  C8  UNL     1      22.991   3.323  51.139  1.00  0.00     0.033 A 
HETATM   17  C9  UNL     1      23.498   4.596  50.981  1.00  0.00     0.029 A 
HETATM   18  C10 UNL     1      23.683   5.018  49.679  1.00  0.00     0.003 A 
HETATM   19  C11 UNL     1      23.358   4.164  48.622  1.00  0.00     0.007 A 
HETATM   20  C12 UNL     1      22.849   2.886  48.808  1.00  0.00    -0.060 A 
HETATM   21  C13 UNL     1      22.550   2.092  47.605  1.00  0.00     0.048 C 
HETATM   22  C14 UNL     1      22.661   2.455  50.122  1.00  0.00     0.036 A 
ENDBRANCH  14  16
ENDBRANCH   7  14
BRANCH   8  23
HETATM   23  N3  UNL     1      21.156   0.587  52.699  1.00  0.00    -0.306 NA
HETATM   24  C16 UNL     1      20.171   0.001  53.275  1.00  0.00     0.260 C 
ENDBRANCH   8  23
BRANCH   1  25
HETATM   25  C2  UNL     1      30.018   0.171  53.935  1.00  0.00     0.061 C 
HETATM   26  C1  UNL     1      30.059  -1.155  53.738  1.00  0.00     0.051 C 
ENDBRANCH   1  25
TORSDOF 4
ENDMDL
MODEL 5
REMARK VINA RESULT:      -7.5      1.758      2.329
REMARK  4 active torsions:
REMARK  status: ('A' for Active; 'I' for Inactive)
REMARK    1  A    between atoms: C2_2  and  C3_3 
REMARK       I    between atoms: C3_3  and  N1_5 
REMARK    2  A    between atoms: C7_9  and  N2_10 
REMARK    3  A    between atoms: N2_10  and  C8_11 
REMARK    4  A    between atoms: C15_18  and  N3_19 
ROOT
HETATM    1  C3  UNL     1      26.711  -0.386  53.476  1.00  0.00     0.220 C 
HETATM    2  O1  UNL     1      26.008  -1.368  53.901  1.00  0.00    -0.273 OA
HETATM    3  N1  UNL     1      25.624   0.450  53.098  1.00  0.00    -0.342 N 
HETATM    4  C4  UNL     1      24.427  -0.298  53.425  1.00  0.00     0.154 C 
HETATM    5  C5  UNL     1      23.175   0.486  53.183  1.00  0.00     0.005 C 
HETATM    6  C6  UNL     1      22.999   1.422  52.265  1.00  0.00    -0.005 A 
HETATM    7  C7  UNL     1      21.783   2.189  52.023  1.00  0.00     0.063 A 
HETATM    8  C15 UNL     1      21.881   3.101  51.069  1.00  0.00     0.046 A 
HETATM    9  C17 UNL     1      23.119   3.291  50.321  1.00  0.00     0.136 A 
HETATM   10  N4  UNL     1      24.202   2.614  50.503  1.00  0.00    -0.288 NA
HETATM   11  C18 UNL     1      24.283   1.581  51.490  1.00  0.00     0.165 A 
HETATM   12  C19 UNL     1      25.390   1.775  52.504  1.00  0.00     0.112 C 
HETATM   13  C20 UNL     1      25.054   2.808  53.550  1.00  0.00     0.035 C 
ENDROOT
BRANCH   7  14
HETATM   14  N2  UNL     1      20.657   1.870  52.827  1.00  0.00    -0.354 N 
HETATM   15  H7  UNL     1      20.664   2.401  53.726  1.00  0.00     0.166 HD
BRANCH  14  16
HETATM   16  C8  UNL     1      19.643   0.944  52.459  1.00  0.00     0.033 A 
HETATM   17  C9  UNL     1      18.917   1.217  51.319  1.00  0.00     0.029 A 
HETATM   18  C10 UNL     1      17.939   0.299  50.988  1.00  0.00     0.003 A 
HETATM   19  C11 UNL     1      17.741  -0.823  51.797  1.00  0.00     0.007 A 
HETATM   20  C12 UNL     1      18.487  -1.075  52.940  1.00  0.00    -0.060 A 
HETATM   21  C13 UNL     1      18.173  -2.296  53.700  1.00  0.00     0.048 C 
HETATM   22  C14 UNL     1      19.476  -0.150  53.278  1.00  0.00     0.036 A 
ENDBRANCH  14  16
ENDBRANCH   7  14
BRANCH   8  23
HETATM   23  N3  UNL     1      20.698   3.850  50.837  1.00  0.00    -0.306 NA
HETATM   24  C16 UNL     1      20.643   5.120  50.668  1.00  0.00     0.260 C 
ENDBRANCH   8  23
BRANCH   1  25
HETATM   25  C2  UNL     1      28.161  -0.345  53.472  1.00  0.00     0.061 C 
HETATM   26  C1  UNL     1      28.966   0.575  54.022  1.00  0.00     0.051 C 
ENDBRANCH   1  25
TORSDOF 4
ENDMDL
MODEL 6
REMARK VINA RESULT:      -7.4      3.085      5.050
REMARK  4 active torsions:
REMARK  status: ('A' for Active; 'I' for Inactive)
REMARK    1  A    between atoms: C2_2  and  C3_3 
REMARK       I    between atoms: C3_3  and  N1_5 
REMARK    2  A    between atoms: C7_9  and  N2_10 
REMARK    3  A    between atoms: N2_10  and  C8_11 
REMARK    4  A    between atoms: C15_18  and  N3_19 
ROOT
HETATM    1  C3  UNL     1      26.352   3.656  49.885  1.00  0.00     0.220 C 
HETATM    2  O1  UNL     1      26.751   3.019  50.920  1.00  0.00    -0.273 OA
HETATM    3  N1  UNL     1      24.963   3.399  50.050  1.00  0.00    -0.342 N 
HETATM    4  C4  UNL     1      24.857   2.606  51.258  1.00  0.00     0.154 C 
HETATM    5  C5  UNL     1      23.436   2.329  51.641  1.00  0.00     0.005 C 
HETATM    6  C6  UNL     1      22.410   2.206  50.816  1.00  0.00    -0.005 A 
HETATM    7  C7  UNL     1      21.025   1.936  51.180  1.00  0.00     0.063 A 
HETATM    8  C15 UNL     1      20.178   1.903  50.164  1.00  0.00     0.046 A 
HETATM    9  C17 UNL     1      20.627   2.108  48.792  1.00  0.00     0.136 A 
HETATM   10  N4  UNL     1      21.848   2.331  48.440  1.00  0.00    -0.288 NA
HETATM   11  C18 UNL     1      22.904   2.396  49.403  1.00  0.00     0.165 A 
HETATM   12  C19 UNL     1      23.687   3.693  49.380  1.00  0.00     0.112 C 
HETATM   13  C20 UNL     1      22.954   4.832  50.041  1.00  0.00     0.035 C 
ENDROOT
BRANCH   7  14
HETATM   14  N2  UNL     1      20.755   1.743  52.561  1.00  0.00    -0.354 N 
HETATM   15  H7  UNL     1      20.436   2.626  53.017  1.00  0.00     0.166 HD
BRANCH  14  16
HETATM   16  C8  UNL     1      20.900   0.503  53.242  1.00  0.00     0.033 A 
HETATM   17  C9  UNL     1      19.855  -0.393  53.160  1.00  0.00     0.029 A 
HETATM   18  C10 UNL     1      20.027  -1.588  53.833  1.00  0.00     0.003 A 
HETATM   19  C11 UNL     1      21.209  -1.821  54.539  1.00  0.00     0.007 A 
HETATM   20  C12 UNL     1      22.247  -0.901  54.606  1.00  0.00    -0.060 A 
HETATM   21  C13 UNL     1      23.438  -1.276  55.386  1.00  0.00     0.048 C 
HETATM   22  C14 UNL     1      22.078   0.307  53.928  1.00  0.00     0.036 A 
ENDBRANCH  14  16
ENDBRANCH   7  14
BRANCH   8  23
HETATM   23  N3  UNL     1      18.828   1.644  50.521  1.00  0.00    -0.306 NA
HETATM   24  C16 UNL     1      18.119   0.670  50.082  1.00  0.00     0.260 C 
ENDBRANCH   8  23
BRANCH   1  25
HETATM   25  C2  UNL     1      27.220   4.358  48.957  1.00  0.00     0.061 C 
HETATM   26  C1  UNL     1      27.168   5.644  48.582  1.00  0.00     0.051 C 
ENDBRANCH   1  25
TORSDOF 4
ENDMDL
MODEL 7
REMARK VINA RESULT:      -7.2      7.550     11.262
REMARK  4 active torsions:
REMARK  status: ('A' for Active; 'I' for Inactive)
REMARK    1  A    between atoms: C2_2  and  C3_3 
REMARK       I    between atoms: C3_3  and  N1_5 
REMARK    2  A    between atoms: C7_9  and  N2_10 
REMARK    3  A    between atoms: N2_10  and  C8_11 
REMARK    4  A    between atoms: C15_18  and  N3_19 
ROOT
HETATM    1  C3  UNL     1      26.929   5.392  48.771  1.00  0.00     0.220 C 
HETATM    2  O1  UNL     1      27.631   4.322  48.764  1.00  0.00    -0.273 OA
HETATM    3  N1  UNL     1      27.968   6.280  48.375  1.00  0.00    -0.342 N 
HETATM    4  C4  UNL     1      29.143   5.450  48.203  1.00  0.00     0.154 C 
HETATM    5  C5  UNL     1      30.318   6.217  47.681  1.00  0.00     0.005 C 
HETATM    6  C6  UNL     1      30.580   7.495  47.898  1.00  0.00    -0.005 A 
HETATM    7  C7  UNL     1      31.721   8.249  47.395  1.00  0.00     0.063 A 
HETATM    8  C15 UNL     1      31.729   9.532  47.721  1.00  0.00     0.046 A 
HETATM    9  C17 UNL     1      30.672  10.116  48.538  1.00  0.00     0.136 A 
HETATM   10  N4  UNL     1      29.661   9.468  49.011  1.00  0.00    -0.288 NA
HETATM   11  C18 UNL     1      29.487   8.069  48.765  1.00  0.00     0.165 A 
HETATM   12  C19 UNL     1      28.170   7.712  48.109  1.00  0.00     0.112 C 
HETATM   13  C20 UNL     1      28.147   8.019  46.633  1.00  0.00     0.035 C 
ENDROOT
BRANCH   7  14
HETATM   14  N2  UNL     1      32.674   7.528  46.627  1.00  0.00    -0.354 N 
HETATM   15  H7  UNL     1      32.668   7.829  45.627  1.00  0.00     0.166 HD
BRANCH  14  16
HETATM   16  C8  UNL     1      33.530   6.520  47.149  1.00  0.00     0.033 A 
HETATM   17  C9  UNL     1      34.047   6.717  48.412  1.00  0.00     0.029 A 
HETATM   18  C10 UNL     1      34.875   5.720  48.891  1.00  0.00     0.003 A 
HETATM   19  C11 UNL     1      35.139   4.600  48.099  1.00  0.00     0.007 A 
HETATM   20  C12 UNL     1      34.605   4.425  46.829  1.00  0.00    -0.060 A 
HETATM   21  C13 UNL     1      34.966   3.196  46.104  1.00  0.00     0.048 C 
HETATM   22  C14 UNL     1      33.768   5.430  46.342  1.00  0.00     0.036 A 
ENDBRANCH  14  16
ENDBRANCH   7  14
BRANCH   8  23
HETATM   23  N3  UNL     1      32.840  10.265  47.227  1.00  0.00    -0.306 NA
HETATM   24  C16 UNL     1      32.906  11.543  47.139  1.00  0.00     0.260 C 
ENDBRANCH   8  23
BRANCH   1  25
HETATM   25  C2  UNL     1      25.521   5.458  49.112  1.00  0.00     0.061 C 
HETATM   26  C1  UNL     1      24.547   6.135  48.487  1.00  0.00     0.051 C 
ENDBRANCH   1  25
TORSDOF 4
ENDMDL
MODEL 8
REMARK VINA RESULT:      -7.1      3.180      6.325
REMARK  4 active torsions:
REMARK  status: ('A' for Active; 'I' for Inactive)
REMARK    1  A    between atoms: C2_2  and  C3_3 
REMARK       I    between atoms: C3_3  and  N1_5 
REMARK    2  A    between atoms: C7_9  and  N2_10 
REMARK    3  A    between atoms: N2_10  and  C8_11 
REMARK    4  A    between atoms: C15_18  and  N3_19 
ROOT
HETATM    1  C3  UNL     1      23.376   0.369  53.192  1.00  0.00     0.220 C 
HETATM    2  O1  UNL     1      24.336   0.701  53.970  1.00  0.00    -0.273 OA
HETATM    3  N1  UNL     1      23.220   1.635  52.564  1.00  0.00    -0.342 N 
HETATM    4  C4  UNL     1      24.219   2.493  53.167  1.00  0.00     0.154 C 
HETATM    5  C5  UNL     1      24.264   3.853  52.542  1.00  0.00     0.005 C 
HETATM    6  C6  UNL     1      23.247   4.500  51.997  1.00  0.00    -0.005 A 
HETATM    7  C7  UNL     1      23.281   5.823  51.387  1.00  0.00     0.063 A 
HETATM    8  C15 UNL     1      22.132   6.229  50.871  1.00  0.00     0.046 A 
HETATM    9  C17 UNL     1      20.933   5.401  50.939  1.00  0.00     0.136 A 
HETATM   10  N4  UNL     1      20.871   4.235  51.488  1.00  0.00    -0.288 NA
HETATM   11  C18 UNL     1      22.016   3.635  52.102  1.00  0.00     0.165 A 
HETATM   12  C19 UNL     1      22.381   2.277  51.540  1.00  0.00     0.112 C 
HETATM   13  C20 UNL     1      23.084   2.362  50.209  1.00  0.00     0.035 C 
ENDROOT
BRANCH   7  14
HETATM   14  N2  UNL     1      24.525   6.508  51.418  1.00  0.00    -0.354 N 
HETATM   15  H7  UNL     1      24.654   7.029  52.314  1.00  0.00     0.166 HD
BRANCH  14  16
HETATM   16  C8  UNL     1      25.478   6.491  50.364  1.00  0.00     0.033 A 
HETATM   17  C9  UNL     1      25.728   5.281  49.753  1.00  0.00     0.029 A 
HETATM   18  C10 UNL     1      26.659   5.298  48.732  1.00  0.00     0.003 A 
HETATM   19  C11 UNL     1      27.280   6.499  48.381  1.00  0.00     0.007 A 
HETATM   20  C12 UNL     1      27.011   7.705  49.013  1.00  0.00    -0.060 A 
HETATM   21  C13 UNL     1      27.737   8.896  48.542  1.00  0.00     0.048 C 
HETATM   22  C14 UNL     1      26.070   7.693  50.044  1.00  0.00     0.036 A 
ENDBRANCH  14  16
ENDBRANCH   7  14
BRANCH   8  23
HETATM   23  N3  UNL     1      22.167   7.517  50.275  1.00  0.00    -0.306 NA
HETATM   24  C16 UNL     1      21.141   8.224  49.973  1.00  0.00     0.260 C 
ENDBRANCH   8  23
BRANCH   1  25
HETATM   25  C2  UNL     1      22.778  -0.952  53.130  1.00  0.00     0.061 C 
HETATM   26  C1  UNL     1      21.790  -1.451  53.886  1.00  0.00     0.051 C 
ENDBRANCH   1  25
TORSDOF 4
ENDMDL
MODEL 9
REMARK VINA RESULT:      -7.0      6.032      7.991
REMARK  4 active torsions:
REMARK  status: ('A' for Active; 'I' for Inactive)
REMARK    1  A    between atoms: C2_2  and  C3_3 
REMARK       I    between atoms: C3_3  and  N1_5 
REMARK    2  A    between atoms: C7_9  and  N2_10 
REMARK    3  A    between atoms: N2_10  and  C8_11 
REMARK    4  A    between atoms: C15_18  and  N3_19 
ROOT
HETATM    1  C3  UNL     1      32.467   4.883  46.987  1.00  0.00     0.220 C 
HETATM    2  O1  UNL     1      31.668   3.885  47.033  1.00  0.00    -0.273 OA
HETATM    3  N1  UNL     1      31.558   5.853  47.494  1.00  0.00    -0.342 N 
HETATM    4  C4  UNL     1      30.327   5.133  47.751  1.00  0.00     0.154 C 
HETATM    5  C5  UNL     1      29.282   5.992  48.392  1.00  0.00     0.005 C 
HETATM    6  C6  UNL     1      29.127   7.296  48.227  1.00  0.00    -0.005 A 
HETATM    7  C7  UNL     1      28.112   8.138  48.846  1.00  0.00     0.063 A 
HETATM    8  C15 UNL     1      28.201   9.425  48.551  1.00  0.00     0.046 A 
HETATM    9  C17 UNL     1      29.235   9.931  47.656  1.00  0.00     0.136 A 
HETATM   10  N4  UNL     1      30.134   9.205  47.081  1.00  0.00    -0.288 NA
HETATM   11  C18 UNL     1      30.192   7.789  47.279  1.00  0.00     0.165 A 
HETATM   12  C19 UNL     1      31.520   7.289  47.808  1.00  0.00     0.112 C 
HETATM   13  C20 UNL     1      31.699   7.547  49.282  1.00  0.00     0.035 C 
ENDROOT
BRANCH   7  14
HETATM   14  N2  UNL     1      27.164   7.488  49.679  1.00  0.00    -0.354 N 
HETATM   15  H7  UNL     1      27.415   7.576  50.689  1.00  0.00     0.166 HD
BRANCH  14  16
HETATM   16  C8  UNL     1      26.014   6.800  49.204  1.00  0.00     0.033 A 
HETATM   17  C9  UNL     1      25.155   7.493  48.378  1.00  0.00     0.029 A 
HETATM   18  C10 UNL     1      24.048   6.798  47.932  1.00  0.00     0.003 A 
HETATM   19  C11 UNL     1      23.859   5.471  48.327  1.00  0.00     0.007 A 
HETATM   20  C12 UNL     1      24.740   4.795  49.160  1.00  0.00    -0.060 A 
HETATM   21  C13 UNL     1      24.420   3.398  49.496  1.00  0.00     0.048 C 
HETATM   22  C14 UNL     1      25.860   5.493  49.612  1.00  0.00     0.036 A 
ENDBRANCH  14  16
ENDBRANCH   7  14
BRANCH   8  23
HETATM   23  N3  UNL     1      27.213  10.246  49.157  1.00  0.00    -0.306 NA
HETATM   24  C16 UNL     1      26.363  10.971  48.529  1.00  0.00     0.260 C 
ENDBRANCH   8  23
BRANCH   1  25
HETATM   25  C2  UNL     1      33.841   4.825  46.525  1.00  0.00     0.061 C 
HETATM   26  C1  UNL     1      34.569   3.741  46.221  1.00  0.00     0.051 C 
ENDBRANCH   1  25
TORSDOF 4
ENDMDL
