MODEL 1
REMARK VINA RESULT:      -7.4      0.000      0.000
REMARK  10 active torsions:
REMARK  status: ('A' for Active; 'I' for Inactive)
REMARK    1  A    between atoms: C2_2  and  C3_3 
REMARK    2  A    between atoms: C2_2  and  N2_8 
REMARK    3  A    between atoms: C3_3  and  N1_4 
REMARK    4  A    between atoms: N2_8  and  C7_9 
REMARK    5  A    between atoms: C9_13  and  N5_14 
REMARK    6  A    between atoms: C10_15  and  C11_16 
REMARK    7  A    between atoms: C11_16  and  C12_17 
REMARK    8  A    between atoms: C11_16  and  C15_20 
REMARK    9  A    between atoms: C12_17  and  C13_18 
REMARK   10  A    between atoms: C19_24  and  O1_25 
ROOT
HETATM    1  C7  UNL     1      23.491  -0.096  53.246  1.00  0.00     0.144 A 
HETATM    2  N3  UNL     1      23.371  -0.809  54.377  1.00  0.00    -0.223 NA
HETATM    3  C8  UNL     1      22.218  -1.121  54.951  1.00  0.00     0.237 A 
HETATM    4  N4  UNL     1      21.117  -0.671  54.324  1.00  0.00    -0.224 NA
HETATM    5  C9  UNL     1      21.216   0.043  53.195  1.00  0.00     0.137 A 
HETATM    6  C10 UNL     1      22.392   0.376  52.582  1.00  0.00     0.066 A 
ENDROOT
BRANCH   6   7
HETATM    7  C11 UNL     1      22.367   1.262  51.437  1.00  0.00    -0.012 C 
BRANCH   7   8
HETATM    8  C12 UNL     1      22.026   1.031  50.176  1.00  0.00    -0.014 C 
BRANCH   8   9
HETATM    9  C13 UNL     1      21.462   1.023  48.841  1.00  0.00     0.023 C 
HETATM   10  C14 UNL     1      22.232   1.858  47.836  1.00  0.00     0.009 C 
ENDBRANCH   8   9
ENDBRANCH   7   8
BRANCH   7  11
HETATM   11  C15 UNL     1      22.713   2.672  51.563  1.00  0.00    -0.022 A 
HETATM   12  C16 UNL     1      22.088   3.640  52.274  1.00  0.00     0.012 A 
HETATM   13  C17 UNL     1      22.507   4.929  52.474  1.00  0.00     0.004 A 
HETATM   14  C18 UNL     1      23.692   5.334  51.905  1.00  0.00     0.036 A 
HETATM   15  C19 UNL     1      24.415   4.434  51.161  1.00  0.00     0.066 A 
HETATM   16  C20 UNL     1      23.912   3.161  51.018  1.00  0.00     0.048 A 
BRANCH  15  17
HETATM   17  O1  UNL     1      25.602   4.871  50.602  1.00  0.00    -0.361 OA
HETATM   18  H24 UNL     1      25.625   5.648  49.929  1.00  0.00     0.217 HD
ENDBRANCH  15  17
ENDBRANCH   7  11
ENDBRANCH   6   7
BRANCH   1  19
HETATM   19  N2  UNL     1      24.786   0.129  52.763  1.00  0.00    -0.343 N 
HETATM   20  H11 UNL     1      25.335  -0.097  51.876  1.00  0.00     0.167 HD
BRANCH  19  21
HETATM   21  C2  UNL     1      25.727   0.859  53.565  1.00  0.00     0.029 C 
HETATM   22  C1  UNL     1      25.728   2.185  53.797  1.00  0.00     0.040 C 
BRANCH  21  23
HETATM   23  C3  UNL     1      26.792   0.070  54.187  1.00  0.00     0.328 C 
BRANCH  23  24
HETATM   24  N1  UNL     1      28.001   0.014  53.402  1.00  0.00     0.094 N 
HETATM   25  C4  UNL     1      28.565  -1.297  53.174  1.00  0.00     0.274 C 
HETATM   26  C5  UNL     1      29.881  -0.808  53.691  1.00  0.00     0.060 C 
HETATM   27  C6  UNL     1      29.148   0.406  54.194  1.00  0.00     0.274 C 
ENDBRANCH  23  24
ENDBRANCH  21  23
ENDBRANCH  19  21
ENDBRANCH   1  19
BRANCH   5  28
HETATM   28  N5  UNL     1      19.927   0.478  52.795  1.00  0.00    -0.383 N 
HETATM   29  H13 UNL     1      19.009   0.830  52.512  1.00  0.00     0.157 HD
HETATM   30  H14 UNL     1      19.774   1.535  52.820  1.00  0.00     0.157 HD
ENDBRANCH   5  28
TORSDOF 10
ENDMDL
MODEL 2
REMARK VINA RESULT:      -7.1      1.393      1.983
REMARK  10 active torsions:
REMARK  status: ('A' for Active; 'I' for Inactive)
REMARK    1  A    between atoms: C2_2  and  C3_3 
REMARK    2  A    between atoms: C2_2  and  N2_8 
REMARK    3  A    between atoms: C3_3  and  N1_4 
REMARK    4  A    between atoms: N2_8  and  C7_9 
REMARK    5  A    between atoms: C9_13  and  N5_14 
REMARK    6  A    between atoms: C10_15  and  C11_16 
REMARK    7  A    between atoms: C11_16  and  C12_17 
REMARK    8  A    between atoms: C11_16  and  C15_20 
REMARK    9  A    between atoms: C12_17  and  C13_18 
REMARK   10  A    between atoms: C19_24  and  O1_25 
ROOT
HETATM    1  C7  UNL     1      24.258  -0.304  53.619  1.00  0.00     0.144 A 
HETATM    2  N3  UNL     1      24.656  -0.940  54.733  1.00  0.00    -0.223 NA
HETATM    3  C8  UNL     1      23.840  -1.394  55.671  1.00  0.00     0.237 A 
HETATM    4  N4  UNL     1      22.530  -1.182  55.456  1.00  0.00    -0.224 NA
HETATM    5  C9  UNL     1      22.113  -0.547  54.351  1.00  0.00     0.137 A 
HETATM    6  C10 UNL     1      22.935  -0.071  53.367  1.00  0.00     0.066 A 
ENDROOT
BRANCH   6   7
HETATM    7  C11 UNL     1      22.366   0.709  52.288  1.00  0.00    -0.012 C 
BRANCH   7   8
HETATM    8  C12 UNL     1      21.261   0.523  51.579  1.00  0.00    -0.014 C 
BRANCH   8   9
HETATM    9  C13 UNL     1      20.101   0.616  50.715  1.00  0.00     0.023 C 
HETATM   10  C14 UNL     1      18.809   0.150  51.356  1.00  0.00     0.009 C 
ENDBRANCH   8   9
ENDBRANCH   7   8
BRANCH   7  11
HETATM   11  C15 UNL     1      22.993   1.945  51.837  1.00  0.00    -0.022 A 
HETATM   12  C16 UNL     1      23.409   2.282  50.593  1.00  0.00     0.012 A 
HETATM   13  C17 UNL     1      23.881   3.497  50.173  1.00  0.00     0.004 A 
HETATM   14  C18 UNL     1      23.962   4.525  51.084  1.00  0.00     0.036 A 
HETATM   15  C19 UNL     1      23.567   4.299  52.379  1.00  0.00     0.066 A 
HETATM   16  C20 UNL     1      23.105   3.043  52.705  1.00  0.00     0.048 A 
BRANCH  15  17
HETATM   17  O1  UNL     1      23.661   5.351  53.272  1.00  0.00    -0.361 OA
HETATM   18  H24 UNL     1      23.120   6.216  53.141  1.00  0.00     0.217 HD
ENDBRANCH  15  17
ENDBRANCH   7  11
ENDBRANCH   6   7
BRANCH   1  19
HETATM   19  N2  UNL     1      25.253   0.095  52.718  1.00  0.00    -0.343 N 
HETATM   20  H11 UNL     1      25.477  -0.065  51.687  1.00  0.00     0.167 HD
BRANCH  19  21
HETATM   21  C2  UNL     1      26.306   0.966  53.159  1.00  0.00     0.029 C 
HETATM   22  C1  UNL     1      26.169   2.088  53.889  1.00  0.00     0.040 C 
BRANCH  21  23
HETATM   23  C3  UNL     1      27.664   0.583  52.769  1.00  0.00     0.328 C 
BRANCH  23  24
HETATM   24  N1  UNL     1      28.271  -0.376  53.662  1.00  0.00     0.094 N 
HETATM   25  C4  UNL     1      29.714  -0.381  53.722  1.00  0.00     0.274 C 
HETATM   26  C5  UNL     1      29.709  -1.851  53.445  1.00  0.00     0.060 C 
HETATM   27  C6  UNL     1      28.257  -1.701  53.080  1.00  0.00     0.274 C 
ENDBRANCH  23  24
ENDBRANCH  21  23
ENDBRANCH  19  21
ENDBRANCH   1  19
BRANCH   5  28
HETATM   28  N5  UNL     1      20.708  -0.363  54.412  1.00  0.00    -0.383 N 
HETATM   29  H13 UNL     1      19.699  -0.200  54.430  1.00  0.00     0.157 HD
HETATM   30  H14 UNL     1      20.328   0.441  53.821  1.00  0.00     0.157 HD
ENDBRANCH   5  28
TORSDOF 10
ENDMDL
MODEL 3
REMARK VINA RESULT:      -7.1      2.558      4.297
REMARK  10 active torsions:
REMARK  status: ('A' for Active; 'I' for Inactive)
REMARK    1  A    between atoms: C2_2  and  C3_3 
REMARK    2  A    between atoms: C2_2  and  N2_8 
REMARK    3  A    between atoms: C3_3  and  N1_4 
REMARK    4  A    between atoms: N2_8  and  C7_9 
REMARK    5  A    between atoms: C9_13  and  N5_14 
REMARK    6  A    between atoms: C10_15  and  C11_16 
REMARK    7  A    between atoms: C11_16  and  C12_17 
REMARK    8  A    between atoms: C11_16  and  C15_20 
REMARK    9  A    between atoms: C12_17  and  C13_18 
REMARK   10  A    between atoms: C19_24  and  O1_25 
ROOT
HETATM    1  C7  UNL     1      23.990   3.242  51.724  1.00  0.00     0.144 A 
HETATM    2  N3  UNL     1      24.324   4.520  51.964  1.00  0.00    -0.223 NA
HETATM    3  C8  UNL     1      23.458   5.489  52.218  1.00  0.00     0.237 A 
HETATM    4  N4  UNL     1      22.164   5.125  52.227  1.00  0.00    -0.224 NA
HETATM    5  C9  UNL     1      21.810   3.854  51.989  1.00  0.00     0.137 A 
HETATM    6  C10 UNL     1      22.684   2.836  51.726  1.00  0.00     0.066 A 
ENDROOT
BRANCH   6   7
HETATM    7  C11 UNL     1      22.165   1.535  51.360  1.00  0.00    -0.012 C 
BRANCH   7   8
HETATM    8  C12 UNL     1      21.846   1.038  50.171  1.00  0.00    -0.014 C 
BRANCH   8   9
HETATM    9  C13 UNL     1      21.467   0.796  48.794  1.00  0.00     0.023 C 
HETATM   10  C14 UNL     1      22.128   1.726  47.795  1.00  0.00     0.009 C 
ENDBRANCH   8   9
ENDBRANCH   7   8
BRANCH   7  11
HETATM   11  C15 UNL     1      21.945   0.498  52.361  1.00  0.00    -0.022 A 
HETATM   12  C16 UNL     1      22.843  -0.087  53.188  1.00  0.00     0.012 A 
HETATM   13  C17 UNL     1      22.587  -0.969  54.204  1.00  0.00     0.004 A 
HETATM   14  C18 UNL     1      21.284  -1.335  54.449  1.00  0.00     0.036 A 
HETATM   15  C19 UNL     1      20.286  -0.803  53.670  1.00  0.00     0.066 A 
HETATM   16  C20 UNL     1      20.643   0.078  52.673  1.00  0.00     0.048 A 
BRANCH  15  17
HETATM   17  O1  UNL     1      18.986  -1.190  53.941  1.00  0.00    -0.361 OA
HETATM   18  H24 UNL     1      18.760  -1.781  54.751  1.00  0.00     0.217 HD
ENDBRANCH  15  17
ENDBRANCH   7  11
ENDBRANCH   6   7
BRANCH   1  19
HETATM   19  N2  UNL     1      25.033   2.338  51.492  1.00  0.00    -0.343 N 
HETATM   20  H11 UNL     1      25.448   1.829  50.650  1.00  0.00     0.167 HD
BRANCH  19  21
HETATM   21  C2  UNL     1      25.858   1.906  52.585  1.00  0.00     0.029 C 
HETATM   22  C1  UNL     1      25.672   2.181  53.889  1.00  0.00     0.040 C 
BRANCH  21  23
HETATM   23  C3  UNL     1      27.017   1.085  52.233  1.00  0.00     0.328 C 
BRANCH  23  24
HETATM   24  N1  UNL     1      27.695   0.524  53.377  1.00  0.00     0.094 N 
HETATM   25  C4  UNL     1      29.088   0.869  53.537  1.00  0.00     0.274 C 
HETATM   26  C5  UNL     1      29.424  -0.586  53.638  1.00  0.00     0.060 C 
HETATM   27  C6  UNL     1      28.030  -0.865  53.147  1.00  0.00     0.274 C 
ENDBRANCH  23  24
ENDBRANCH  21  23
ENDBRANCH  19  21
ENDBRANCH   1  19
BRANCH   5  28
HETATM   28  N5  UNL     1      20.396   3.755  51.956  1.00  0.00    -0.383 N 
HETATM   29  H13 UNL     1      19.375   3.718  51.912  1.00  0.00     0.157 HD
HETATM   30  H14 UNL     1      19.893   4.562  51.472  1.00  0.00     0.157 HD
ENDBRANCH   5  28
TORSDOF 10
ENDMDL
MODEL 4
REMARK VINA RESULT:      -6.9      2.159      5.775
REMARK  10 active torsions:
REMARK  status: ('A' for Active; 'I' for Inactive)
REMARK    1  A    between atoms: C2_2  and  C3_3 
REMARK    2  A    between atoms: C2_2  and  N2_8 
REMARK    3  A    between atoms: C3_3  and  N1_4 
REMARK    4  A    between atoms: N2_8  and  C7_9 
REMARK    5  A    between atoms: C9_13  and  N5_14 
REMARK    6  A    between atoms: C10_15  and  C11_16 
REMARK    7  A    between atoms: C11_16  and  C12_17 
REMARK    8  A    between atoms: C11_16  and  C15_20 
REMARK    9  A    between atoms: C12_17  and  C13_18 
REMARK   10  A    between atoms: C19_24  and  O1_25 
ROOT
HETATM    1  C7  UNL     1      22.031  -0.513  53.038  1.00  0.00     0.144 A 
HETATM    2  N3  UNL     1      21.053  -1.346  53.427  1.00  0.00    -0.223 NA
HETATM    3  C8  UNL     1      21.079  -2.072  54.535  1.00  0.00     0.237 A 
HETATM    4  N4  UNL     1      22.180  -1.934  55.294  1.00  0.00    -0.224 NA
HETATM    5  C9  UNL     1      23.168  -1.108  54.922  1.00  0.00     0.137 A 
HETATM    6  C10 UNL     1      23.164  -0.347  53.786  1.00  0.00     0.066 A 
ENDROOT
BRANCH   6   7
HETATM    7  C11 UNL     1      24.349   0.406  53.435  1.00  0.00    -0.012 C 
BRANCH   7   8
HETATM    8  C12 UNL     1      24.496   1.687  53.121  1.00  0.00    -0.014 C 
BRANCH   8   9
HETATM    9  C13 UNL     1      24.775   2.971  52.512  1.00  0.00     0.023 C 
HETATM   10  C14 UNL     1      23.739   4.038  52.807  1.00  0.00     0.009 C 
ENDBRANCH   8   9
ENDBRANCH   7   8
BRANCH   7  11
HETATM   11  C15 UNL     1      25.667  -0.218  53.425  1.00  0.00    -0.022 A 
HETATM   12  C16 UNL     1      26.096  -1.285  52.710  1.00  0.00     0.012 A 
HETATM   13  C17 UNL     1      27.373  -1.773  52.628  1.00  0.00     0.004 A 
HETATM   14  C18 UNL     1      28.368  -1.140  53.335  1.00  0.00     0.036 A 
HETATM   15  C19 UNL     1      28.050  -0.043  54.098  1.00  0.00     0.066 A 
HETATM   16  C20 UNL     1      26.737   0.372  54.116  1.00  0.00     0.048 A 
BRANCH  15  17
HETATM   17  O1  UNL     1      29.072   0.570  54.798  1.00  0.00    -0.361 OA
HETATM   18  H24 UNL     1      28.911   1.000  55.718  1.00  0.00     0.217 HD
ENDBRANCH  15  17
ENDBRANCH   7  11
ENDBRANCH   6   7
BRANCH   1  19
HETATM   19  N2  UNL     1      21.835   0.195  51.846  1.00  0.00    -0.343 N 
HETATM   20  H11 UNL     1      22.067   0.058  50.813  1.00  0.00     0.167 HD
BRANCH  19  21
HETATM   21  C2  UNL     1      21.136   1.449  51.870  1.00  0.00     0.029 C 
HETATM   22  C1  UNL     1      20.378   1.928  52.873  1.00  0.00     0.040 C 
BRANCH  21  23
HETATM   23  C3  UNL     1      21.269   2.283  50.674  1.00  0.00     0.328 C 
BRANCH  23  24
HETATM   24  N1  UNL     1      22.208   1.762  49.710  1.00  0.00     0.094 N 
HETATM   25  C4  UNL     1      22.982   2.732  48.970  1.00  0.00     0.274 C 
HETATM   26  C5  UNL     1      22.546   2.087  47.692  1.00  0.00     0.060 C 
HETATM   27  C6  UNL     1      21.527   1.337  48.506  1.00  0.00     0.274 C 
ENDBRANCH  23  24
ENDBRANCH  21  23
ENDBRANCH  19  21
ENDBRANCH   1  19
BRANCH   5  28
HETATM   28  N5  UNL     1      24.248  -1.220  55.834  1.00  0.00    -0.383 N 
HETATM   29  H13 UNL     1      25.031  -1.261  56.490  1.00  0.00     0.157 HD
HETATM   30  H14 UNL     1      24.718  -0.299  56.100  1.00  0.00     0.157 HD
ENDBRANCH   5  28
TORSDOF 10
ENDMDL
MODEL 5
REMARK VINA RESULT:      -6.9      2.167      5.944
REMARK  10 active torsions:
REMARK  status: ('A' for Active; 'I' for Inactive)
REMARK    1  A    between atoms: C2_2  and  C3_3 
REMARK    2  A    between atoms: C2_2  and  N2_8 
REMARK    3  A    between atoms: C3_3  and  N1_4 
REMARK    4  A    between atoms: N2_8  and  C7_9 
REMARK    5  A    between atoms: C9_13  and  N5_14 
REMARK    6  A    between atoms: C10_15  and  C11_16 
REMARK    7  A    between atoms: C11_16  and  C12_17 
REMARK    8  A    between atoms: C11_16  and  C15_20 
REMARK    9  A    between atoms: C12_17  and  C13_18 
REMARK   10  A    between atoms: C19_24  and  O1_25 
ROOT
HETATM    1  C7  UNL     1      22.201  -0.539  53.109  1.00  0.00     0.144 A 
HETATM    2  N3  UNL     1      21.348  -1.285  53.829  1.00  0.00    -0.223 NA
HETATM    3  C8  UNL     1      21.639  -1.851  54.991  1.00  0.00     0.237 A 
HETATM    4  N4  UNL     1      22.886  -1.637  55.445  1.00  0.00    -0.224 NA
HETATM    5  C9  UNL     1      23.753  -0.896  54.741  1.00  0.00     0.137 A 
HETATM    6  C10 UNL     1      23.477  -0.301  53.541  1.00  0.00     0.066 A 
ENDROOT
BRANCH   6   7
HETATM    7  C11 UNL     1      24.541   0.366  52.821  1.00  0.00    -0.012 C 
BRANCH   7   8
HETATM    8  C12 UNL     1      25.756  -0.055  52.494  1.00  0.00    -0.014 C 
BRANCH   8   9
HETATM    9  C13 UNL     1      27.175  -0.315  52.360  1.00  0.00     0.023 C 
HETATM   10  C14 UNL     1      28.026   0.303  53.452  1.00  0.00     0.009 C 
ENDBRANCH   8   9
ENDBRANCH   7   8
BRANCH   7  11
HETATM   11  C15 UNL     1      24.364   1.708  52.281  1.00  0.00    -0.022 A 
HETATM   12  C16 UNL     1      24.163   2.088  50.997  1.00  0.00     0.012 A 
HETATM   13  C17 UNL     1      23.877   3.345  50.536  1.00  0.00     0.004 A 
HETATM   14  C18 UNL     1      23.773   4.374  51.443  1.00  0.00     0.036 A 
HETATM   15  C19 UNL     1      23.957   4.106  52.777  1.00  0.00     0.066 A 
HETATM   16  C20 UNL     1      24.240   2.810  53.144  1.00  0.00     0.048 A 
BRANCH  15  17
HETATM   17  O1  UNL     1      23.846   5.161  53.664  1.00  0.00    -0.361 OA
HETATM   18  H24 UNL     1      24.676   5.633  54.045  1.00  0.00     0.217 HD
ENDBRANCH  15  17
ENDBRANCH   7  11
ENDBRANCH   6   7
BRANCH   1  19
HETATM   19  N2  UNL     1      21.726   0.001  51.908  1.00  0.00    -0.343 N 
HETATM   20  H11 UNL     1      21.975  -0.066  50.873  1.00  0.00     0.167 HD
BRANCH  19  21
HETATM   21  C2  UNL     1      20.597   0.889  51.925  1.00  0.00     0.029 C 
HETATM   22  C1  UNL     1      20.548   2.118  52.471  1.00  0.00     0.040 C 
BRANCH  21  23
HETATM   23  C3  UNL     1      19.380   0.394  51.280  1.00  0.00     0.328 C 
BRANCH  23  24
HETATM   24  N1  UNL     1      18.256   0.282  52.178  1.00  0.00     0.094 N 
HETATM   25  C4  UNL     1      17.971  -1.036  52.696  1.00  0.00     0.274 C 
HETATM   26  C5  UNL     1      16.555  -0.899  52.233  1.00  0.00     0.060 C 
HETATM   27  C6  UNL     1      17.008   0.301  51.446  1.00  0.00     0.274 C 
ENDBRANCH  23  24
ENDBRANCH  21  23
ENDBRANCH  19  21
ENDBRANCH   1  19
BRANCH   5  28
HETATM   28  N5  UNL     1      25.018  -0.909  55.382  1.00  0.00    -0.383 N 
HETATM   29  H13 UNL     1      25.937  -0.882  55.829  1.00  0.00     0.157 HD
HETATM   30  H14 UNL     1      25.622  -0.045  55.215  1.00  0.00     0.157 HD
ENDBRANCH   5  28
TORSDOF 10
ENDMDL
MODEL 6
REMARK VINA RESULT:      -6.8      3.069      6.996
REMARK  10 active torsions:
REMARK  status: ('A' for Active; 'I' for Inactive)
REMARK    1  A    between atoms: C2_2  and  C3_3 
REMARK    2  A    between atoms: C2_2  and  N2_8 
REMARK    3  A    between atoms: C3_3  and  N1_4 
REMARK    4  A    between atoms: N2_8  and  C7_9 
REMARK    5  A    between atoms: C9_13  and  N5_14 
REMARK    6  A    between atoms: C10_15  and  C11_16 
REMARK    7  A    between atoms: C11_16  and  C12_17 
REMARK    8  A    between atoms: C11_16  and  C15_20 
REMARK    9  A    between atoms: C12_17  and  C13_18 
REMARK   10  A    between atoms: C19_24  and  O1_25 
ROOT
HETATM    1  C7  UNL     1      22.945   2.720  50.555  1.00  0.00     0.144 A 
HETATM    2  N3  UNL     1      22.581   3.963  50.202  1.00  0.00    -0.223 NA
HETATM    3  C8  UNL     1      22.869   5.055  50.894  1.00  0.00     0.237 A 
HETATM    4  N4  UNL     1      23.574   4.860  52.022  1.00  0.00    -0.224 NA
HETATM    5  C9  UNL     1      23.944   3.627  52.392  1.00  0.00     0.137 A 
HETATM    6  C10 UNL     1      23.663   2.485  51.695  1.00  0.00     0.066 A 
ENDROOT
BRANCH   6   7
HETATM    7  C11 UNL     1      24.010   1.202  52.270  1.00  0.00    -0.012 C 
BRANCH   7   8
HETATM    8  C12 UNL     1      25.155   0.532  52.255  1.00  0.00    -0.014 C 
BRANCH   8   9
HETATM    9  C13 UNL     1      26.481   0.002  52.011  1.00  0.00     0.023 C 
HETATM   10  C14 UNL     1      26.708  -1.388  52.574  1.00  0.00     0.009 C 
ENDBRANCH   8   9
ENDBRANCH   7   8
BRANCH   7  11
HETATM   11  C15 UNL     1      23.045   0.436  53.049  1.00  0.00    -0.022 A 
HETATM   12  C16 UNL     1      21.727   0.236  52.810  1.00  0.00     0.012 A 
HETATM   13  C17 UNL     1      20.873  -0.589  53.492  1.00  0.00     0.004 A 
HETATM   14  C18 UNL     1      21.364  -1.319  54.549  1.00  0.00     0.036 A 
HETATM   15  C19 UNL     1      22.690  -1.197  54.884  1.00  0.00     0.066 A 
HETATM   16  C20 UNL     1      23.469  -0.342  54.138  1.00  0.00     0.048 A 
BRANCH  15  17
HETATM   17  O1  UNL     1      23.153  -1.944  55.952  1.00  0.00    -0.361 OA
HETATM   18  H24 UNL     1      24.102  -1.816  56.325  1.00  0.00     0.217 HD
ENDBRANCH  15  17
ENDBRANCH   7  11
ENDBRANCH   6   7
BRANCH   1  19
HETATM   19  N2  UNL     1      22.575   1.676  49.699  1.00  0.00    -0.343 N 
HETATM   20  H11 UNL     1      22.974   0.729  49.409  1.00  0.00     0.167 HD
BRANCH  19  21
HETATM   21  C2  UNL     1      21.345   1.761  48.962  1.00  0.00     0.029 C 
HETATM   22  C1  UNL     1      21.188   2.241  47.715  1.00  0.00     0.040 C 
BRANCH  21  23
HETATM   23  C3  UNL     1      20.148   1.274  49.648  1.00  0.00     0.328 C 
BRANCH  23  24
HETATM   24  N1  UNL     1      19.224   2.323  50.008  1.00  0.00     0.094 N 
HETATM   25  C4  UNL     1      19.249   2.765  51.382  1.00  0.00     0.274 C 
HETATM   26  C5  UNL     1      17.773   2.538  51.471  1.00  0.00     0.060 C 
HETATM   27  C6  UNL     1      17.885   1.796  50.167  1.00  0.00     0.274 C 
ENDBRANCH  23  24
ENDBRANCH  21  23
ENDBRANCH  19  21
ENDBRANCH   1  19
BRANCH   5  28
HETATM   28  N5  UNL     1      24.583   3.683  53.657  1.00  0.00    -0.383 N 
HETATM   29  H13 UNL     1      25.014   3.749  54.582  1.00  0.00     0.157 HD
HETATM   30  H14 UNL     1      24.105   4.305  54.382  1.00  0.00     0.157 HD
ENDBRANCH   5  28
TORSDOF 10
ENDMDL
MODEL 7
REMARK VINA RESULT:      -6.6      2.791      4.267
REMARK  10 active torsions:
REMARK  status: ('A' for Active; 'I' for Inactive)
REMARK    1  A    between atoms: C2_2  and  C3_3 
REMARK    2  A    between atoms: C2_2  and  N2_8 
REMARK    3  A    between atoms: C3_3  and  N1_4 
REMARK    4  A    between atoms: N2_8  and  C7_9 
REMARK    5  A    between atoms: C9_13  and  N5_14 
REMARK    6  A    between atoms: C10_15  and  C11_16 
REMARK    7  A    between atoms: C11_16  and  C12_17 
REMARK    8  A    between atoms: C11_16  and  C15_20 
REMARK    9  A    between atoms: C12_17  and  C13_18 
REMARK   10  A    between atoms: C19_24  and  O1_25 
ROOT
HETATM    1  C7  UNL     1      23.544   2.162  52.164  1.00  0.00     0.144 A 
HETATM    2  N3  UNL     1      24.233   2.998  52.957  1.00  0.00    -0.223 NA
HETATM    3  C8  UNL     1      23.855   4.232  53.257  1.00  0.00     0.237 A 
HETATM    4  N4  UNL     1      22.696   4.635  52.708  1.00  0.00    -0.224 NA
HETATM    5  C9  UNL     1      21.995   3.815  51.913  1.00  0.00     0.137 A 
HETATM    6  C10 UNL     1      22.362   2.538  51.590  1.00  0.00     0.066 A 
ENDROOT
BRANCH   6   7
HETATM    7  C11 UNL     1      21.581   1.802  50.617  1.00  0.00    -0.012 C 
BRANCH   7   8
HETATM    8  C12 UNL     1      21.814   1.552  49.335  1.00  0.00    -0.014 C 
BRANCH   8   9
HETATM    9  C13 UNL     1      22.097   1.590  47.915  1.00  0.00     0.023 C 
HETATM   10  C14 UNL     1      22.043   2.979  47.308  1.00  0.00     0.009 C 
ENDBRANCH   8   9
ENDBRANCH   7   8
BRANCH   7  11
HETATM   11  C15 UNL     1      20.332   1.149  50.988  1.00  0.00    -0.022 A 
HETATM   12  C16 UNL     1      19.208   0.984  50.252  1.00  0.00     0.012 A 
HETATM   13  C17 UNL     1      18.094   0.258  50.582  1.00  0.00     0.004 A 
HETATM   14  C18 UNL     1      18.067  -0.396  51.792  1.00  0.00     0.036 A 
HETATM   15  C19 UNL     1      19.155  -0.300  52.624  1.00  0.00     0.066 A 
HETATM   16  C20 UNL     1      20.228   0.453  52.204  1.00  0.00     0.048 A 
BRANCH  15  17
HETATM   17  O1  UNL     1      19.098  -0.969  53.834  1.00  0.00    -0.361 OA
HETATM   18  H24 UNL     1      19.934  -1.399  54.250  1.00  0.00     0.217 HD
ENDBRANCH  15  17
ENDBRANCH   7  11
ENDBRANCH   6   7
BRANCH   1  19
HETATM   19  N2  UNL     1      24.077   0.882  51.965  1.00  0.00    -0.343 N 
HETATM   20  H11 UNL     1      24.509   0.337  51.155  1.00  0.00     0.167 HD
BRANCH  19  21
HETATM   21  C2  UNL     1      24.133  -0.044  53.061  1.00  0.00     0.029 C 
HETATM   22  C1  UNL     1      23.142  -0.324  53.928  1.00  0.00     0.040 C 
BRANCH  21  23
HETATM   23  C3  UNL     1      25.402  -0.749  53.244  1.00  0.00     0.328 C 
BRANCH  23  24
HETATM   24  N1  UNL     1      26.529   0.133  53.433  1.00  0.00     0.094 N 
HETATM   25  C4  UNL     1      27.838  -0.478  53.419  1.00  0.00     0.274 C 
HETATM   26  C5  UNL     1      28.140   0.169  54.734  1.00  0.00     0.060 C 
HETATM   27  C6  UNL     1      26.674   0.491  54.827  1.00  0.00     0.274 C 
ENDBRANCH  23  24
ENDBRANCH  21  23
ENDBRANCH  19  21
ENDBRANCH   1  19
BRANCH   5  28
HETATM   28  N5  UNL     1      20.875   4.508  51.387  1.00  0.00    -0.383 N 
HETATM   29  H13 UNL     1      20.055   5.015  51.045  1.00  0.00     0.157 HD
HETATM   30  H14 UNL     1      20.202   4.906  52.114  1.00  0.00     0.157 HD
ENDBRANCH   5  28
TORSDOF 10
ENDMDL
MODEL 8
REMARK VINA RESULT:      -6.4      3.063      6.832
REMARK  10 active torsions:
REMARK  status: ('A' for Active; 'I' for Inactive)
REMARK    1  A    between atoms: C2_2  and  C3_3 
REMARK    2  A    between atoms: C2_2  and  N2_8 
REMARK    3  A    between atoms: C3_3  and  N1_4 
REMARK    4  A    between atoms: N2_8  and  C7_9 
REMARK    5  A    between atoms: C9_13  and  N5_14 
REMARK    6  A    between atoms: C10_15  and  C11_16 
REMARK    7  A    between atoms: C11_16  and  C12_17 
REMARK    8  A    between atoms: C11_16  and  C15_20 
REMARK    9  A    between atoms: C12_17  and  C13_18 
REMARK   10  A    between atoms: C19_24  and  O1_25 
ROOT
HETATM    1  C7  UNL     1      23.571   3.451  49.841  1.00  0.00     0.144 A 
HETATM    2  N3  UNL     1      23.652   4.706  49.370  1.00  0.00    -0.223 NA
HETATM    3  C8  UNL     1      23.855   5.778  50.121  1.00  0.00     0.237 A 
HETATM    4  N4  UNL     1      23.982   5.549  51.439  1.00  0.00    -0.224 NA
HETATM    5  C9  UNL     1      23.903   4.304  51.928  1.00  0.00     0.137 A 
HETATM    6  C10 UNL     1      23.696   3.181  51.175  1.00  0.00     0.066 A 
ENDROOT
BRANCH   6   7
HETATM    7  C11 UNL     1      23.502   1.910  51.840  1.00  0.00    -0.012 C 
BRANCH   7   8
HETATM    8  C12 UNL     1      22.387   1.261  52.151  1.00  0.00    -0.014 C 
BRANCH   8   9
HETATM    9  C13 UNL     1      21.244   0.376  52.240  1.00  0.00     0.023 C 
HETATM   10  C14 UNL     1      20.516   0.434  53.569  1.00  0.00     0.009 C 
ENDBRANCH   8   9
ENDBRANCH   7   8
BRANCH   7  11
HETATM   11  C15 UNL     1      24.635   1.092  52.254  1.00  0.00    -0.022 A 
HETATM   12  C16 UNL     1      25.886   1.050  51.739  1.00  0.00     0.012 A 
HETATM   13  C17 UNL     1      26.966   0.362  52.226  1.00  0.00     0.004 A 
HETATM   14  C18 UNL     1      26.810  -0.387  53.369  1.00  0.00     0.036 A 
HETATM   15  C19 UNL     1      25.581  -0.420  53.981  1.00  0.00     0.066 A 
HETATM   16  C20 UNL     1      24.557   0.306  53.416  1.00  0.00     0.048 A 
BRANCH  15  17
HETATM   17  O1  UNL     1      25.456  -1.183  55.128  1.00  0.00    -0.361 OA
HETATM   18  H24 UNL     1      26.181  -1.180  55.856  1.00  0.00     0.217 HD
ENDBRANCH  15  17
ENDBRANCH   7  11
ENDBRANCH   6   7
BRANCH   1  19
HETATM   19  N2  UNL     1      23.371   2.427  48.906  1.00  0.00    -0.343 N 
HETATM   20  H11 UNL     1      23.909   1.570  48.565  1.00  0.00     0.167 HD
BRANCH  19  21
HETATM   21  C2  UNL     1      22.156   2.388  48.143  1.00  0.00     0.029 C 
HETATM   22  C1  UNL     1      21.931   2.985  46.958  1.00  0.00     0.040 C 
BRANCH  21  23
HETATM   23  C3  UNL     1      21.056   1.615  48.722  1.00  0.00     0.328 C 
BRANCH  23  24
HETATM   24  N1  UNL     1      19.887   2.409  49.015  1.00  0.00     0.094 N 
HETATM   25  C4  UNL     1      19.983   3.315  50.136  1.00  0.00     0.274 C 
HETATM   26  C5  UNL     1      18.734   2.723  50.707  1.00  0.00     0.060 C 
HETATM   27  C6  UNL     1      18.885   1.618  49.698  1.00  0.00     0.274 C 
ENDBRANCH  23  24
ENDBRANCH  21  23
ENDBRANCH  19  21
ENDBRANCH   1  19
BRANCH   5  28
HETATM   28  N5  UNL     1      23.968   4.345  53.344  1.00  0.00    -0.383 N 
HETATM   29  H13 UNL     1      24.030   4.412  54.363  1.00  0.00     0.157 HD
HETATM   30  H14 UNL     1      24.369   5.245  53.756  1.00  0.00     0.157 HD
ENDBRANCH   5  28
TORSDOF 10
ENDMDL
MODEL 9
REMARK VINA RESULT:      -6.4      2.764      4.066
REMARK  10 active torsions:
REMARK  status: ('A' for Active; 'I' for Inactive)
REMARK    1  A    between atoms: C2_2  and  C3_3 
REMARK    2  A    between atoms: C2_2  and  N2_8 
REMARK    3  A    between atoms: C3_3  and  N1_4 
REMARK    4  A    between atoms: N2_8  and  C7_9 
REMARK    5  A    between atoms: C9_13  and  N5_14 
REMARK    6  A    between atoms: C10_15  and  C11_16 
REMARK    7  A    between atoms: C11_16  and  C12_17 
REMARK    8  A    between atoms: C11_16  and  C15_20 
REMARK    9  A    between atoms: C12_17  and  C13_18 
REMARK   10  A    between atoms: C19_24  and  O1_25 
ROOT
HETATM    1  C7  UNL     1      22.314   2.106  51.103  1.00  0.00     0.144 A 
HETATM    2  N3  UNL     1      21.294   1.235  51.166  1.00  0.00    -0.223 NA
HETATM    3  C8  UNL     1      20.733   0.657  50.115  1.00  0.00     0.237 A 
HETATM    4  N4  UNL     1      21.251   0.994  48.920  1.00  0.00    -0.224 NA
HETATM    5  C9  UNL     1      22.268   1.862  48.837  1.00  0.00     0.137 A 
HETATM    6  C10 UNL     1      22.865   2.471  49.906  1.00  0.00     0.066 A 
ENDROOT
BRANCH   6   7
HETATM    7  C11 UNL     1      23.870   3.487  49.670  1.00  0.00    -0.012 C 
BRANCH   7   8
HETATM    8  C12 UNL     1      25.190   3.390  49.581  1.00  0.00    -0.014 C 
BRANCH   8   9
HETATM    9  C13 UNL     1      26.629   3.507  49.705  1.00  0.00     0.023 C 
HETATM   10  C14 UNL     1      27.236   4.620  48.873  1.00  0.00     0.009 C 
ENDBRANCH   8   9
ENDBRANCH   7   8
BRANCH   7  11
HETATM   11  C15 UNL     1      23.499   4.878  49.440  1.00  0.00    -0.022 A 
HETATM   12  C16 UNL     1      23.611   5.610  48.306  1.00  0.00     0.012 A 
HETATM   13  C17 UNL     1      23.141   6.877  48.084  1.00  0.00     0.004 A 
HETATM   14  C18 UNL     1      22.472   7.521  49.098  1.00  0.00     0.036 A 
HETATM   15  C19 UNL     1      22.297   6.873  50.296  1.00  0.00     0.066 A 
HETATM   16  C20 UNL     1      22.805   5.600  50.424  1.00  0.00     0.048 A 
BRANCH  15  17
HETATM   17  O1  UNL     1      21.620   7.547  51.297  1.00  0.00    -0.361 OA
HETATM   18  H24 UNL     1      20.866   8.211  51.082  1.00  0.00     0.217 HD
ENDBRANCH  15  17
ENDBRANCH   7  11
ENDBRANCH   6   7
BRANCH   1  19
HETATM   19  N2  UNL     1      22.803   2.611  52.314  1.00  0.00    -0.343 N 
HETATM   20  H11 UNL     1      22.469   3.293  53.063  1.00  0.00     0.167 HD
BRANCH  19  21
HETATM   21  C2  UNL     1      24.076   2.166  52.808  1.00  0.00     0.029 C 
HETATM   22  C1  UNL     1      24.994   2.912  53.449  1.00  0.00     0.040 C 
BRANCH  21  23
HETATM   23  C3  UNL     1      24.396   0.755  52.585  1.00  0.00     0.328 C 
BRANCH  23  24
HETATM   24  N1  UNL     1      25.737   0.399  52.985  1.00  0.00     0.094 N 
HETATM   25  C4  UNL     1      26.621  -0.068  51.943  1.00  0.00     0.274 C 
HETATM   26  C5  UNL     1      26.918  -1.287  52.757  1.00  0.00     0.060 C 
HETATM   27  C6  UNL     1      25.754  -0.898  53.628  1.00  0.00     0.274 C 
ENDBRANCH  23  24
ENDBRANCH  21  23
ENDBRANCH  19  21
ENDBRANCH   1  19
BRANCH   5  28
HETATM   28  N5  UNL     1      22.558   2.123  47.473  1.00  0.00    -0.383 N 
HETATM   29  H13 UNL     1      22.804   2.321  46.500  1.00  0.00     0.157 HD
HETATM   30  H14 UNL     1      23.549   2.467  47.275  1.00  0.00     0.157 HD
ENDBRANCH   5  28
TORSDOF 10
ENDMDL
