MODEL 1
REMARK VINA RESULT:      -7.6      0.000      0.000
REMARK  6 active torsions:
REMARK  status: ('A' for Active; 'I' for Inactive)
REMARK    1  A    between atoms: C2_2  and  C3_3 
REMARK    2  A    between atoms: C3_3  and  C5_5 
REMARK    3  A    between atoms: C5_5  and  C6_6 
REMARK    4  A    between atoms: C6_6  and  C7_7 
REMARK    5  A    between atoms: C6_6  and  N3_15 
REMARK    6  A    between atoms: C16_20  and  N5_21 
ROOT
HETATM    1  C6  UNL     1      25.513   0.172  53.299  1.00  0.00     0.138 C 
ENDROOT
BRANCH   1   2
HETATM    2  C5  UNL     1      25.065   0.996  52.144  1.00  0.00     0.035 C 
BRANCH   2   3
HETATM    3  C3  UNL     1      25.531   2.406  52.091  1.00  0.00    -0.017 C 
HETATM    4  C4  UNL     1      26.560   2.458  50.935  1.00  0.00     0.010 C 
BRANCH   3   5
HETATM    5  C2  UNL     1      24.417   3.348  51.604  1.00  0.00    -0.000 C 
HETATM    6  C1  UNL     1      23.208   3.095  52.462  1.00  0.00     0.005 C 
ENDBRANCH   3   5
ENDBRANCH   2   3
ENDBRANCH   1   2
BRANCH   1   7
HETATM    7  C7  UNL     1      26.455  -0.897  53.028  1.00  0.00    -0.041 C 
HETATM    8  C8  UNL     1      26.703  -2.099  52.552  1.00  0.00     0.008 C 
HETATM    9  C9  UNL     1      28.080  -2.542  52.673  1.00  0.00     0.028 C 
HETATM   10  C10 UNL     1      28.775  -1.602  53.258  1.00  0.00     0.041 A 
HETATM   11  N1  UNL     1      29.883  -0.925  53.832  1.00  0.00    -0.282 N 
HETATM   12  C12 UNL     1      27.822  -0.512  53.121  1.00  0.00     0.110 A 
HETATM   13  N2  UNL     1      29.560   0.384  54.097  1.00  0.00    -0.190 NA
HETATM   14  H15 UNL     1      30.760  -1.517  53.962  1.00  0.00     0.189 HD
HETATM   15  C11 UNL     1      28.357   0.666  53.725  1.00  0.00     0.127 A 
ENDBRANCH   1   7
BRANCH   1  16
HETATM   16  N3  UNL     1      24.302  -0.470  53.844  1.00  0.00    -0.181 N 
HETATM   17  C13 UNL     1      23.168  -0.570  53.117  1.00  0.00     0.111 A 
HETATM   18  C14 UNL     1      22.029  -1.174  53.637  1.00  0.00     0.038 A 
HETATM   19  C15 UNL     1      22.130  -1.663  54.944  1.00  0.00     0.138 A 
HETATM   20  N4  UNL     1      23.288  -1.541  55.638  1.00  0.00    -0.075 NA
HETATM   21  C16 UNL     1      24.369  -0.942  55.078  1.00  0.00     0.721 A 
BRANCH  21  22
HETATM   22  N5  UNL     1      25.374  -0.900  55.827  1.00  0.00    -0.116 NA
HETATM   23  H21 UNL     1      25.537  -1.134  56.795  1.00  0.00     0.206 HD
ENDBRANCH  21  22
ENDBRANCH   1  16
TORSDOF 6
ENDMDL
MODEL 2
REMARK VINA RESULT:      -7.5      2.301      5.446
REMARK  6 active torsions:
REMARK  status: ('A' for Active; 'I' for Inactive)
REMARK    1  A    between atoms: C2_2  and  C3_3 
REMARK    2  A    between atoms: C3_3  and  C5_5 
REMARK    3  A    between atoms: C5_5  and  C6_6 
REMARK    4  A    between atoms: C6_6  and  C7_7 
REMARK    5  A    between atoms: C6_6  and  N3_15 
REMARK    6  A    between atoms: C16_20  and  N5_21 
ROOT
HETATM    1  C6  UNL     1      25.707   1.367  52.815  1.00  0.00     0.138 C 
ENDROOT
BRANCH   1   2
HETATM    2  C5  UNL     1      24.744   0.234  52.729  1.00  0.00     0.035 C 
BRANCH   2   3
HETATM    3  C3  UNL     1      23.454   0.383  53.450  1.00  0.00    -0.017 C 
HETATM    4  C4  UNL     1      22.360   0.344  52.354  1.00  0.00     0.010 C 
BRANCH   3   5
HETATM    5  C2  UNL     1      23.136  -0.862  54.297  1.00  0.00    -0.000 C 
HETATM    6  C1  UNL     1      21.709  -0.740  54.755  1.00  0.00     0.005 C 
ENDBRANCH   3   5
ENDBRANCH   2   3
ENDBRANCH   1   2
BRANCH   1   7
HETATM    7  C7  UNL     1      25.924   2.146  51.611  1.00  0.00    -0.041 C 
HETATM    8  C8  UNL     1      26.513   2.292  50.442  1.00  0.00     0.008 C 
HETATM    9  C9  UNL     1      26.195   3.520  49.737  1.00  0.00     0.028 C 
HETATM   10  C10 UNL     1      25.369   4.222  50.466  1.00  0.00     0.041 A 
HETATM   11  N1  UNL     1      24.527   5.292  50.871  1.00  0.00    -0.282 N 
HETATM   12  C12 UNL     1      24.974   3.186  51.407  1.00  0.00     0.110 A 
HETATM   13  N2  UNL     1      23.810   4.941  51.989  1.00  0.00    -0.190 NA
HETATM   14  H15 UNL     1      24.580   6.168  50.265  1.00  0.00     0.189 HD
HETATM   15  C11 UNL     1      24.057   3.729  52.356  1.00  0.00     0.127 A 
ENDBRANCH   1   7
BRANCH   1  16
HETATM   16  N3  UNL     1      27.011   0.775  53.167  1.00  0.00    -0.181 N 
HETATM   17  C13 UNL     1      27.307  -0.509  52.870  1.00  0.00     0.111 A 
HETATM   18  C14 UNL     1      28.537  -1.063  53.207  1.00  0.00     0.038 A 
HETATM   19  C15 UNL     1      29.436  -0.217  53.867  1.00  0.00     0.138 A 
HETATM   20  N4  UNL     1      29.097   1.066  54.145  1.00  0.00    -0.075 NA
HETATM   21  C16 UNL     1      27.881   1.552  53.790  1.00  0.00     0.721 A 
BRANCH  21  22
HETATM   22  N5  UNL     1      27.700   2.752  54.105  1.00  0.00    -0.116 NA
HETATM   23  H21 UNL     1      27.228   3.214  54.868  1.00  0.00     0.206 HD
ENDBRANCH  21  22
ENDBRANCH   1  16
TORSDOF 6
ENDMDL
MODEL 3
REMARK VINA RESULT:      -7.5      2.688      3.426
REMARK  6 active torsions:
REMARK  status: ('A' for Active; 'I' for Inactive)
REMARK    1  A    between atoms: C2_2  and  C3_3 
REMARK    2  A    between atoms: C3_3  and  C5_5 
REMARK    3  A    between atoms: C5_5  and  C6_6 
REMARK    4  A    between atoms: C6_6  and  C7_7 
REMARK    5  A    between atoms: C6_6  and  N3_15 
REMARK    6  A    between atoms: C16_20  and  N5_21 
ROOT
HETATM    1  C6  UNL     1      26.045   2.545  51.604  1.00  0.00     0.138 C 
ENDROOT
BRANCH   1   2
HETATM    2  C5  UNL     1      26.398   2.924  50.209  1.00  0.00     0.035 C 
BRANCH   2   3
HETATM    3  C3  UNL     1      26.360   4.369  49.865  1.00  0.00    -0.017 C 
HETATM    4  C4  UNL     1      27.467   4.572  48.802  1.00  0.00     0.010 C 
BRANCH   3   5
HETATM    5  C2  UNL     1      25.076   4.731  49.099  1.00  0.00    -0.000 C 
HETATM    6  C1  UNL     1      24.334   5.749  49.921  1.00  0.00     0.005 C 
ENDBRANCH   3   5
ENDBRANCH   2   3
ENDBRANCH   1   2
BRANCH   1   7
HETATM    7  C7  UNL     1      26.538   1.271  52.092  1.00  0.00    -0.041 C 
HETATM    8  C8  UNL     1      26.546  -0.044  52.027  1.00  0.00     0.008 C 
HETATM    9  C9  UNL     1      27.401  -0.707  52.995  1.00  0.00     0.028 C 
HETATM   10  C10 UNL     1      27.979   0.200  53.737  1.00  0.00     0.041 A 
HETATM   11  N1  UNL     1      28.792   0.773  54.751  1.00  0.00    -0.282 N 
HETATM   12  C12 UNL     1      27.695   1.366  52.915  1.00  0.00     0.110 A 
HETATM   13  N2  UNL     1      28.871   2.135  54.588  1.00  0.00    -0.190 NA
HETATM   14  H15 UNL     1      29.199   0.082  55.453  1.00  0.00     0.189 HD
HETATM   15  C11 UNL     1      28.224   2.533  53.545  1.00  0.00     0.127 A 
ENDBRANCH   1   7
BRANCH   1  16
HETATM   16  N3  UNL     1      24.573   2.467  51.652  1.00  0.00    -0.181 N 
HETATM   17  C13 UNL     1      23.880   1.689  50.793  1.00  0.00     0.111 A 
HETATM   18  C14 UNL     1      22.491   1.622  50.841  1.00  0.00     0.038 A 
HETATM   19  C15 UNL     1      21.868   2.402  51.821  1.00  0.00     0.138 A 
HETATM   20  N4  UNL     1      22.604   3.169  52.663  1.00  0.00    -0.075 NA
HETATM   21  C16 UNL     1      23.958   3.194  52.569  1.00  0.00     0.721 A 
BRANCH  21  22
HETATM   22  N5  UNL     1      24.513   3.941  53.409  1.00  0.00    -0.116 NA
HETATM   23  H21 UNL     1      24.320   4.868  53.759  1.00  0.00     0.206 HD
ENDBRANCH  21  22
ENDBRANCH   1  16
TORSDOF 6
ENDMDL
MODEL 4
REMARK VINA RESULT:      -7.1      2.418      4.804
REMARK  6 active torsions:
REMARK  status: ('A' for Active; 'I' for Inactive)
REMARK    1  A    between atoms: C2_2  and  C3_3 
REMARK    2  A    between atoms: C3_3  and  C5_5 
REMARK    3  A    between atoms: C5_5  and  C6_6 
REMARK    4  A    between atoms: C6_6  and  C7_7 
REMARK    5  A    between atoms: C6_6  and  N3_15 
REMARK    6  A    between atoms: C16_20  and  N5_21 
ROOT
HETATM    1  C6  UNL     1      24.429   1.406  52.755  1.00  0.00     0.138 C 
ENDROOT
BRANCH   1   2
HETATM    2  C5  UNL     1      25.512   0.827  51.913  1.00  0.00     0.035 C 
BRANCH   2   3
HETATM    3  C3  UNL     1      26.856   1.453  52.007  1.00  0.00    -0.017 C 
HETATM    4  C4  UNL     1      26.827   2.646  51.019  1.00  0.00     0.010 C 
BRANCH   3   5
HETATM    5  C2  UNL     1      27.063   2.139  53.368  1.00  0.00    -0.000 C 
HETATM    6  C1  UNL     1      28.540   2.365  53.536  1.00  0.00     0.005 C 
ENDBRANCH   3   5
ENDBRANCH   2   3
ENDBRANCH   1   2
BRANCH   1   7
HETATM    7  C7  UNL     1      23.430   0.491  53.274  1.00  0.00    -0.041 C 
HETATM    8  C8  UNL     1      22.212  -0.005  53.228  1.00  0.00     0.008 C 
HETATM    9  C9  UNL     1      21.916  -1.014  54.229  1.00  0.00     0.028 C 
HETATM   10  C10 UNL     1      22.974  -1.191  54.974  1.00  0.00     0.041 A 
HETATM   11  N1  UNL     1      23.810  -1.701  56.003  1.00  0.00    -0.282 N 
HETATM   12  C12 UNL     1      23.950  -0.521  54.129  1.00  0.00     0.110 A 
HETATM   13  N2  UNL     1      25.105  -1.275  55.823  1.00  0.00    -0.190 NA
HETATM   14  H15 UNL     1      23.321  -2.313  56.726  1.00  0.00     0.189 HD
HETATM   15  C11 UNL     1      25.231  -0.560  54.757  1.00  0.00     0.127 A 
ENDBRANCH   1   7
BRANCH   1  16
HETATM   16  N3  UNL     1      23.709   2.367  51.900  1.00  0.00    -0.181 N 
HETATM   17  C13 UNL     1      23.150   1.989  50.730  1.00  0.00     0.111 A 
HETATM   18  C14 UNL     1      22.474   2.901  49.926  1.00  0.00     0.038 A 
HETATM   19  C15 UNL     1      22.413   4.216  50.400  1.00  0.00     0.138 A 
HETATM   20  N4  UNL     1      22.988   4.552  51.580  1.00  0.00    -0.075 NA
HETATM   21  C16 UNL     1      23.634   3.617  52.323  1.00  0.00     0.721 A 
BRANCH  21  22
HETATM   22  N5  UNL     1      24.116   4.061  53.392  1.00  0.00    -0.116 NA
HETATM   23  H21 UNL     1      23.950   3.869  54.369  1.00  0.00     0.206 HD
ENDBRANCH  21  22
ENDBRANCH   1  16
TORSDOF 6
ENDMDL
MODEL 5
REMARK VINA RESULT:      -6.8      2.591      5.843
REMARK  6 active torsions:
REMARK  status: ('A' for Active; 'I' for Inactive)
REMARK    1  A    between atoms: C2_2  and  C3_3 
REMARK    2  A    between atoms: C3_3  and  C5_5 
REMARK    3  A    between atoms: C5_5  and  C6_6 
REMARK    4  A    between atoms: C6_6  and  C7_7 
REMARK    5  A    between atoms: C6_6  and  N3_15 
REMARK    6  A    between atoms: C16_20  and  N5_21 
ROOT
HETATM    1  C6  UNL     1      23.962   1.419  52.546  1.00  0.00     0.138 C 
ENDROOT
BRANCH   1   2
HETATM    2  C5  UNL     1      25.096   0.540  52.151  1.00  0.00     0.035 C 
BRANCH   2   3
HETATM    3  C3  UNL     1      26.447   0.907  52.649  1.00  0.00    -0.017 C 
HETATM    4  C4  UNL     1      26.262   1.222  54.154  1.00  0.00     0.010 C 
BRANCH   3   5
HETATM    5  C2  UNL     1      27.390  -0.309  52.666  1.00  0.00    -0.000 C 
HETATM    6  C1  UNL     1      26.530  -1.543  52.644  1.00  0.00     0.005 C 
ENDBRANCH   3   5
ENDBRANCH   2   3
ENDBRANCH   1   2
BRANCH   1   7
HETATM    7  C7  UNL     1      22.625   0.867  52.437  1.00  0.00    -0.041 C 
HETATM    8  C8  UNL     1      21.484   0.775  51.787  1.00  0.00     0.008 C 
HETATM    9  C9  UNL     1      20.486  -0.080  52.404  1.00  0.00     0.028 C 
HETATM   10  C10 UNL     1      20.978  -0.569  53.511  1.00  0.00     0.041 A 
HETATM   11  N1  UNL     1      21.058  -1.303  54.725  1.00  0.00    -0.282 N 
HETATM   12  C12 UNL     1      22.378  -0.247  53.287  1.00  0.00     0.110 A 
HETATM   13  N2  UNL     1      22.347  -1.303  55.200  1.00  0.00    -0.190 NA
HETATM   14  H15 UNL     1      20.139  -1.723  55.064  1.00  0.00     0.189 HD
HETATM   15  C11 UNL     1      23.150  -0.676  54.409  1.00  0.00     0.127 A 
ENDBRANCH   1   7
BRANCH   1  16
HETATM   16  N3  UNL     1      24.006   2.583  51.642  1.00  0.00    -0.181 N 
HETATM   17  C13 UNL     1      23.973   2.436  50.300  1.00  0.00     0.111 A 
HETATM   18  C14 UNL     1      24.019   3.538  49.452  1.00  0.00     0.038 A 
HETATM   19  C15 UNL     1      24.102   4.790  50.071  1.00  0.00     0.138 A 
HETATM   20  N4  UNL     1      24.133   4.892  51.422  1.00  0.00    -0.075 NA
HETATM   21  C16 UNL     1      24.084   3.780  52.199  1.00  0.00     0.721 A 
BRANCH  21  22
HETATM   22  N5  UNL     1      24.117   4.017  53.430  1.00  0.00    -0.116 NA
HETATM   23  H21 UNL     1      24.717   4.572  54.022  1.00  0.00     0.206 HD
ENDBRANCH  21  22
ENDBRANCH   1  16
TORSDOF 6
ENDMDL
MODEL 6
REMARK VINA RESULT:      -6.5      2.434      4.579
REMARK  6 active torsions:
REMARK  status: ('A' for Active; 'I' for Inactive)
REMARK    1  A    between atoms: C2_2  and  C3_3 
REMARK    2  A    between atoms: C3_3  and  C5_5 
REMARK    3  A    between atoms: C5_5  and  C6_6 
REMARK    4  A    between atoms: C6_6  and  C7_7 
REMARK    5  A    between atoms: C6_6  and  N3_15 
REMARK    6  A    between atoms: C16_20  and  N5_21 
ROOT
HETATM    1  C6  UNL     1      24.987   1.354  52.335  1.00  0.00     0.138 C 
ENDROOT
BRANCH   1   2
HETATM    2  C5  UNL     1      23.788   0.981  53.135  1.00  0.00     0.035 C 
BRANCH   2   3
HETATM    3  C3  UNL     1      22.857  -0.014  52.542  1.00  0.00    -0.017 C 
HETATM    4  C4  UNL     1      22.464  -0.958  53.705  1.00  0.00     0.010 C 
BRANCH   3   5
HETATM    5  C2  UNL     1      21.516   0.633  52.156  1.00  0.00    -0.000 C 
HETATM    6  C1  UNL     1      21.461   0.689  50.654  1.00  0.00     0.005 C 
ENDBRANCH   3   5
ENDBRANCH   2   3
ENDBRANCH   1   2
BRANCH   1   7
HETATM    7  C7  UNL     1      26.265   1.368  53.021  1.00  0.00    -0.041 C 
HETATM    8  C8  UNL     1      27.196   2.030  53.675  1.00  0.00     0.008 C 
HETATM    9  C9  UNL     1      28.349   1.246  54.076  1.00  0.00     0.028 C 
HETATM   10  C10 UNL     1      28.184   0.016  53.667  1.00  0.00     0.041 A 
HETATM   11  N1  UNL     1      28.452  -1.360  53.436  1.00  0.00    -0.282 N 
HETATM   12  C12 UNL     1      26.765   0.079  53.358  1.00  0.00     0.110 A 
HETATM   13  N2  UNL     1      27.335  -1.989  52.942  1.00  0.00    -0.190 NA
HETATM   14  H15 UNL     1      29.442  -1.677  53.675  1.00  0.00     0.189 HD
HETATM   15  C11 UNL     1      26.331  -1.184  52.852  1.00  0.00     0.127 A 
ENDBRANCH   1   7
BRANCH   1  16
HETATM   16  N3  UNL     1      24.755   2.731  51.860  1.00  0.00    -0.181 N 
HETATM   17  C13 UNL     1      23.867   3.547  52.469  1.00  0.00     0.111 A 
HETATM   18  C14 UNL     1      23.650   4.843  52.014  1.00  0.00     0.038 A 
HETATM   19  C15 UNL     1      24.399   5.241  50.901  1.00  0.00     0.138 A 
HETATM   20  N4  UNL     1      25.280   4.390  50.322  1.00  0.00    -0.075 NA
HETATM   21  C16 UNL     1      25.450   3.135  50.811  1.00  0.00     0.721 A 
BRANCH  21  22
HETATM   22  N5  UNL     1      26.296   2.454  50.184  1.00  0.00    -0.116 NA
HETATM   23  H21 UNL     1      26.326   2.051  49.259  1.00  0.00     0.206 HD
ENDBRANCH  21  22
ENDBRANCH   1  16
TORSDOF 6
ENDMDL
MODEL 7
REMARK VINA RESULT:      -6.4      3.048      5.571
REMARK  6 active torsions:
REMARK  status: ('A' for Active; 'I' for Inactive)
REMARK    1  A    between atoms: C2_2  and  C3_3 
REMARK    2  A    between atoms: C3_3  and  C5_5 
REMARK    3  A    between atoms: C5_5  and  C6_6 
REMARK    4  A    between atoms: C6_6  and  C7_7 
REMARK    5  A    between atoms: C6_6  and  N3_15 
REMARK    6  A    between atoms: C16_20  and  N5_21 
ROOT
HETATM    1  C6  UNL     1      23.815   1.357  51.937  1.00  0.00     0.138 C 
ENDROOT
BRANCH   1   2
HETATM    2  C5  UNL     1      24.868   0.602  52.670  1.00  0.00     0.035 C 
BRANCH   2   3
HETATM    3  C3  UNL     1      26.160   0.382  51.970  1.00  0.00    -0.017 C 
HETATM    4  C4  UNL     1      27.135   1.429  52.562  1.00  0.00     0.010 C 
BRANCH   3   5
HETATM    5  C2  UNL     1      26.802  -0.955  52.379  1.00  0.00    -0.000 C 
HETATM    6  C1  UNL     1      28.029  -0.635  53.188  1.00  0.00     0.005 C 
ENDBRANCH   3   5
ENDBRANCH   2   3
ENDBRANCH   1   2
BRANCH   1   7
HETATM    7  C7  UNL     1      23.747   2.789  52.161  1.00  0.00    -0.041 C 
HETATM    8  C8  UNL     1      23.644   3.805  52.992  1.00  0.00     0.008 C 
HETATM    9  C9  UNL     1      23.624   5.116  52.368  1.00  0.00     0.028 C 
HETATM   10  C10 UNL     1      23.710   4.966  51.073  1.00  0.00     0.041 A 
HETATM   11  N1  UNL     1      23.770   5.300  49.693  1.00  0.00    -0.282 N 
HETATM   12  C12 UNL     1      24.137   3.576  51.042  1.00  0.00     0.110 A 
HETATM   13  N2  UNL     1      24.088   4.192  48.946  1.00  0.00    -0.190 NA
HETATM   14  H15 UNL     1      23.567   6.321  49.463  1.00  0.00     0.189 HD
HETATM   15  C11 UNL     1      24.285   3.154  49.686  1.00  0.00     0.127 A 
ENDBRANCH   1   7
BRANCH   1  16
HETATM   16  N3  UNL     1      22.523   0.804  52.384  1.00  0.00    -0.181 N 
HETATM   17  C13 UNL     1      22.296   0.502  53.681  1.00  0.00     0.111 A 
HETATM   18  C14 UNL     1      21.076  -0.023  54.096  1.00  0.00     0.038 A 
HETATM   19  C15 UNL     1      20.115  -0.214  53.098  1.00  0.00     0.138 A 
HETATM   20  N4  UNL     1      20.385   0.103  51.809  1.00  0.00    -0.075 NA
HETATM   21  C16 UNL     1      21.595   0.613  51.463  1.00  0.00     0.721 A 
BRANCH  21  22
HETATM   22  N5  UNL     1      21.710   0.866  50.240  1.00  0.00    -0.116 NA
HETATM   23  H21 UNL     1      22.222   0.440  49.481  1.00  0.00     0.206 HD
ENDBRANCH  21  22
ENDBRANCH   1  16
TORSDOF 6
ENDMDL
MODEL 8
REMARK VINA RESULT:      -6.4      3.589      6.842
REMARK  6 active torsions:
REMARK  status: ('A' for Active; 'I' for Inactive)
REMARK    1  A    between atoms: C2_2  and  C3_3 
REMARK    2  A    between atoms: C3_3  and  C5_5 
REMARK    3  A    between atoms: C5_5  and  C6_6 
REMARK    4  A    between atoms: C6_6  and  C7_7 
REMARK    5  A    between atoms: C6_6  and  N3_15 
REMARK    6  A    between atoms: C16_20  and  N5_21 
ROOT
HETATM    1  C6  UNL     1      24.546   3.030  50.981  1.00  0.00     0.138 C 
ENDROOT
BRANCH   1   2
HETATM    2  C5  UNL     1      25.922   2.480  50.842  1.00  0.00     0.035 C 
BRANCH   2   3
HETATM    3  C3  UNL     1      26.524   1.841  52.041  1.00  0.00    -0.017 C 
HETATM    4  C4  UNL     1      25.581   2.197  53.217  1.00  0.00     0.010 C 
BRANCH   3   5
HETATM    5  C2  UNL     1      26.423   0.308  51.971  1.00  0.00    -0.000 C 
HETATM    6  C1  UNL     1      25.760  -0.156  53.239  1.00  0.00     0.005 C 
ENDBRANCH   3   5
ENDBRANCH   2   3
ENDBRANCH   1   2
BRANCH   1   7
HETATM    7  C7  UNL     1      23.554   2.589  50.019  1.00  0.00    -0.041 C 
HETATM    8  C8  UNL     1      23.096   2.575  48.785  1.00  0.00     0.008 C 
HETATM    9  C9  UNL     1      21.871   1.822  48.587  1.00  0.00     0.028 C 
HETATM   10  C10 UNL     1      21.495   1.321  49.734  1.00  0.00     0.041 A 
HETATM   11  N1  UNL     1      20.717   0.614  50.689  1.00  0.00    -0.282 N 
HETATM   12  C12 UNL     1      22.731   1.521  50.473  1.00  0.00     0.110 A 
HETATM   13  N2  UNL     1      21.394   0.518  51.881  1.00  0.00    -0.190 NA
HETATM   14  H15 UNL     1      19.765   0.280  50.344  1.00  0.00     0.189 HD
HETATM   15  C11 UNL     1      22.564   1.057  51.813  1.00  0.00     0.127 A 
ENDBRANCH   1   7
BRANCH   1  16
HETATM   16  N3  UNL     1      24.666   4.490  50.814  1.00  0.00    -0.181 N 
HETATM   17  C13 UNL     1      25.537   5.031  49.935  1.00  0.00     0.111 A 
HETATM   18  C14 UNL     1      25.648   6.410  49.785  1.00  0.00     0.038 A 
HETATM   19  C15 UNL     1      24.811   7.188  50.592  1.00  0.00     0.138 A 
HETATM   20  N4  UNL     1      23.951   6.603  51.461  1.00  0.00    -0.075 NA
HETATM   21  C16 UNL     1      23.887   5.251  51.564  1.00  0.00     0.721 A 
BRANCH  21  22
HETATM   22  N5  UNL     1      23.048   4.844  52.402  1.00  0.00    -0.116 NA
HETATM   23  H21 UNL     1      22.518   5.288  53.137  1.00  0.00     0.206 HD
ENDBRANCH  21  22
ENDBRANCH   1  16
TORSDOF 6
ENDMDL
MODEL 9
REMARK VINA RESULT:      -6.1      3.519      6.221
REMARK  6 active torsions:
REMARK  status: ('A' for Active; 'I' for Inactive)
REMARK    1  A    between atoms: C2_2  and  C3_3 
REMARK    2  A    between atoms: C3_3  and  C5_5 
REMARK    3  A    between atoms: C5_5  and  C6_6 
REMARK    4  A    between atoms: C6_6  and  C7_7 
REMARK    5  A    between atoms: C6_6  and  N3_15 
REMARK    6  A    between atoms: C16_20  and  N5_21 
ROOT
HETATM    1  C6  UNL     1      24.132   3.480  51.262  1.00  0.00     0.138 C 
ENDROOT
BRANCH   1   2
HETATM    2  C5  UNL     1      23.763   4.713  52.009  1.00  0.00     0.035 C 
BRANCH   2   3
HETATM    3  C3  UNL     1      23.670   5.977  51.233  1.00  0.00    -0.017 C 
HETATM    4  C4  UNL     1      24.751   5.866  50.130  1.00  0.00     0.010 C 
BRANCH   3   5
HETATM    5  C2  UNL     1      22.362   6.046  50.427  1.00  0.00    -0.000 C 
HETATM    6  C1  UNL     1      21.665   7.322  50.811  1.00  0.00     0.005 C 
ENDBRANCH   3   5
ENDBRANCH   2   3
ENDBRANCH   1   2
BRANCH   1   7
HETATM    7  C7  UNL     1      23.116   2.452  51.133  1.00  0.00    -0.041 C 
HETATM    8  C8  UNL     1      22.294   1.591  51.695  1.00  0.00     0.008 C 
HETATM    9  C9  UNL     1      21.506   0.794  50.773  1.00  0.00     0.028 C 
HETATM   10  C10 UNL     1      21.819   1.133  49.550  1.00  0.00     0.041 A 
HETATM   11  N1  UNL     1      21.826   1.143  48.130  1.00  0.00    -0.282 N 
HETATM   12  C12 UNL     1      22.525   2.371  49.842  1.00  0.00     0.110 A 
HETATM   13  N2  UNL     1      22.552   2.212  47.663  1.00  0.00    -0.190 NA
HETATM   14  H15 UNL     1      21.286   0.350  47.666  1.00  0.00     0.189 HD
HETATM   15  C11 UNL     1      23.003   2.943  48.625  1.00  0.00     0.127 A 
ENDBRANCH   1   7
BRANCH   1  16
HETATM   16  N3  UNL     1      25.252   2.867  52.001  1.00  0.00    -0.181 N 
HETATM   17  C13 UNL     1      25.136   2.528  53.303  1.00  0.00     0.111 A 
HETATM   18  C14 UNL     1      26.197   1.954  53.996  1.00  0.00     0.038 A 
HETATM   19  C15 UNL     1      27.375   1.754  53.267  1.00  0.00     0.138 A 
HETATM   20  N4  UNL     1      27.447   2.110  51.961  1.00  0.00    -0.075 NA
HETATM   21  C16 UNL     1      26.378   2.666  51.337  1.00  0.00     0.721 A 
BRANCH  21  22
HETATM   22  N5  UNL     1      26.579   2.943  50.131  1.00  0.00    -0.116 NA
HETATM   23  H21 UNL     1      27.068   2.482  49.378  1.00  0.00     0.206 HD
ENDBRANCH  21  22
ENDBRANCH   1  16
TORSDOF 6
ENDMDL
