MODEL 1
REMARK VINA RESULT:      -8.7      0.000      0.000
REMARK  3 active torsions:
REMARK  status: ('A' for Active; 'I' for Inactive)
REMARK       I    between atoms: C2_2  and  N1_4 
REMARK    1  A    between atoms: N1_4  and  C3_5 
REMARK    2  A    between atoms: C8_12  and  N4_13 
REMARK    3  A    between atoms: N4_13  and  C9_14 
ROOT
HETATM    1  C3  UNL     1      24.375  -0.294  53.772  1.00  0.00     0.035 A 
HETATM    2  C4  UNL     1      25.138  -0.599  54.860  1.00  0.00     0.032 A 
HETATM    3  C5  UNL     1      26.400  -0.101  55.109  1.00  0.00     0.035 A 
HETATM    4  C6  UNL     1      26.888   0.769  54.160  1.00  0.00     0.072 A 
HETATM    5  N2  UNL     1      28.131   1.263  54.402  1.00  0.00    -0.241 NA
HETATM    6  C7  UNL     1      28.682   2.120  53.524  1.00  0.00     0.236 A 
HETATM    7  N3  UNL     1      28.022   2.474  52.446  1.00  0.00    -0.224 NA
HETATM    8  C8  UNL     1      26.800   2.010  52.174  1.00  0.00     0.142 A 
HETATM    9  C15 UNL     1      26.185   1.131  53.034  1.00  0.00     0.041 A 
HETATM   10  C16 UNL     1      24.952   0.584  52.884  1.00  0.00     0.047 A 
ENDROOT
BRANCH   8  11
HETATM   11  N4  UNL     1      26.101   2.403  51.005  1.00  0.00    -0.340 N 
HETATM   12  H8  UNL     1      25.488   1.760  50.486  1.00  0.00     0.167 HD
BRANCH  11  13
HETATM   13  C9  UNL     1      26.078   3.652  50.330  1.00  0.00     0.035 A 
HETATM   14  C10 UNL     1      26.964   4.045  49.328  1.00  0.00     0.029 A 
HETATM   15  C11 UNL     1      26.918   5.254  48.686  1.00  0.00     0.004 A 
HETATM   16  C12 UNL     1      25.952   6.173  49.016  1.00  0.00     0.019 A 
HETATM   17  C13 UNL     1      25.049   5.842  49.996  1.00  0.00     0.013 A 
HETATM   18 BR1  UNL     1      23.743   7.172  50.394  1.00  0.00    -0.051 Br
HETATM   19  C14 UNL     1      25.143   4.620  50.603  1.00  0.00     0.048 A 
ENDBRANCH  11  13
ENDBRANCH   8  11
BRANCH   1  20
HETATM   20  N1  UNL     1      23.083  -0.777  53.475  1.00  0.00    -0.327 N 
HETATM   21  C2  UNL     1      22.076  -1.235  54.346  1.00  0.00     0.218 C 
HETATM   22  C1  UNL     1      20.735  -1.731  53.948  1.00  0.00     0.117 C 
HETATM   23  O1  UNL     1      22.316  -1.234  55.576  1.00  0.00    -0.274 OA
HETATM   24  H4  UNL     1      22.742  -0.836  52.490  1.00  0.00     0.169 HD
ENDBRANCH   1  20
TORSDOF 3
ENDMDL
MODEL 2
REMARK VINA RESULT:      -8.6      2.460      4.758
REMARK  3 active torsions:
REMARK  status: ('A' for Active; 'I' for Inactive)
REMARK       I    between atoms: C2_2  and  N1_4 
REMARK    1  A    between atoms: N1_4  and  C3_5 
REMARK    2  A    between atoms: C8_12  and  N4_13 
REMARK    3  A    between atoms: N4_13  and  C9_14 
ROOT
HETATM    1  C3  UNL     1      24.911  -0.763  54.373  1.00  0.00     0.035 A 
HETATM    2  C4  UNL     1      24.114  -1.309  55.336  1.00  0.00     0.032 A 
HETATM    3  C5  UNL     1      22.736  -1.265  55.345  1.00  0.00     0.035 A 
HETATM    4  C6  UNL     1      22.161  -0.610  54.280  1.00  0.00     0.072 A 
HETATM    5  N2  UNL     1      20.801  -0.565  54.284  1.00  0.00    -0.241 NA
HETATM    6  C7  UNL     1      20.160   0.057  53.280  1.00  0.00     0.236 A 
HETATM    7  N3  UNL     1      20.842   0.613  52.305  1.00  0.00    -0.224 NA
HETATM    8  C8  UNL     1      22.176   0.590  52.266  1.00  0.00     0.142 A 
HETATM    9  C15 UNL     1      22.888  -0.031  53.265  1.00  0.00     0.041 A 
HETATM   10  C16 UNL     1      24.239  -0.131  53.352  1.00  0.00     0.047 A 
ENDROOT
BRANCH   8  11
HETATM   11  N4  UNL     1      22.897   1.195  51.206  1.00  0.00    -0.340 N 
HETATM   12  H8  UNL     1      23.152   0.684  50.350  1.00  0.00     0.167 HD
BRANCH  11  13
HETATM   13  C9  UNL     1      23.395   2.519  51.078  1.00  0.00     0.035 A 
HETATM   14  C10 UNL     1      22.806   3.658  51.624  1.00  0.00     0.029 A 
HETATM   15  C11 UNL     1      23.309   4.927  51.493  1.00  0.00     0.004 A 
HETATM   16  C12 UNL     1      24.467   5.138  50.785  1.00  0.00     0.019 A 
HETATM   17  C13 UNL     1      25.093   4.053  50.224  1.00  0.00     0.013 A 
HETATM   18 BR1  UNL     1      26.692   4.434  49.260  1.00  0.00    -0.051 Br
HETATM   19  C14 UNL     1      24.546   2.810  50.388  1.00  0.00     0.048 A 
ENDBRANCH  11  13
ENDBRANCH   8  11
BRANCH   1  20
HETATM   20  N1  UNL     1      26.320  -0.782  54.320  1.00  0.00    -0.327 N 
HETATM   21  C2  UNL     1      27.240   0.248  54.593  1.00  0.00     0.218 C 
HETATM   22  C1  UNL     1      28.719   0.143  54.513  1.00  0.00     0.117 C 
HETATM   23  O1  UNL     1      26.790   1.366  54.936  1.00  0.00    -0.274 OA
HETATM   24  H4  UNL     1      26.839  -1.647  54.050  1.00  0.00     0.169 HD
ENDBRANCH   1  20
TORSDOF 3
ENDMDL
MODEL 3
REMARK VINA RESULT:      -8.4      2.314      3.978
REMARK  3 active torsions:
REMARK  status: ('A' for Active; 'I' for Inactive)
REMARK       I    between atoms: C2_2  and  N1_4 
REMARK    1  A    between atoms: N1_4  and  C3_5 
REMARK    2  A    between atoms: C8_12  and  N4_13 
REMARK    3  A    between atoms: N4_13  and  C9_14 
ROOT
HETATM    1  C3  UNL     1      26.439  -0.066  52.758  1.00  0.00     0.035 A 
HETATM    2  C4  UNL     1      25.345  -0.380  53.508  1.00  0.00     0.032 A 
HETATM    3  C5  UNL     1      24.105   0.212  53.391  1.00  0.00     0.035 A 
HETATM    4  C6  UNL     1      24.010   1.192  52.429  1.00  0.00     0.072 A 
HETATM    5  N2  UNL     1      22.788   1.778  52.309  1.00  0.00    -0.241 NA
HETATM    6  C7  UNL     1      22.609   2.745  51.393  1.00  0.00     0.236 A 
HETATM    7  N3  UNL     1      23.604   3.116  50.621  1.00  0.00    -0.224 NA
HETATM    8  C8  UNL     1      24.818   2.565  50.710  1.00  0.00     0.142 A 
HETATM    9  C15 UNL     1      25.061   1.571  51.628  1.00  0.00     0.041 A 
HETATM   10  C16 UNL     1      26.239   0.925  51.824  1.00  0.00     0.047 A 
ENDROOT
BRANCH   8  11
HETATM   11  N4  UNL     1      25.882   2.977  49.869  1.00  0.00    -0.340 N 
HETATM   12  H8  UNL     1      26.509   2.307  49.405  1.00  0.00     0.167 HD
BRANCH  11  13
HETATM   13  C9  UNL     1      26.302   4.282  49.499  1.00  0.00     0.035 A 
HETATM   14  C10 UNL     1      27.459   4.584  48.782  1.00  0.00     0.029 A 
HETATM   15  C11 UNL     1      27.841   5.852  48.430  1.00  0.00     0.004 A 
HETATM   16  C12 UNL     1      27.063   6.929  48.783  1.00  0.00     0.019 A 
HETATM   17  C13 UNL     1      25.911   6.693  49.490  1.00  0.00     0.013 A 
HETATM   18 BR1  UNL     1      24.892   8.239  49.941  1.00  0.00    -0.051 Br
HETATM   19  C14 UNL     1      25.579   5.406  49.814  1.00  0.00     0.048 A 
ENDBRANCH  11  13
ENDBRANCH   8  11
BRANCH   1  20
HETATM   20  N1  UNL     1      27.724  -0.642  52.841  1.00  0.00    -0.327 N 
HETATM   21  C2  UNL     1      28.749  -0.414  53.779  1.00  0.00     0.218 C 
HETATM   22  C1  UNL     1      30.082  -1.067  53.794  1.00  0.00     0.117 C 
HETATM   23  O1  UNL     1      28.537   0.416  54.694  1.00  0.00    -0.274 OA
HETATM   24  H4  UNL     1      28.043  -1.352  52.145  1.00  0.00     0.169 HD
ENDBRANCH   1  20
TORSDOF 3
ENDMDL
MODEL 4
REMARK VINA RESULT:      -8.2      2.401      4.187
REMARK  3 active torsions:
REMARK  status: ('A' for Active; 'I' for Inactive)
REMARK       I    between atoms: C2_2  and  N1_4 
REMARK    1  A    between atoms: N1_4  and  C3_5 
REMARK    2  A    between atoms: C8_12  and  N4_13 
REMARK    3  A    between atoms: N4_13  and  C9_14 
ROOT
HETATM    1  C3  UNL     1      25.213   0.473  53.739  1.00  0.00     0.035 A 
HETATM    2  C4  UNL     1      24.232  -0.474  53.718  1.00  0.00     0.032 A 
HETATM    3  C5  UNL     1      23.005  -0.331  53.104  1.00  0.00     0.035 A 
HETATM    4  C6  UNL     1      22.797   0.876  52.477  1.00  0.00     0.072 A 
HETATM    5  N2  UNL     1      21.589   1.021  51.869  1.00  0.00    -0.241 NA
HETATM    6  C7  UNL     1      21.305   2.170  51.233  1.00  0.00     0.236 A 
HETATM    7  N3  UNL     1      22.188   3.141  51.199  1.00  0.00    -0.224 NA
HETATM    8  C8  UNL     1      23.385   3.037  51.783  1.00  0.00     0.142 A 
HETATM    9  C15 UNL     1      23.732   1.885  52.449  1.00  0.00     0.041 A 
HETATM   10  C16 UNL     1      24.907   1.643  53.083  1.00  0.00     0.047 A 
ENDROOT
BRANCH   8  11
HETATM   11  N4  UNL     1      24.327   4.094  51.737  1.00  0.00    -0.340 N 
HETATM   12  H8  UNL     1      24.466   4.744  52.522  1.00  0.00     0.167 HD
BRANCH  11  13
HETATM   13  C9  UNL     1      25.220   4.479  50.701  1.00  0.00     0.035 A 
HETATM   14  C10 UNL     1      26.229   3.678  50.168  1.00  0.00     0.029 A 
HETATM   15  C11 UNL     1      27.075   4.068  49.163  1.00  0.00     0.004 A 
HETATM   16  C12 UNL     1      26.959   5.322  48.613  1.00  0.00     0.019 A 
HETATM   17  C13 UNL     1      25.982   6.156  49.098  1.00  0.00     0.013 A 
HETATM   18 BR1  UNL     1      25.890   7.875  48.281  1.00  0.00    -0.051 Br
HETATM   19  C14 UNL     1      25.166   5.713  50.102  1.00  0.00     0.048 A 
ENDBRANCH  11  13
ENDBRANCH   8  11
BRANCH   1  20
HETATM   20  N1  UNL     1      26.480   0.373  54.351  1.00  0.00    -0.327 N 
HETATM   21  C2  UNL     1      27.689  -0.127  53.832  1.00  0.00     0.218 C 
HETATM   22  C1  UNL     1      28.987  -0.197  54.549  1.00  0.00     0.117 C 
HETATM   23  O1  UNL     1      27.691  -0.561  52.655  1.00  0.00    -0.274 OA
HETATM   24  H4  UNL     1      26.632   0.695  55.333  1.00  0.00     0.169 HD
ENDBRANCH   1  20
TORSDOF 3
ENDMDL
MODEL 5
REMARK VINA RESULT:      -8.2      3.642      6.815
REMARK  3 active torsions:
REMARK  status: ('A' for Active; 'I' for Inactive)
REMARK       I    between atoms: C2_2  and  N1_4 
REMARK    1  A    between atoms: N1_4  and  C3_5 
REMARK    2  A    between atoms: C8_12  and  N4_13 
REMARK    3  A    between atoms: N4_13  and  C9_14 
ROOT
HETATM    1  C3  UNL     1      24.509   3.668  49.831  1.00  0.00     0.035 A 
HETATM    2  C4  UNL     1      23.407   3.157  49.211  1.00  0.00     0.032 A 
HETATM    3  C5  UNL     1      22.611   2.147  49.710  1.00  0.00     0.035 A 
HETATM    4  C6  UNL     1      22.996   1.645  50.933  1.00  0.00     0.072 A 
HETATM    5  N2  UNL     1      22.213   0.650  51.431  1.00  0.00    -0.241 NA
HETATM    6  C7  UNL     1      22.518   0.104  52.620  1.00  0.00     0.236 A 
HETATM    7  N3  UNL     1      23.561   0.531  53.294  1.00  0.00    -0.224 NA
HETATM    8  C8  UNL     1      24.353   1.505  52.839  1.00  0.00     0.142 A 
HETATM    9  C15 UNL     1      24.091   2.102  51.628  1.00  0.00     0.041 A 
HETATM   10  C16 UNL     1      24.807   3.098  51.048  1.00  0.00     0.047 A 
ENDROOT
BRANCH   8  11
HETATM   11  N4  UNL     1      25.476   1.954  53.579  1.00  0.00    -0.340 N 
HETATM   12  H8  UNL     1      25.424   2.747  54.232  1.00  0.00     0.167 HD
BRANCH  11  13
HETATM   13  C9  UNL     1      26.811   1.471  53.598  1.00  0.00     0.035 A 
HETATM   14  C10 UNL     1      27.946   2.247  53.824  1.00  0.00     0.029 A 
HETATM   15  C11 UNL     1      29.226   1.757  53.845  1.00  0.00     0.004 A 
HETATM   16  C12 UNL     1      29.455   0.419  53.636  1.00  0.00     0.019 A 
HETATM   17  C13 UNL     1      28.374  -0.397  53.408  1.00  0.00     0.013 A 
HETATM   18 BR1  UNL     1      28.778  -2.238  53.127  1.00  0.00    -0.051 Br
HETATM   19  C14 UNL     1      27.119   0.148  53.399  1.00  0.00     0.048 A 
ENDBRANCH  11  13
ENDBRANCH   8  11
BRANCH   1  20
HETATM   20  N1  UNL     1      25.351   4.697  49.361  1.00  0.00    -0.327 N 
HETATM   21  C2  UNL     1      26.714   4.649  49.013  1.00  0.00     0.218 C 
HETATM   22  C1  UNL     1      27.532   5.788  48.523  1.00  0.00     0.117 C 
HETATM   23  O1  UNL     1      27.312   3.552  49.119  1.00  0.00    -0.274 OA
HETATM   24  H4  UNL     1      24.992   5.667  49.222  1.00  0.00     0.169 HD
ENDBRANCH   1  20
TORSDOF 3
ENDMDL
MODEL 6
REMARK VINA RESULT:      -8.0      3.052      5.192
REMARK  3 active torsions:
REMARK  status: ('A' for Active; 'I' for Inactive)
REMARK       I    between atoms: C2_2  and  N1_4 
REMARK    1  A    between atoms: N1_4  and  C3_5 
REMARK    2  A    between atoms: C8_12  and  N4_13 
REMARK    3  A    between atoms: N4_13  and  C9_14 
ROOT
HETATM    1  C3  UNL     1      22.327   1.011  51.879  1.00  0.00     0.035 A 
HETATM    2  C4  UNL     1      21.763   1.325  50.678  1.00  0.00     0.032 A 
HETATM    3  C5  UNL     1      22.315   2.171  49.739  1.00  0.00     0.035 A 
HETATM    4  C6  UNL     1      23.530   2.719  50.083  1.00  0.00     0.072 A 
HETATM    5  N2  UNL     1      24.079   3.554  49.160  1.00  0.00    -0.241 NA
HETATM    6  C7  UNL     1      25.265   4.131  49.416  1.00  0.00     0.236 A 
HETATM    7  N3  UNL     1      25.886   3.888  50.547  1.00  0.00    -0.224 NA
HETATM    8  C8  UNL     1      25.380   3.075  51.478  1.00  0.00     0.142 A 
HETATM    9  C15 UNL     1      24.170   2.456  51.272  1.00  0.00     0.041 A 
HETATM   10  C16 UNL     1      23.541   1.609  52.126  1.00  0.00     0.047 A 
ENDROOT
BRANCH   8  11
HETATM   11  N4  UNL     1      26.063   2.824  52.694  1.00  0.00    -0.340 N 
HETATM   12  H8  UNL     1      25.899   3.380  53.544  1.00  0.00     0.167 HD
BRANCH  11  13
HETATM   13  C9  UNL     1      27.042   1.844  53.006  1.00  0.00     0.035 A 
HETATM   14  C10 UNL     1      28.275   2.097  53.606  1.00  0.00     0.029 A 
HETATM   15  C11 UNL     1      29.202   1.134  53.905  1.00  0.00     0.004 A 
HETATM   16  C12 UNL     1      28.944  -0.184  53.614  1.00  0.00     0.019 A 
HETATM   17  C13 UNL     1      27.745  -0.495  53.022  1.00  0.00     0.013 A 
HETATM   18 BR1  UNL     1      27.467  -2.344  52.652  1.00  0.00    -0.051 Br
HETATM   19  C14 UNL     1      26.858   0.508  52.747  1.00  0.00     0.048 A 
ENDBRANCH  11  13
ENDBRANCH   8  11
BRANCH   1  20
HETATM   20  N1  UNL     1      21.802   0.153  52.868  1.00  0.00    -0.327 N 
HETATM   21  C2  UNL     1      22.448  -0.841  53.626  1.00  0.00     0.218 C 
HETATM   22  C1  UNL     1      21.817  -1.706  54.655  1.00  0.00     0.117 C 
HETATM   23  O1  UNL     1      23.672  -1.031  53.429  1.00  0.00    -0.274 OA
HETATM   24  H4  UNL     1      20.795   0.196  53.141  1.00  0.00     0.169 HD
ENDBRANCH   1  20
TORSDOF 3
ENDMDL
MODEL 7
REMARK VINA RESULT:      -7.8      2.412      4.287
REMARK  3 active torsions:
REMARK  status: ('A' for Active; 'I' for Inactive)
REMARK       I    between atoms: C2_2  and  N1_4 
REMARK    1  A    between atoms: N1_4  and  C3_5 
REMARK    2  A    between atoms: C8_12  and  N4_13 
REMARK    3  A    between atoms: N4_13  and  C9_14 
ROOT
HETATM    1  C3  UNL     1      26.077  -0.252  53.104  1.00  0.00     0.035 A 
HETATM    2  C4  UNL     1      25.272  -0.877  54.010  1.00  0.00     0.032 A 
HETATM    3  C5  UNL     1      23.923  -0.642  54.169  1.00  0.00     0.035 A 
HETATM    4  C6  UNL     1      23.388   0.306  53.325  1.00  0.00     0.072 A 
HETATM    5  N2  UNL     1      22.056   0.541  53.477  1.00  0.00    -0.241 NA
HETATM    6  C7  UNL     1      21.454   1.452  52.693  1.00  0.00     0.236 A 
HETATM    7  N3  UNL     1      22.147   2.105  51.789  1.00  0.00    -0.224 NA
HETATM    8  C8  UNL     1      23.455   1.902  51.611  1.00  0.00     0.142 A 
HETATM    9  C15 UNL     1      24.126   0.984  52.383  1.00  0.00     0.041 A 
HETATM   10  C16 UNL     1      25.446   0.677  52.309  1.00  0.00     0.047 A 
ENDROOT
BRANCH   8  11
HETATM   11  N4  UNL     1      24.189   2.616  50.630  1.00  0.00    -0.340 N 
HETATM   12  H8  UNL     1      25.125   2.324  50.320  1.00  0.00     0.167 HD
BRANCH  11  13
HETATM   13  C9  UNL     1      23.847   3.790  49.908  1.00  0.00     0.035 A 
HETATM   14  C10 UNL     1      23.257   3.817  48.645  1.00  0.00     0.029 A 
HETATM   15  C11 UNL     1      22.929   4.963  47.969  1.00  0.00     0.004 A 
HETATM   16  C12 UNL     1      23.180   6.191  48.533  1.00  0.00     0.019 A 
HETATM   17  C13 UNL     1      23.760   6.228  49.777  1.00  0.00     0.013 A 
HETATM   18 BR1  UNL     1      24.073   7.968  50.486  1.00  0.00    -0.051 Br
HETATM   19  C14 UNL     1      24.065   5.051  50.404  1.00  0.00     0.048 A 
ENDBRANCH  11  13
ENDBRANCH   8  11
BRANCH   1  20
HETATM   20  N1  UNL     1      27.458  -0.459  52.905  1.00  0.00    -0.327 N 
HETATM   21  C2  UNL     1      28.511  -0.432  53.839  1.00  0.00     0.218 C 
HETATM   22  C1  UNL     1      29.948  -0.661  53.545  1.00  0.00     0.117 C 
HETATM   23  O1  UNL     1      28.231  -0.191  55.038  1.00  0.00    -0.274 OA
HETATM   24  H4  UNL     1      27.842  -0.669  51.958  1.00  0.00     0.169 HD
ENDBRANCH   1  20
TORSDOF 3
ENDMDL
MODEL 8
REMARK VINA RESULT:      -7.8      3.335      6.829
REMARK  3 active torsions:
REMARK  status: ('A' for Active; 'I' for Inactive)
REMARK       I    between atoms: C2_2  and  N1_4 
REMARK    1  A    between atoms: N1_4  and  C3_5 
REMARK    2  A    between atoms: C8_12  and  N4_13 
REMARK    3  A    between atoms: N4_13  and  C9_14 
ROOT
HETATM    1  C3  UNL     1      26.364   2.327  51.717  1.00  0.00     0.035 A 
HETATM    2  C4  UNL     1      26.627   2.780  50.458  1.00  0.00     0.032 A 
HETATM    3  C5  UNL     1      25.676   3.189  49.546  1.00  0.00     0.035 A 
HETATM    4  C6  UNL     1      24.373   3.118  49.984  1.00  0.00     0.072 A 
HETATM    5  N2  UNL     1      23.431   3.521  49.088  1.00  0.00    -0.241 NA
HETATM    6  C7  UNL     1      22.133   3.483  49.435  1.00  0.00     0.236 A 
HETATM    7  N3  UNL     1      21.781   3.063  50.628  1.00  0.00    -0.224 NA
HETATM    8  C8  UNL     1      22.676   2.659  51.534  1.00  0.00     0.142 A 
HETATM    9  C15 UNL     1      24.018   2.675  51.237  1.00  0.00     0.041 A 
HETATM   10  C16 UNL     1      25.031   2.296  52.057  1.00  0.00     0.047 A 
ENDROOT
BRANCH   8  11
HETATM   11  N4  UNL     1      22.279   2.208  52.818  1.00  0.00    -0.340 N 
HETATM   12  H8  UNL     1      22.286   2.821  53.644  1.00  0.00     0.167 HD
BRANCH  11  13
HETATM   13  C9  UNL     1      21.821   0.931  53.237  1.00  0.00     0.035 A 
HETATM   14  C10 UNL     1      22.605  -0.048  53.845  1.00  0.00     0.029 A 
HETATM   15  C11 UNL     1      22.139  -1.272  54.248  1.00  0.00     0.004 A 
HETATM   16  C12 UNL     1      20.818  -1.601  54.062  1.00  0.00     0.019 A 
HETATM   17  C13 UNL     1      19.996  -0.676  53.467  1.00  0.00     0.013 A 
HETATM   18 BR1  UNL     1      18.181  -1.213  53.246  1.00  0.00    -0.051 Br
HETATM   19  C14 UNL     1      20.517   0.530  53.086  1.00  0.00     0.048 A 
ENDBRANCH  11  13
ENDBRANCH   8  11
BRANCH   1  20
HETATM   20  N1  UNL     1      27.300   1.900  52.682  1.00  0.00    -0.327 N 
HETATM   21  C2  UNL     1      27.712   0.595  53.013  1.00  0.00     0.218 C 
HETATM   22  C1  UNL     1      28.710   0.230  54.050  1.00  0.00     0.117 C 
HETATM   23  O1  UNL     1      27.200  -0.362  52.386  1.00  0.00    -0.274 OA
HETATM   24  H4  UNL     1      27.808   2.586  53.282  1.00  0.00     0.169 HD
ENDBRANCH   1  20
TORSDOF 3
ENDMDL
MODEL 9
REMARK VINA RESULT:      -7.7      4.163      6.427
REMARK  3 active torsions:
REMARK  status: ('A' for Active; 'I' for Inactive)
REMARK       I    between atoms: C2_2  and  N1_4 
REMARK    1  A    between atoms: N1_4  and  C3_5 
REMARK    2  A    between atoms: C8_12  and  N4_13 
REMARK    3  A    between atoms: N4_13  and  C9_14 
ROOT
HETATM    1  C3  UNL     1      20.372   0.843  50.370  1.00  0.00     0.035 A 
HETATM    2  C4  UNL     1      19.333   0.399  51.133  1.00  0.00     0.032 A 
HETATM    3  C5  UNL     1      19.446  -0.107  52.411  1.00  0.00     0.035 A 
HETATM    4  C6  UNL     1      20.726  -0.148  52.917  1.00  0.00     0.072 A 
HETATM    5  N2  UNL     1      20.843  -0.645  54.178  1.00  0.00    -0.241 NA
HETATM    6  C7  UNL     1      22.058  -0.720  54.747  1.00  0.00     0.236 A 
HETATM    7  N3  UNL     1      23.120  -0.315  54.090  1.00  0.00    -0.224 NA
HETATM    8  C8  UNL     1      23.046   0.178  52.851  1.00  0.00     0.142 A 
HETATM    9  C15 UNL     1      21.831   0.279  52.217  1.00  0.00     0.041 A 
HETATM   10  C16 UNL     1      21.610   0.760  50.967  1.00  0.00     0.047 A 
ENDROOT
BRANCH   8  11
HETATM   11  N4  UNL     1      24.203   0.611  52.155  1.00  0.00    -0.340 N 
HETATM   12  H8  UNL     1      24.188   0.848  51.154  1.00  0.00     0.167 HD
BRANCH  11  13
HETATM   13  C9  UNL     1      25.531   0.804  52.620  1.00  0.00     0.035 A 
HETATM   14  C10 UNL     1      26.064   2.016  53.056  1.00  0.00     0.029 A 
HETATM   15  C11 UNL     1      27.348   2.179  53.507  1.00  0.00     0.004 A 
HETATM   16  C12 UNL     1      28.202   1.103  53.553  1.00  0.00     0.019 A 
HETATM   17  C13 UNL     1      27.733  -0.118  53.137  1.00  0.00     0.013 A 
HETATM   18 BR1  UNL     1      28.981  -1.554  53.232  1.00  0.00    -0.051 Br
HETATM   19  C14 UNL     1      26.442  -0.220  52.696  1.00  0.00     0.048 A 
ENDBRANCH  11  13
ENDBRANCH   8  11
BRANCH   1  20
HETATM   20  N1  UNL     1      20.306   1.366  49.062  1.00  0.00    -0.327 N 
HETATM   21  C2  UNL     1      20.091   2.691  48.638  1.00  0.00     0.218 C 
HETATM   22  C1  UNL     1      20.035   3.161  47.230  1.00  0.00     0.117 C 
HETATM   23  O1  UNL     1      19.928   3.572  49.515  1.00  0.00    -0.274 OA
HETATM   24  H4  UNL     1      20.424   0.751  48.227  1.00  0.00     0.169 HD
ENDBRANCH   1  20
TORSDOF 3
ENDMDL
