MODEL 1
REMARK VINA RESULT:      -9.7      0.000      0.000
REMARK  6 active torsions:
REMARK  status: ('A' for Active; 'I' for Inactive)
REMARK    1  A    between atoms: O1_1  and  C1_2 
REMARK    2  A    between atoms: C1_2  and  C2_3 
REMARK    3  A    between atoms: C2_3  and  N1_4 
REMARK    4  A    between atoms: C2_3  and  C19_24 
REMARK    5  A    between atoms: N1_4  and  C3_5 
REMARK    6  A    between atoms: C12_16  and  C13_17 
ROOT
HETATM    1  C3  UNL     1      25.194   1.791  52.506  1.00  0.00     0.136 A 
HETATM    2  N2  UNL     1      25.285   2.614  51.452  1.00  0.00    -0.224 NA
HETATM    3  C4  UNL     1      24.224   2.676  50.599  1.00  0.00     0.238 A 
HETATM    4  N3  UNL     1      23.125   1.933  50.814  1.00  0.00    -0.217 NA
HETATM    5  C5  UNL     1      22.984   1.088  51.861  1.00  0.00     0.181 A 
HETATM    6  C6  UNL     1      24.078   1.028  52.735  1.00  0.00     0.044 A 
HETATM    7  C7  UNL     1      23.784   0.064  53.833  1.00  0.00     0.074 C 
HETATM    8  C8  UNL     1      23.122  -1.158  53.272  1.00  0.00    -0.022 C 
HETATM    9  C9  UNL     1      21.896  -1.421  53.626  1.00  0.00    -0.003 C 
HETATM   10  C10 UNL     1      21.353  -0.433  54.552  1.00  0.00     0.015 C 
HETATM   11  C11 UNL     1      20.718   0.651  54.144  1.00  0.00     0.012 C 
HETATM   12  C12 UNL     1      20.774   0.807  52.849  1.00  0.00     0.099 C 
HETATM   13  O2  UNL     1      21.807   0.361  51.997  1.00  0.00    -0.290 OA
ENDROOT
BRANCH   1  14
HETATM   14  N1  UNL     1      26.226   1.643  53.457  1.00  0.00    -0.363 N 
HETATM   15  H5  UNL     1      26.123   1.659  54.489  1.00  0.00     0.162 HD
BRANCH  14  16
HETATM   16  C2  UNL     1      27.561   1.447  52.989  1.00  0.00     0.140 C 
BRANCH  16  17
HETATM   17  C1  UNL     1      28.614   2.209  53.752  1.00  0.00     0.194 C 
BRANCH  17  18
HETATM   18  O1  UNL     1      29.328   3.104  52.982  1.00  0.00    -0.399 OA
HETATM   19  H1  UNL     1      30.032   2.675  52.442  1.00  0.00     0.209 HD
ENDBRANCH  17  18
ENDBRANCH  16  17
BRANCH  16  20
HETATM   20  C19 UNL     1      27.972   0.005  53.028  1.00  0.00    -0.034 A 
HETATM   21  C20 UNL     1      29.226  -0.391  53.484  1.00  0.00     0.009 A 
HETATM   22  C21 UNL     1      29.523  -1.738  53.486  1.00  0.00     0.001 A 
HETATM   23  C22 UNL     1      28.634  -2.704  53.059  1.00  0.00     0.000 A 
HETATM   24  C23 UNL     1      27.379  -2.327  52.602  1.00  0.00     0.001 A 
HETATM   25  C24 UNL     1      27.080  -0.964  52.600  1.00  0.00     0.009 A 
ENDBRANCH  16  20
ENDBRANCH  14  16
ENDBRANCH   1  14
BRANCH  12  26
HETATM   26  C13 UNL     1      19.650   1.518  52.200  1.00  0.00    -0.001 A 
HETATM   27  C14 UNL     1      18.535   0.840  51.746  1.00  0.00     0.014 A 
HETATM   28  C15 UNL     1      17.488   1.531  51.137  1.00  0.00     0.001 A 
HETATM   29  C16 UNL     1      17.536   2.899  50.974  1.00  0.00     0.000 A 
HETATM   30  C17 UNL     1      18.650   3.574  51.428  1.00  0.00     0.001 A 
HETATM   31  C18 UNL     1      19.688   2.887  52.030  1.00  0.00     0.014 A 
ENDBRANCH  12  26
TORSDOF 6
ENDMDL
MODEL 2
REMARK VINA RESULT:      -9.6      1.751      2.695
REMARK  6 active torsions:
REMARK  status: ('A' for Active; 'I' for Inactive)
REMARK    1  A    between atoms: O1_1  and  C1_2 
REMARK    2  A    between atoms: C1_2  and  C2_3 
REMARK    3  A    between atoms: C2_3  and  N1_4 
REMARK    4  A    between atoms: C2_3  and  C19_24 
REMARK    5  A    between atoms: N1_4  and  C3_5 
REMARK    6  A    between atoms: C12_16  and  C13_17 
ROOT
HETATM    1  C3  UNL     1      23.456   2.025  50.817  1.00  0.00     0.136 A 
HETATM    2  N2  UNL     1      22.969   2.222  49.584  1.00  0.00    -0.224 NA
HETATM    3  C4  UNL     1      21.884   1.492  49.204  1.00  0.00     0.238 A 
HETATM    4  N3  UNL     1      21.325   0.603  50.043  1.00  0.00    -0.217 NA
HETATM    5  C5  UNL     1      21.779   0.367  51.296  1.00  0.00     0.181 A 
HETATM    6  C6  UNL     1      22.896   1.122  51.682  1.00  0.00     0.044 A 
HETATM    7  C7  UNL     1      23.282   0.760  53.075  1.00  0.00     0.074 C 
HETATM    8  C8  UNL     1      23.202  -0.727  53.253  1.00  0.00    -0.022 C 
HETATM    9  C9  UNL     1      22.327  -1.207  54.091  1.00  0.00    -0.003 C 
HETATM   10  C10 UNL     1      21.538  -0.167  54.741  1.00  0.00     0.015 C 
HETATM   11  C11 UNL     1      20.406   0.287  54.236  1.00  0.00     0.012 C 
HETATM   12  C12 UNL     1      20.168  -0.179  53.040  1.00  0.00     0.099 C 
HETATM   13  O2  UNL     1      21.133  -0.574  52.089  1.00  0.00    -0.290 OA
ENDROOT
BRANCH   1  14
HETATM   14  N1  UNL     1      24.574   2.724  51.323  1.00  0.00    -0.363 N 
HETATM   15  H5  UNL     1      24.563   3.473  52.041  1.00  0.00     0.162 HD
BRANCH  14  16
HETATM   16  C2  UNL     1      25.870   2.392  50.821  1.00  0.00     0.140 C 
BRANCH  16  17
HETATM   17  C1  UNL     1      26.701   3.574  50.396  1.00  0.00     0.194 C 
BRANCH  17  18
HETATM   18  O1  UNL     1      26.023   4.775  50.420  1.00  0.00    -0.399 OA
HETATM   19  H1  UNL     1      25.084   4.697  50.128  1.00  0.00     0.209 HD
ENDBRANCH  17  18
ENDBRANCH  16  17
BRANCH  16  20
HETATM   20  C19 UNL     1      26.691   1.635  51.822  1.00  0.00    -0.034 A 
HETATM   21  C20 UNL     1      27.537   2.282  52.719  1.00  0.00     0.009 A 
HETATM   22  C21 UNL     1      28.258   1.510  53.607  1.00  0.00     0.001 A 
HETATM   23  C22 UNL     1      28.175   0.133  53.644  1.00  0.00     0.000 A 
HETATM   24  C23 UNL     1      27.336  -0.529  52.757  1.00  0.00     0.001 A 
HETATM   25  C24 UNL     1      26.608   0.254  51.859  1.00  0.00     0.009 A 
ENDBRANCH  16  20
ENDBRANCH  14  16
ENDBRANCH   1  14
BRANCH  12  26
HETATM   26  C13 UNL     1      18.751  -0.313  52.632  1.00  0.00    -0.001 A 
HETATM   27  C14 UNL     1      18.170   0.576  51.749  1.00  0.00     0.014 A 
HETATM   28  C15 UNL     1      16.834   0.430  51.377  1.00  0.00     0.001 A 
HETATM   29  C16 UNL     1      16.063  -0.598  51.877  1.00  0.00     0.000 A 
HETATM   30  C17 UNL     1      16.646  -1.484  52.758  1.00  0.00     0.001 A 
HETATM   31  C18 UNL     1      17.971  -1.337  53.126  1.00  0.00     0.014 A 
ENDBRANCH  12  26
TORSDOF 6
ENDMDL
MODEL 3
REMARK VINA RESULT:      -9.2      3.175      7.077
REMARK  6 active torsions:
REMARK  status: ('A' for Active; 'I' for Inactive)
REMARK    1  A    between atoms: O1_1  and  C1_2 
REMARK    2  A    between atoms: C1_2  and  C2_3 
REMARK    3  A    between atoms: C2_3  and  N1_4 
REMARK    4  A    between atoms: C2_3  and  C19_24 
REMARK    5  A    between atoms: N1_4  and  C3_5 
REMARK    6  A    between atoms: C12_16  and  C13_17 
ROOT
HETATM    1  C3  UNL     1      24.973   1.672  52.604  1.00  0.00     0.136 A 
HETATM    2  N2  UNL     1      26.247   1.449  52.956  1.00  0.00    -0.224 NA
HETATM    3  C4  UNL     1      27.226   1.895  52.121  1.00  0.00     0.238 A 
HETATM    4  N3  UNL     1      26.918   2.535  50.980  1.00  0.00    -0.217 NA
HETATM    5  C5  UNL     1      25.649   2.784  50.579  1.00  0.00     0.181 A 
HETATM    6  C6  UNL     1      24.646   2.324  51.443  1.00  0.00     0.044 A 
HETATM    7  C7  UNL     1      23.310   2.665  50.879  1.00  0.00     0.074 C 
HETATM    8  C8  UNL     1      23.299   2.400  49.403  1.00  0.00    -0.022 C 
HETATM    9  C9  UNL     1      23.150   3.407  48.590  1.00  0.00    -0.003 C 
HETATM   10  C10 UNL     1      23.012   4.680  49.288  1.00  0.00     0.015 C 
HETATM   11  C11 UNL     1      24.049   5.434  49.603  1.00  0.00     0.012 C 
HETATM   12  C12 UNL     1      25.189   4.845  49.363  1.00  0.00     0.099 C 
HETATM   13  O2  UNL     1      25.432   3.455  49.382  1.00  0.00    -0.290 OA
ENDROOT
BRANCH   1  14
HETATM   14  N1  UNL     1      23.874   1.259  53.388  1.00  0.00    -0.363 N 
HETATM   15  H5  UNL     1      23.239   1.871  53.934  1.00  0.00     0.162 HD
BRANCH  14  16
HETATM   16  C2  UNL     1      23.575  -0.136  53.461  1.00  0.00     0.140 C 
BRANCH  16  17
HETATM   17  C1  UNL     1      24.103  -0.830  54.690  1.00  0.00     0.194 C 
BRANCH  17  18
HETATM   18  O1  UNL     1      25.470  -1.021  54.682  1.00  0.00    -0.399 OA
HETATM   19  H1  UNL     1      25.844  -1.176  55.581  1.00  0.00     0.209 HD
ENDBRANCH  17  18
ENDBRANCH  16  17
BRANCH  16  20
HETATM   20  C19 UNL     1      22.099  -0.403  53.427  1.00  0.00    -0.034 A 
HETATM   21  C20 UNL     1      21.509  -1.380  54.225  1.00  0.00     0.009 A 
HETATM   22  C21 UNL     1      20.145  -1.561  54.131  1.00  0.00     0.001 A 
HETATM   23  C22 UNL     1      19.345  -0.818  53.286  1.00  0.00     0.000 A 
HETATM   24  C23 UNL     1      19.916   0.160  52.484  1.00  0.00     0.001 A 
HETATM   25  C24 UNL     1      21.297   0.342  52.579  1.00  0.00     0.009 A 
ENDBRANCH  16  20
ENDBRANCH  14  16
ENDBRANCH   1  14
BRANCH  12  26
HETATM   26  C13 UNL     1      26.347   5.708  49.037  1.00  0.00    -0.001 A 
HETATM   27  C14 UNL     1      26.293   7.078  49.207  1.00  0.00     0.014 A 
HETATM   28  C15 UNL     1      27.396   7.872  48.894  1.00  0.00     0.001 A 
HETATM   29  C16 UNL     1      28.561   7.315  48.410  1.00  0.00     0.000 A 
HETATM   30  C17 UNL     1      28.612   5.947  48.242  1.00  0.00     0.001 A 
HETATM   31  C18 UNL     1      27.517   5.162  48.552  1.00  0.00     0.014 A 
ENDBRANCH  12  26
TORSDOF 6
ENDMDL
MODEL 4
REMARK VINA RESULT:      -9.2      3.719      5.981
REMARK  6 active torsions:
REMARK  status: ('A' for Active; 'I' for Inactive)
REMARK    1  A    between atoms: O1_1  and  C1_2 
REMARK    2  A    between atoms: C1_2  and  C2_3 
REMARK    3  A    between atoms: C2_3  and  N1_4 
REMARK    4  A    between atoms: C2_3  and  C19_24 
REMARK    5  A    between atoms: N1_4  and  C3_5 
REMARK    6  A    between atoms: C12_16  and  C13_17 
ROOT
HETATM    1  C3  UNL     1      25.042   4.297  50.114  1.00  0.00     0.136 A 
HETATM    2  N2  UNL     1      23.870   4.524  49.505  1.00  0.00    -0.224 NA
HETATM    3  C4  UNL     1      22.913   3.558  49.586  1.00  0.00     0.238 A 
HETATM    4  N3  UNL     1      23.144   2.415  50.255  1.00  0.00    -0.217 NA
HETATM    5  C5  UNL     1      24.309   2.137  50.885  1.00  0.00     0.181 A 
HETATM    6  C6  UNL     1      25.290   3.136  50.799  1.00  0.00     0.044 A 
HETATM    7  C7  UNL     1      26.510   2.697  51.533  1.00  0.00     0.074 C 
HETATM    8  C8  UNL     1      26.788   1.253  51.238  1.00  0.00    -0.022 C 
HETATM    9  C9  UNL     1      26.713   0.392  52.213  1.00  0.00    -0.003 C 
HETATM   10  C10 UNL     1      26.355   1.010  53.484  1.00  0.00     0.015 C 
HETATM   11  C11 UNL     1      25.102   1.156  53.875  1.00  0.00     0.012 C 
HETATM   12  C12 UNL     1      24.245   0.836  52.944  1.00  0.00     0.099 C 
HETATM   13  O2  UNL     1      24.452   0.926  51.551  1.00  0.00    -0.290 OA
ENDROOT
BRANCH   1  14
HETATM   14  N1  UNL     1      26.108   5.223  50.101  1.00  0.00    -0.363 N 
HETATM   15  H5  UNL     1      26.929   5.230  50.735  1.00  0.00     0.162 HD
BRANCH  14  16
HETATM   16  C2  UNL     1      26.088   6.271  49.131  1.00  0.00     0.140 C 
BRANCH  16  17
HETATM   17  C1  UNL     1      25.744   7.631  49.680  1.00  0.00     0.194 C 
BRANCH  17  18
HETATM   18  O1  UNL     1      26.455   7.975  50.812  1.00  0.00    -0.399 OA
HETATM   19  H1  UNL     1      27.196   7.355  51.008  1.00  0.00     0.209 HD
ENDBRANCH  17  18
ENDBRANCH  16  17
BRANCH  16  20
HETATM   20  C19 UNL     1      27.405   6.420  48.428  1.00  0.00    -0.034 A 
HETATM   21  C20 UNL     1      27.689   7.518  47.622  1.00  0.00     0.009 A 
HETATM   22  C21 UNL     1      28.925   7.576  47.012  1.00  0.00     0.001 A 
HETATM   23  C22 UNL     1      29.886   6.598  47.167  1.00  0.00     0.000 A 
HETATM   24  C23 UNL     1      29.620   5.495  47.968  1.00  0.00     0.001 A 
HETATM   25  C24 UNL     1      28.369   5.438  48.584  1.00  0.00     0.009 A 
ENDBRANCH  16  20
ENDBRANCH  14  16
ENDBRANCH   1  14
BRANCH  12  26
HETATM   26  C13 UNL     1      22.925   0.327  53.379  1.00  0.00    -0.001 A 
HETATM   27  C14 UNL     1      21.766   1.039  53.141  1.00  0.00     0.014 A 
HETATM   28  C15 UNL     1      20.532   0.540  53.560  1.00  0.00     0.001 A 
HETATM   29  C16 UNL     1      20.438  -0.669  54.216  1.00  0.00     0.000 A 
HETATM   30  C17 UNL     1      21.597  -1.378  54.452  1.00  0.00     0.001 A 
HETATM   31  C18 UNL     1      22.819  -0.881  54.037  1.00  0.00     0.014 A 
ENDBRANCH  12  26
TORSDOF 6
ENDMDL
MODEL 5
REMARK VINA RESULT:      -8.8      2.272      3.787
REMARK  6 active torsions:
REMARK  status: ('A' for Active; 'I' for Inactive)
REMARK    1  A    between atoms: O1_1  and  C1_2 
REMARK    2  A    between atoms: C1_2  and  C2_3 
REMARK    3  A    between atoms: C2_3  and  N1_4 
REMARK    4  A    between atoms: C2_3  and  C19_24 
REMARK    5  A    between atoms: N1_4  and  C3_5 
REMARK    6  A    between atoms: C12_16  and  C13_17 
ROOT
HETATM    1  C3  UNL     1      23.946  -0.253  53.342  1.00  0.00     0.136 A 
HETATM    2  N2  UNL     1      23.751  -1.078  54.380  1.00  0.00    -0.224 NA
HETATM    3  C4  UNL     1      22.487  -1.190  54.876  1.00  0.00     0.238 A 
HETATM    4  N3  UNL     1      21.473  -0.490  54.339  1.00  0.00    -0.217 NA
HETATM    5  C5  UNL     1      21.618   0.356  53.293  1.00  0.00     0.181 A 
HETATM    6  C6  UNL     1      22.920   0.466  52.786  1.00  0.00     0.044 A 
HETATM    7  C7  UNL     1      22.928   1.425  51.644  1.00  0.00     0.074 C 
HETATM    8  C8  UNL     1      22.079   2.615  51.976  1.00  0.00    -0.022 C 
HETATM    9  C9  UNL     1      21.006   2.830  51.270  1.00  0.00    -0.003 C 
HETATM   10  C10 UNL     1      20.805   1.828  50.229  1.00  0.00     0.015 C 
HETATM   11  C11 UNL     1      20.122   0.717  50.435  1.00  0.00     0.012 C 
HETATM   12  C12 UNL     1      19.795   0.554  51.688  1.00  0.00     0.099 C 
HETATM   13  O2  UNL     1      20.507   1.035  52.807  1.00  0.00    -0.290 OA
ENDROOT
BRANCH   1  14
HETATM   14  N1  UNL     1      25.209  -0.056  52.742  1.00  0.00    -0.363 N 
HETATM   15  H5  UNL     1      25.410   0.512  51.897  1.00  0.00     0.162 HD
BRANCH  14  16
HETATM   16  C2  UNL     1      26.348  -0.687  53.329  1.00  0.00     0.140 C 
BRANCH  16  17
HETATM   17  C1  UNL     1      26.979  -1.760  52.481  1.00  0.00     0.194 C 
BRANCH  17  18
HETATM   18  O1  UNL     1      27.443  -2.843  53.199  1.00  0.00    -0.399 OA
HETATM   19  H1  UNL     1      28.205  -2.622  53.785  1.00  0.00     0.209 HD
ENDBRANCH  17  18
ENDBRANCH  16  17
BRANCH  16  20
HETATM   20  C19 UNL     1      27.437   0.293  53.650  1.00  0.00    -0.034 A 
HETATM   21  C20 UNL     1      28.544  -0.062  54.416  1.00  0.00     0.009 A 
HETATM   22  C21 UNL     1      29.500   0.901  54.666  1.00  0.00     0.001 A 
HETATM   23  C22 UNL     1      29.406   2.193  54.191  1.00  0.00     0.000 A 
HETATM   24  C23 UNL     1      28.309   2.565  53.425  1.00  0.00     0.001 A 
HETATM   25  C24 UNL     1      27.342   1.590  53.174  1.00  0.00     0.009 A 
ENDBRANCH  16  20
ENDBRANCH  14  16
ENDBRANCH   1  14
BRANCH  12  26
HETATM   26  C13 UNL     1      18.558  -0.207  51.976  1.00  0.00    -0.001 A 
HETATM   27  C14 UNL     1      17.427  -0.064  51.196  1.00  0.00     0.014 A 
HETATM   28  C15 UNL     1      16.273  -0.791  51.485  1.00  0.00     0.001 A 
HETATM   29  C16 UNL     1      16.230  -1.666  52.549  1.00  0.00     0.000 A 
HETATM   30  C17 UNL     1      17.360  -1.808  53.327  1.00  0.00     0.001 A 
HETATM   31  C18 UNL     1      18.503  -1.085  53.038  1.00  0.00     0.014 A 
ENDBRANCH  12  26
TORSDOF 6
ENDMDL
MODEL 6
REMARK VINA RESULT:      -8.7      1.986      3.359
REMARK  6 active torsions:
REMARK  status: ('A' for Active; 'I' for Inactive)
REMARK    1  A    between atoms: O1_1  and  C1_2 
REMARK    2  A    between atoms: C1_2  and  C2_3 
REMARK    3  A    between atoms: C2_3  and  N1_4 
REMARK    4  A    between atoms: C2_3  and  C19_24 
REMARK    5  A    between atoms: N1_4  and  C3_5 
REMARK    6  A    between atoms: C12_16  and  C13_17 
ROOT
HETATM    1  C3  UNL     1      24.198   0.330  52.685  1.00  0.00     0.136 A 
HETATM    2  N2  UNL     1      24.191  -0.537  53.706  1.00  0.00    -0.224 NA
HETATM    3  C4  UNL     1      23.005  -0.768  54.337  1.00  0.00     0.238 A 
HETATM    4  N3  UNL     1      21.883  -0.141  53.943  1.00  0.00    -0.217 NA
HETATM    5  C5  UNL     1      21.838   0.743  52.919  1.00  0.00     0.181 A 
HETATM    6  C6  UNL     1      23.061   0.976  52.273  1.00  0.00     0.044 A 
HETATM    7  C7  UNL     1      22.862   1.963  51.175  1.00  0.00     0.074 C 
HETATM    8  C8  UNL     1      21.964   3.069  51.643  1.00  0.00    -0.022 C 
HETATM    9  C9  UNL     1      20.802   3.212  51.070  1.00  0.00    -0.003 C 
HETATM   10  C10 UNL     1      20.565   2.226  50.022  1.00  0.00     0.015 C 
HETATM   11  C11 UNL     1      20.001   1.056  50.262  1.00  0.00     0.012 C 
HETATM   12  C12 UNL     1      19.834   0.832  51.537  1.00  0.00     0.099 C 
HETATM   13  O2  UNL     1      20.629   1.340  52.586  1.00  0.00    -0.290 OA
ENDROOT
BRANCH   1  14
HETATM   14  N1  UNL     1      25.364   0.649  51.954  1.00  0.00    -0.363 N 
HETATM   15  H5  UNL     1      25.566   0.393  50.970  1.00  0.00     0.162 HD
BRANCH  14  16
HETATM   16  C2  UNL     1      26.392   1.399  52.604  1.00  0.00     0.140 C 
BRANCH  16  17
HETATM   17  C1  UNL     1      25.957   2.100  53.865  1.00  0.00     0.194 C 
BRANCH  17  18
HETATM   18  O1  UNL     1      25.242   3.259  53.644  1.00  0.00    -0.399 OA
HETATM   19  H1  UNL     1      24.420   3.114  53.117  1.00  0.00     0.209 HD
ENDBRANCH  17  18
ENDBRANCH  16  17
BRANCH  16  20
HETATM   20  C19 UNL     1      27.567   0.545  52.980  1.00  0.00    -0.034 A 
HETATM   21  C20 UNL     1      27.552  -0.838  52.821  1.00  0.00     0.009 A 
HETATM   22  C21 UNL     1      28.675  -1.548  53.192  1.00  0.00     0.001 A 
HETATM   23  C22 UNL     1      29.805  -0.950  53.710  1.00  0.00     0.000 A 
HETATM   24  C23 UNL     1      29.838   0.429  53.875  1.00  0.00     0.001 A 
HETATM   25  C24 UNL     1      28.700   1.146  53.500  1.00  0.00     0.009 A 
ENDBRANCH  16  20
ENDBRANCH  14  16
ENDBRANCH   1  14
BRANCH  12  26
HETATM   26  C13 UNL     1      18.703  -0.038  51.932  1.00  0.00    -0.001 A 
HETATM   27  C14 UNL     1      18.767  -0.832  53.060  1.00  0.00     0.014 A 
HETATM   28  C15 UNL     1      17.689  -1.644  53.414  1.00  0.00     0.001 A 
HETATM   29  C16 UNL     1      16.540  -1.675  52.654  1.00  0.00     0.000 A 
HETATM   30  C17 UNL     1      16.479  -0.880  51.528  1.00  0.00     0.001 A 
HETATM   31  C18 UNL     1      17.549  -0.077  51.178  1.00  0.00     0.014 A 
ENDBRANCH  12  26
TORSDOF 6
ENDMDL
MODEL 7
REMARK VINA RESULT:      -8.5      3.121      7.361
REMARK  6 active torsions:
REMARK  status: ('A' for Active; 'I' for Inactive)
REMARK    1  A    between atoms: O1_1  and  C1_2 
REMARK    2  A    between atoms: C1_2  and  C2_3 
REMARK    3  A    between atoms: C2_3  and  N1_4 
REMARK    4  A    between atoms: C2_3  and  C19_24 
REMARK    5  A    between atoms: N1_4  and  C3_5 
REMARK    6  A    between atoms: C12_16  and  C13_17 
ROOT
HETATM    1  C3  UNL     1      21.638   2.674  50.142  1.00  0.00     0.136 A 
HETATM    2  N2  UNL     1      20.936   3.690  49.621  1.00  0.00    -0.224 NA
HETATM    3  C4  UNL     1      21.552   4.900  49.511  1.00  0.00     0.238 A 
HETATM    4  N3  UNL     1      22.823   5.063  49.916  1.00  0.00    -0.217 NA
HETATM    5  C5  UNL     1      23.574   4.071  50.449  1.00  0.00     0.181 A 
HETATM    6  C6  UNL     1      22.934   2.828  50.559  1.00  0.00     0.044 A 
HETATM    7  C7  UNL     1      23.874   1.838  51.157  1.00  0.00     0.074 C 
HETATM    8  C8  UNL     1      24.624   2.472  52.291  1.00  0.00    -0.022 C 
HETATM    9  C9  UNL     1      25.914   2.616  52.180  1.00  0.00    -0.003 C 
HETATM   10  C10 UNL     1      26.431   2.113  50.913  1.00  0.00     0.015 C 
HETATM   11  C11 UNL     1      26.524   2.868  49.833  1.00  0.00     0.012 C 
HETATM   12  C12 UNL     1      25.966   4.038  49.989  1.00  0.00     0.099 C 
HETATM   13  O2  UNL     1      24.880   4.339  50.839  1.00  0.00    -0.290 OA
ENDROOT
BRANCH   1  14
HETATM   14  N1  UNL     1      21.107   1.376  50.303  1.00  0.00    -0.363 N 
HETATM   15  H5  UNL     1      21.313   0.546  49.715  1.00  0.00     0.162 HD
BRANCH  14  16
HETATM   16  C2  UNL     1      20.192   1.142  51.375  1.00  0.00     0.140 C 
BRANCH  16  17
HETATM   17  C1  UNL     1      18.970   0.347  50.997  1.00  0.00     0.194 C 
BRANCH  17  18
HETATM   18  O1  UNL     1      18.432   0.692  49.774  1.00  0.00    -0.399 OA
HETATM   19  H1  UNL     1      18.681   1.601  49.483  1.00  0.00     0.209 HD
ENDBRANCH  17  18
ENDBRANCH  16  17
BRANCH  16  20
HETATM   20  C19 UNL     1      20.833   0.414  52.520  1.00  0.00    -0.034 A 
HETATM   21  C20 UNL     1      21.767  -0.598  52.318  1.00  0.00     0.009 A 
HETATM   22  C21 UNL     1      22.307  -1.216  53.427  1.00  0.00     0.001 A 
HETATM   23  C22 UNL     1      21.962  -0.877  54.719  1.00  0.00     0.000 A 
HETATM   24  C23 UNL     1      21.032   0.130  54.939  1.00  0.00     0.001 A 
HETATM   25  C24 UNL     1      20.486   0.755  53.816  1.00  0.00     0.009 A 
ENDBRANCH  16  20
ENDBRANCH  14  16
ENDBRANCH   1  14
BRANCH  12  26
HETATM   26  C13 UNL     1      26.518   5.166  49.205  1.00  0.00    -0.001 A 
HETATM   27  C14 UNL     1      25.771   6.300  48.953  1.00  0.00     0.014 A 
HETATM   28  C15 UNL     1      26.311   7.351  48.212  1.00  0.00     0.001 A 
HETATM   29  C16 UNL     1      27.595   7.286  47.715  1.00  0.00     0.000 A 
HETATM   30  C17 UNL     1      28.339   6.153  47.969  1.00  0.00     0.001 A 
HETATM   31  C18 UNL     1      27.801   5.112  48.703  1.00  0.00     0.014 A 
ENDBRANCH  12  26
TORSDOF 6
ENDMDL
MODEL 8
REMARK VINA RESULT:      -8.5      2.372      4.730
REMARK  6 active torsions:
REMARK  status: ('A' for Active; 'I' for Inactive)
REMARK    1  A    between atoms: O1_1  and  C1_2 
REMARK    2  A    between atoms: C1_2  and  C2_3 
REMARK    3  A    between atoms: C2_3  and  N1_4 
REMARK    4  A    between atoms: C2_3  and  C19_24 
REMARK    5  A    between atoms: N1_4  and  C3_5 
REMARK    6  A    between atoms: C12_16  and  C13_17 
ROOT
HETATM    1  C3  UNL     1      23.663   0.442  52.682  1.00  0.00     0.136 A 
HETATM    2  N2  UNL     1      23.909  -0.494  53.609  1.00  0.00    -0.224 NA
HETATM    3  C4  UNL     1      22.853  -0.971  54.327  1.00  0.00     0.238 A 
HETATM    4  N3  UNL     1      21.609  -0.512  54.108  1.00  0.00    -0.217 NA
HETATM    5  C5  UNL     1      21.310   0.432  53.186  1.00  0.00     0.181 A 
HETATM    6  C6  UNL     1      22.399   0.918  52.450  1.00  0.00     0.044 A 
HETATM    7  C7  UNL     1      21.924   1.943  51.478  1.00  0.00     0.074 C 
HETATM    8  C8  UNL     1      20.921   2.841  52.139  1.00  0.00    -0.022 C 
HETATM    9  C9  UNL     1      19.694   2.834  51.699  1.00  0.00    -0.003 C 
HETATM   10  C10 UNL     1      19.498   1.910  50.588  1.00  0.00     0.015 C 
HETATM   11  C11 UNL     1      19.158   0.646  50.765  1.00  0.00     0.012 C 
HETATM   12  C12 UNL     1      19.173   0.295  52.022  1.00  0.00     0.099 C 
HETATM   13  O2  UNL     1      19.991   0.842  53.034  1.00  0.00    -0.290 OA
ENDROOT
BRANCH   1  14
HETATM   14  N1  UNL     1      24.674   1.009  51.876  1.00  0.00    -0.363 N 
HETATM   15  H5  UNL     1      25.006   0.655  50.959  1.00  0.00     0.162 HD
BRANCH  14  16
HETATM   16  C2  UNL     1      25.328   2.193  52.335  1.00  0.00     0.140 C 
BRANCH  16  17
HETATM   17  C1  UNL     1      26.693   1.967  52.932  1.00  0.00     0.194 C 
BRANCH  17  18
HETATM   18  O1  UNL     1      26.980   2.785  54.005  1.00  0.00    -0.399 OA
HETATM   19  H1  UNL     1      27.503   3.583  53.755  1.00  0.00     0.209 HD
ENDBRANCH  17  18
ENDBRANCH  16  17
BRANCH  16  20
HETATM   20  C19 UNL     1      25.507   3.204  51.242  1.00  0.00    -0.034 A 
HETATM   21  C20 UNL     1      24.637   4.280  51.085  1.00  0.00     0.009 A 
HETATM   22  C21 UNL     1      24.873   5.164  50.052  1.00  0.00     0.001 A 
HETATM   23  C22 UNL     1      25.929   5.028  49.175  1.00  0.00     0.000 A 
HETATM   24  C23 UNL     1      26.807   3.961  49.316  1.00  0.00     0.001 A 
HETATM   25  C24 UNL     1      26.566   3.068  50.361  1.00  0.00     0.009 A 
ENDBRANCH  16  20
ENDBRANCH  14  16
ENDBRANCH   1  14
BRANCH  12  26
HETATM   26  C13 UNL     1      18.246  -0.782  52.440  1.00  0.00    -0.001 A 
HETATM   27  C14 UNL     1      18.622  -1.736  53.364  1.00  0.00     0.014 A 
HETATM   28  C15 UNL     1      17.733  -2.741  53.743  1.00  0.00     0.001 A 
HETATM   29  C16 UNL     1      16.463  -2.808  53.209  1.00  0.00     0.000 A 
HETATM   30  C17 UNL     1      16.090  -1.854  52.286  1.00  0.00     0.001 A 
HETATM   31  C18 UNL     1      16.974  -0.858  51.911  1.00  0.00     0.014 A 
ENDBRANCH  12  26
TORSDOF 6
ENDMDL
MODEL 9
REMARK VINA RESULT:      -8.4      3.060      7.470
REMARK  6 active torsions:
REMARK  status: ('A' for Active; 'I' for Inactive)
REMARK    1  A    between atoms: O1_1  and  C1_2 
REMARK    2  A    between atoms: C1_2  and  C2_3 
REMARK    3  A    between atoms: C2_3  and  N1_4 
REMARK    4  A    between atoms: C2_3  and  C19_24 
REMARK    5  A    between atoms: N1_4  and  C3_5 
REMARK    6  A    between atoms: C12_16  and  C13_17 
ROOT
HETATM    1  C3  UNL     1      22.756   1.635  52.510  1.00  0.00     0.136 A 
HETATM    2  N2  UNL     1      23.870   1.529  53.247  1.00  0.00    -0.224 NA
HETATM    3  C4  UNL     1      25.054   1.868  52.664  1.00  0.00     0.238 A 
HETATM    4  N3  UNL     1      25.096   2.294  51.390  1.00  0.00    -0.217 NA
HETATM    5  C5  UNL     1      24.001   2.418  50.604  1.00  0.00     0.181 A 
HETATM    6  C6  UNL     1      22.785   2.068  51.210  1.00  0.00     0.044 A 
HETATM    7  C7  UNL     1      21.674   2.254  50.235  1.00  0.00     0.074 C 
HETATM    8  C8  UNL     1      22.091   1.743  48.888  1.00  0.00    -0.022 C 
HETATM    9  C9  UNL     1      22.193   2.591  47.904  1.00  0.00    -0.003 C 
HETATM   10  C10 UNL     1      21.869   3.957  48.302  1.00  0.00     0.015 C 
HETATM   11  C11 UNL     1      22.777   4.796  48.766  1.00  0.00     0.012 C 
HETATM   12  C12 UNL     1      23.932   4.224  48.969  1.00  0.00     0.099 C 
HETATM   13  O2  UNL     1      24.146   2.868  49.298  1.00  0.00    -0.290 OA
ENDROOT
BRANCH   1  14
HETATM   14  N1  UNL     1      21.473   1.315  53.005  1.00  0.00    -0.363 N 
HETATM   15  H5  UNL     1      20.709   1.982  53.221  1.00  0.00     0.162 HD
BRANCH  14  16
HETATM   16  C2  UNL     1      21.158  -0.058  53.243  1.00  0.00     0.140 C 
BRANCH  16  17
HETATM   17  C1  UNL     1      21.343  -0.508  54.669  1.00  0.00     0.194 C 
BRANCH  17  18
HETATM   18  O1  UNL     1      22.619  -0.949  54.957  1.00  0.00    -0.399 OA
HETATM   19  H1  UNL     1      23.050  -0.440  55.683  1.00  0.00     0.209 HD
ENDBRANCH  17  18
ENDBRANCH  16  17
BRANCH  16  20
HETATM   20  C19 UNL     1      19.741  -0.388  52.877  1.00  0.00    -0.034 A 
HETATM   21  C20 UNL     1      18.979  -1.286  53.620  1.00  0.00     0.009 A 
HETATM   22  C21 UNL     1      17.684  -1.533  53.213  1.00  0.00     0.001 A 
HETATM   23  C22 UNL     1      17.116  -0.931  52.109  1.00  0.00     0.000 A 
HETATM   24  C23 UNL     1      17.861  -0.033  51.357  1.00  0.00     0.001 A 
HETATM   25  C24 UNL     1      19.171   0.216  51.769  1.00  0.00     0.009 A 
ENDBRANCH  16  20
ENDBRANCH  14  16
ENDBRANCH   1  14
BRANCH  12  26
HETATM   26  C13 UNL     1      25.142   5.068  48.846  1.00  0.00    -0.001 A 
HETATM   27  C14 UNL     1      25.051   6.428  48.623  1.00  0.00     0.014 A 
HETATM   28  C15 UNL     1      26.204   7.204  48.510  1.00  0.00     0.001 A 
HETATM   29  C16 UNL     1      27.457   6.638  48.618  1.00  0.00     0.000 A 
HETATM   30  C17 UNL     1      27.545   5.280  48.840  1.00  0.00     0.001 A 
HETATM   31  C18 UNL     1      26.400   4.513  48.951  1.00  0.00     0.014 A 
ENDBRANCH  12  26
TORSDOF 6
ENDMDL
