MODEL 1
REMARK VINA RESULT:      -8.2      0.000      0.000
REMARK  3 active torsions:
REMARK  status: ('A' for Active; 'I' for Inactive)
REMARK    1  A    between atoms: C5_5  and  N1_6 
REMARK    2  A    between atoms: N1_6  and  C6_7 
REMARK    3  A    between atoms: C6_7  and  C7_8 
ROOT
HETATM    1  C1  UNL     1      19.686   0.277  51.242  1.00  0.00    -0.002 C 
HETATM    2  C2  UNL     1      20.991   0.450  51.154  1.00  0.00    -0.022 C 
HETATM    3  C3  UNL     1      22.271   0.402  51.865  1.00  0.00     0.072 C 
HETATM    4  C4  UNL     1      22.330  -0.345  53.104  1.00  0.00     0.025 A 
HETATM    5  C5  UNL     1      23.653  -0.152  53.523  1.00  0.00     0.040 A 
HETATM    6  C12 UNL     1      24.027  -0.757  54.702  1.00  0.00     0.049 A 
HETATM    7  C13 UNL     1      23.243  -1.537  55.523  1.00  0.00     0.122 A 
HETATM    8  N3  UNL     1      21.956  -1.713  55.098  1.00  0.00    -0.236 NA
HETATM    9  C14 UNL     1      21.552  -1.126  53.933  1.00  0.00     0.177 A 
HETATM   10  O1  UNL     1      20.212  -1.546  53.872  1.00  0.00    -0.304 OA
HETATM   11  C15 UNL     1      19.063  -0.873  53.405  1.00  0.00     0.144 C 
HETATM   12  C16 UNL     1      18.818  -0.126  52.343  1.00  0.00     0.024 C 
ENDROOT
BRANCH   5  13
HETATM   13  N1  UNL     1      24.639   0.603  52.893  1.00  0.00    -0.385 N 
HETATM   14  H5  UNL     1      24.523   1.643  52.727  1.00  0.00     0.160 HD
BRANCH  13  15
HETATM   15  C6  UNL     1      25.940   0.330  52.324  1.00  0.00     0.160 C 
BRANCH  15  16
HETATM   16  C7  UNL     1      27.066   0.971  53.044  1.00  0.00    -0.023 A 
HETATM   17  C8  UNL     1      27.893  -0.057  53.532  1.00  0.00     0.012 A 
HETATM   18  C9  UNL     1      29.060   0.227  54.252  1.00  0.00     0.020 A 
HETATM   19  C10 UNL     1      29.410   1.540  54.492  1.00  0.00     0.116 A 
HETATM   20  N2  UNL     1      28.603   2.501  54.014  1.00  0.00    -0.273 NA
HETATM   21  C11 UNL     1      27.483   2.250  53.322  1.00  0.00     0.124 A 
ENDBRANCH  15  16
ENDBRANCH  13  15
ENDBRANCH   5  13
TORSDOF 3
ENDMDL
MODEL 2
REMARK VINA RESULT:      -8.0      3.514      5.022
REMARK  3 active torsions:
REMARK  status: ('A' for Active; 'I' for Inactive)
REMARK    1  A    between atoms: C5_5  and  N1_6 
REMARK    2  A    between atoms: N1_6  and  C6_7 
REMARK    3  A    between atoms: C6_7  and  C7_8 
ROOT
HETATM    1  C1  UNL     1      22.389  -0.660  53.877  1.00  0.00    -0.002 C 
HETATM    2  C2  UNL     1      22.978   0.128  52.997  1.00  0.00    -0.022 C 
HETATM    3  C3  UNL     1      24.171   0.917  52.685  1.00  0.00     0.072 C 
HETATM    4  C4  UNL     1      25.382   0.638  53.429  1.00  0.00     0.025 A 
HETATM    5  C5  UNL     1      26.287   1.576  52.915  1.00  0.00     0.040 A 
HETATM    6  C12 UNL     1      27.562   1.560  53.437  1.00  0.00     0.049 A 
HETATM    7  C13 UNL     1      28.052   0.720  54.412  1.00  0.00     0.122 A 
HETATM    8  N3  UNL     1      27.155  -0.187  54.900  1.00  0.00    -0.236 NA
HETATM    9  C14 UNL     1      25.881  -0.198  54.405  1.00  0.00     0.177 A 
HETATM   10  O1  UNL     1      25.312  -1.243  55.153  1.00  0.00    -0.304 OA
HETATM   11  C15 UNL     1      24.009  -1.391  55.674  1.00  0.00     0.144 C 
HETATM   12  C16 UNL     1      22.804  -1.163  55.182  1.00  0.00     0.024 C 
ENDROOT
BRANCH   5  13
HETATM   13  N1  UNL     1      26.044   2.546  51.946  1.00  0.00    -0.385 N 
HETATM   14  H5  UNL     1      25.478   3.416  52.160  1.00  0.00     0.160 HD
BRANCH  13  15
HETATM   15  C6  UNL     1      26.385   2.718  50.552  1.00  0.00     0.160 C 
BRANCH  15  16
HETATM   16  C7  UNL     1      26.174   4.093  50.039  1.00  0.00    -0.023 A 
HETATM   17  C8  UNL     1      27.215   4.368  49.134  1.00  0.00     0.012 A 
HETATM   18  C9  UNL     1      27.290   5.595  48.462  1.00  0.00     0.020 A 
HETATM   19  C10 UNL     1      26.328   6.557  48.690  1.00  0.00     0.116 A 
HETATM   20  N2  UNL     1      25.346   6.267  49.559  1.00  0.00    -0.273 NA
HETATM   21  C11 UNL     1      25.256   5.099  50.211  1.00  0.00     0.124 A 
ENDBRANCH  15  16
ENDBRANCH  13  15
ENDBRANCH   5  13
TORSDOF 3
ENDMDL
MODEL 3
REMARK VINA RESULT:      -7.9      3.456      6.255
REMARK  3 active torsions:
REMARK  status: ('A' for Active; 'I' for Inactive)
REMARK    1  A    between atoms: C5_5  and  N1_6 
REMARK    2  A    between atoms: N1_6  and  C6_7 
REMARK    3  A    between atoms: C6_7  and  C7_8 
ROOT
HETATM    1  C1  UNL     1      29.449   1.324  53.810  1.00  0.00    -0.002 C 
HETATM    2  C2  UNL     1      28.507   2.236  53.657  1.00  0.00    -0.022 C 
HETATM    3  C3  UNL     1      27.105   2.484  53.315  1.00  0.00     0.072 C 
HETATM    4  C4  UNL     1      26.185   1.366  53.371  1.00  0.00     0.025 A 
HETATM    5  C5  UNL     1      24.974   1.935  52.957  1.00  0.00     0.040 A 
HETATM    6  C12 UNL     1      23.880   1.101  52.908  1.00  0.00     0.049 A 
HETATM    7  C13 UNL     1      23.839  -0.239  53.222  1.00  0.00     0.122 A 
HETATM    8  N3  UNL     1      25.029  -0.776  53.623  1.00  0.00    -0.236 NA
HETATM    9  C14 UNL     1      26.136   0.023  53.683  1.00  0.00     0.177 A 
HETATM   10  O1  UNL     1      27.105  -0.894  54.124  1.00  0.00    -0.304 OA
HETATM   11  C15 UNL     1      28.473  -1.007  53.797  1.00  0.00     0.144 C 
HETATM   12  C16 UNL     1      29.449  -0.127  53.662  1.00  0.00     0.024 C 
ENDROOT
BRANCH   5  13
HETATM   13  N1  UNL     1      24.748   3.252  52.566  1.00  0.00    -0.385 N 
HETATM   14  H5  UNL     1      24.863   4.062  53.241  1.00  0.00     0.160 HD
BRANCH  13  15
HETATM   15  C6  UNL     1      24.341   3.909  51.343  1.00  0.00     0.160 C 
BRANCH  15  16
HETATM   16  C7  UNL     1      25.451   4.179  50.399  1.00  0.00    -0.023 A 
HETATM   17  C8  UNL     1      25.337   5.519  49.987  1.00  0.00     0.012 A 
HETATM   18  C9  UNL     1      26.254   6.087  49.095  1.00  0.00     0.020 A 
HETATM   19  C10 UNL     1      27.294   5.322  48.606  1.00  0.00     0.116 A 
HETATM   20  N2  UNL     1      27.378   4.047  49.017  1.00  0.00    -0.273 NA
HETATM   21  C11 UNL     1      26.511   3.484  49.870  1.00  0.00     0.124 A 
ENDBRANCH  15  16
ENDBRANCH  13  15
ENDBRANCH   5  13
TORSDOF 3
ENDMDL
MODEL 4
REMARK VINA RESULT:      -7.8      2.851      6.547
REMARK  3 active torsions:
REMARK  status: ('A' for Active; 'I' for Inactive)
REMARK    1  A    between atoms: C5_5  and  N1_6 
REMARK    2  A    between atoms: N1_6  and  C6_7 
REMARK    3  A    between atoms: C6_7  and  C7_8 
ROOT
HETATM    1  C1  UNL     1      28.578   1.927  53.186  1.00  0.00    -0.002 C 
HETATM    2  C2  UNL     1      27.356   2.168  52.749  1.00  0.00    -0.022 C 
HETATM    3  C3  UNL     1      25.976   1.683  52.679  1.00  0.00     0.072 C 
HETATM    4  C4  UNL     1      25.570   0.657  53.618  1.00  0.00     0.025 A 
HETATM    5  C5  UNL     1      24.240   0.408  53.253  1.00  0.00     0.040 A 
HETATM    6  C12 UNL     1      23.563  -0.543  53.983  1.00  0.00     0.049 A 
HETATM    7  C13 UNL     1      24.047  -1.283  55.039  1.00  0.00     0.122 A 
HETATM    8  N3  UNL     1      25.345  -1.026  55.379  1.00  0.00    -0.236 NA
HETATM    9  C14 UNL     1      26.046  -0.088  54.675  1.00  0.00     0.177 A 
HETATM   10  O1  UNL     1      27.289  -0.137  55.329  1.00  0.00    -0.304 OA
HETATM   11  C15 UNL     1      28.598  -0.003  54.817  1.00  0.00     0.144 C 
HETATM   12  C16 UNL     1      29.151   0.824  53.947  1.00  0.00     0.024 C 
ENDROOT
BRANCH   5  13
HETATM   13  N1  UNL     1      23.521   0.999  52.217  1.00  0.00    -0.385 N 
HETATM   14  H5  UNL     1      23.935   1.772  51.622  1.00  0.00     0.160 HD
BRANCH  13  15
HETATM   15  C6  UNL     1      22.197   0.837  51.658  1.00  0.00     0.160 C 
BRANCH  15  16
HETATM   16  C7  UNL     1      22.060   1.328  50.266  1.00  0.00    -0.023 A 
HETATM   17  C8  UNL     1      23.049   2.307  50.067  1.00  0.00     0.012 A 
HETATM   18  C9  UNL     1      23.190   2.960  48.836  1.00  0.00     0.020 A 
HETATM   19  C10 UNL     1      22.344   2.640  47.794  1.00  0.00     0.116 A 
HETATM   20  N2  UNL     1      21.409   1.702  48.013  1.00  0.00    -0.273 NA
HETATM   21  C11 UNL     1      21.258   1.066  49.183  1.00  0.00     0.124 A 
ENDBRANCH  15  16
ENDBRANCH  13  15
ENDBRANCH   5  13
TORSDOF 3
ENDMDL
MODEL 5
REMARK VINA RESULT:      -7.7      4.293      6.301
REMARK  3 active torsions:
REMARK  status: ('A' for Active; 'I' for Inactive)
REMARK    1  A    between atoms: C5_5  and  N1_6 
REMARK    2  A    between atoms: N1_6  and  C6_7 
REMARK    3  A    between atoms: C6_7  and  C7_8 
ROOT
HETATM    1  C1  UNL     1      27.297   5.623  48.546  1.00  0.00    -0.002 C 
HETATM    2  C2  UNL     1      27.178   4.371  48.946  1.00  0.00    -0.022 C 
HETATM    3  C3  UNL     1      26.563   3.462  49.916  1.00  0.00     0.072 C 
HETATM    4  C4  UNL     1      25.409   3.936  50.651  1.00  0.00     0.025 A 
HETATM    5  C5  UNL     1      25.109   2.857  51.493  1.00  0.00     0.040 A 
HETATM    6  C12 UNL     1      24.031   3.006  52.336  1.00  0.00     0.049 A 
HETATM    7  C13 UNL     1      23.206   4.103  52.447  1.00  0.00     0.122 A 
HETATM    8  N3  UNL     1      23.514   5.145  51.618  1.00  0.00    -0.236 NA
HETATM    9  C14 UNL     1      24.578   5.030  50.769  1.00  0.00     0.177 A 
HETATM   10  O1  UNL     1      24.542   6.278  50.124  1.00  0.00    -0.304 OA
HETATM   11  C15 UNL     1      25.592   7.107  49.675  1.00  0.00     0.144 C 
HETATM   12  C16 UNL     1      26.722   6.871  49.033  1.00  0.00     0.024 C 
ENDROOT
BRANCH   5  13
HETATM   13  N1  UNL     1      25.792   1.647  51.595  1.00  0.00    -0.385 N 
HETATM   14  H5  UNL     1      26.648   1.439  51.006  1.00  0.00     0.160 HD
BRANCH  13  15
HETATM   15  C6  UNL     1      25.637   0.439  52.374  1.00  0.00     0.160 C 
BRANCH  15  16
HETATM   16  C7  UNL     1      26.915  -0.183  52.795  1.00  0.00    -0.023 A 
HETATM   17  C8  UNL     1      27.801   0.860  53.123  1.00  0.00     0.012 A 
HETATM   18  C9  UNL     1      29.100   0.597  53.574  1.00  0.00     0.020 A 
HETATM   19  C10 UNL     1      29.527  -0.710  53.699  1.00  0.00     0.116 A 
HETATM   20  N2  UNL     1      28.661  -1.684  53.379  1.00  0.00    -0.273 NA
HETATM   21  C11 UNL     1      27.413  -1.453  52.946  1.00  0.00     0.124 A 
ENDBRANCH  15  16
ENDBRANCH  13  15
ENDBRANCH   5  13
TORSDOF 3
ENDMDL
MODEL 6
REMARK VINA RESULT:      -7.5      1.745      2.747
REMARK  3 active torsions:
REMARK  status: ('A' for Active; 'I' for Inactive)
REMARK    1  A    between atoms: C5_5  and  N1_6 
REMARK    2  A    between atoms: N1_6  and  C6_7 
REMARK    3  A    between atoms: C6_7  and  C7_8 
ROOT
HETATM    1  C1  UNL     1      19.769  -1.277  53.755  1.00  0.00    -0.002 C 
HETATM    2  C2  UNL     1      21.032  -1.280  54.138  1.00  0.00    -0.022 C 
HETATM    3  C3  UNL     1      22.362  -0.704  53.930  1.00  0.00     0.072 C 
HETATM    4  C4  UNL     1      22.452   0.556  53.219  1.00  0.00     0.025 A 
HETATM    5  C5  UNL     1      23.833   0.788  53.168  1.00  0.00     0.040 A 
HETATM    6  C12 UNL     1      24.246   1.941  52.539  1.00  0.00     0.049 A 
HETATM    7  C13 UNL     1      23.451   2.900  51.951  1.00  0.00     0.122 A 
HETATM    8  N3  UNL     1      22.109   2.655  52.011  1.00  0.00    -0.236 NA
HETATM    9  C14 UNL     1      21.664   1.520  52.627  1.00  0.00     0.177 A 
HETATM   10  O1  UNL     1      20.274   1.656  52.469  1.00  0.00    -0.304 OA
HETATM   11  C15 UNL     1      19.281   0.681  52.235  1.00  0.00     0.144 C 
HETATM   12  C16 UNL     1      19.049  -0.517  52.740  1.00  0.00     0.024 C 
ENDROOT
BRANCH   5  13
HETATM   13  N1  UNL     1      24.848  -0.026  53.663  1.00  0.00    -0.385 N 
HETATM   14  H5  UNL     1      25.031  -0.118  54.703  1.00  0.00     0.160 HD
BRANCH  13  15
HETATM   15  C6  UNL     1      25.855  -0.887  53.083  1.00  0.00     0.160 C 
BRANCH  15  16
HETATM   16  C7  UNL     1      27.247  -0.518  53.435  1.00  0.00    -0.023 A 
HETATM   17  C8  UNL     1      28.071  -1.602  53.082  1.00  0.00     0.012 A 
HETATM   18  C9  UNL     1      29.457  -1.557  53.280  1.00  0.00     0.020 A 
HETATM   19  C10 UNL     1      30.031  -0.431  53.833  1.00  0.00     0.116 A 
HETATM   20  N2  UNL     1      29.220   0.588  54.160  1.00  0.00    -0.273 NA
HETATM   21  C11 UNL     1      27.893   0.566  53.979  1.00  0.00     0.124 A 
ENDBRANCH  15  16
ENDBRANCH  13  15
ENDBRANCH   5  13
TORSDOF 3
ENDMDL
MODEL 7
REMARK VINA RESULT:      -7.5      3.220      6.015
REMARK  3 active torsions:
REMARK  status: ('A' for Active; 'I' for Inactive)
REMARK    1  A    between atoms: C5_5  and  N1_6 
REMARK    2  A    between atoms: N1_6  and  C6_7 
REMARK    3  A    between atoms: C6_7  and  C7_8 
ROOT
HETATM    1  C1  UNL     1      28.654   1.877  53.204  1.00  0.00    -0.002 C 
HETATM    2  C2  UNL     1      27.462   2.151  52.707  1.00  0.00    -0.022 C 
HETATM    3  C3  UNL     1      26.074   1.705  52.571  1.00  0.00     0.072 C 
HETATM    4  C4  UNL     1      25.593   0.695  53.492  1.00  0.00     0.025 A 
HETATM    5  C5  UNL     1      24.276   0.483  53.064  1.00  0.00     0.040 A 
HETATM    6  C12 UNL     1      23.538  -0.446  53.762  1.00  0.00     0.049 A 
HETATM    7  C13 UNL     1      23.948  -1.195  54.841  1.00  0.00     0.122 A 
HETATM    8  N3  UNL     1      25.235  -0.975  55.244  1.00  0.00    -0.236 NA
HETATM    9  C14 UNL     1      25.996  -0.060  54.573  1.00  0.00     0.177 A 
HETATM   10  O1  UNL     1      27.205  -0.142  55.286  1.00  0.00    -0.304 OA
HETATM   11  C15 UNL     1      28.539  -0.048  54.838  1.00  0.00     0.144 C 
HETATM   12  C16 UNL     1      29.158   0.760  53.995  1.00  0.00     0.024 C 
ENDROOT
BRANCH   5  13
HETATM   13  N1  UNL     1      23.626   1.090  51.993  1.00  0.00    -0.385 N 
HETATM   14  H5  UNL     1      23.851   0.837  50.988  1.00  0.00     0.160 HD
BRANCH  13  15
HETATM   15  C6  UNL     1      22.603   2.103  51.848  1.00  0.00     0.160 C 
BRANCH  15  16
HETATM   16  C7  UNL     1      23.128   3.464  51.583  1.00  0.00    -0.023 A 
HETATM   17  C8  UNL     1      23.681   3.456  50.290  1.00  0.00     0.012 A 
HETATM   18  C9  UNL     1      24.253   4.609  49.736  1.00  0.00     0.020 A 
HETATM   19  C10 UNL     1      24.277   5.778  50.469  1.00  0.00     0.116 A 
HETATM   20  N2  UNL     1      23.742   5.755  51.700  1.00  0.00    -0.273 NA
HETATM   21  C11 UNL     1      23.190   4.664  52.248  1.00  0.00     0.124 A 
ENDBRANCH  15  16
ENDBRANCH  13  15
ENDBRANCH   5  13
TORSDOF 3
ENDMDL
MODEL 8
REMARK VINA RESULT:      -7.4      2.561      6.463
REMARK  3 active torsions:
REMARK  status: ('A' for Active; 'I' for Inactive)
REMARK    1  A    between atoms: C5_5  and  N1_6 
REMARK    2  A    between atoms: N1_6  and  C6_7 
REMARK    3  A    between atoms: C6_7  and  C7_8 
ROOT
HETATM    1  C1  UNL     1      27.322   1.279  52.330  1.00  0.00    -0.002 C 
HETATM    2  C2  UNL     1      26.032   1.362  52.061  1.00  0.00    -0.022 C 
HETATM    3  C3  UNL     1      24.700   0.817  52.332  1.00  0.00     0.072 C 
HETATM    4  C4  UNL     1      24.524   0.022  53.530  1.00  0.00     0.025 A 
HETATM    5  C5  UNL     1      23.178  -0.359  53.457  1.00  0.00     0.040 A 
HETATM    6  C12 UNL     1      22.697  -1.141  54.483  1.00  0.00     0.049 A 
HETATM    7  C13 UNL     1      23.393  -1.595  55.581  1.00  0.00     0.122 A 
HETATM    8  N3  UNL     1      24.703  -1.213  55.635  1.00  0.00    -0.236 NA
HETATM    9  C14 UNL     1      25.213  -0.437  54.632  1.00  0.00     0.177 A 
HETATM   10  O1  UNL     1      26.542  -0.282  55.063  1.00  0.00    -0.304 OA
HETATM   11  C15 UNL     1      27.742  -0.217  54.323  1.00  0.00     0.144 C 
HETATM   12  C16 UNL     1      28.089   0.407  53.212  1.00  0.00     0.024 C 
ENDROOT
BRANCH   5  13
HETATM   13  N1  UNL     1      22.264  -0.055  52.451  1.00  0.00    -0.385 N 
HETATM   14  H5  UNL     1      22.476  -0.248  51.430  1.00  0.00     0.160 HD
BRANCH  13  15
HETATM   15  C6  UNL     1      20.943   0.530  52.400  1.00  0.00     0.160 C 
BRANCH  15  16
HETATM   16  C7  UNL     1      20.591   1.126  51.089  1.00  0.00    -0.023 A 
HETATM   17  C8  UNL     1      21.672   0.894  50.219  1.00  0.00     0.012 A 
HETATM   18  C9  UNL     1      21.641   1.328  48.888  1.00  0.00     0.020 A 
HETATM   19  C10 UNL     1      20.531   1.998  48.415  1.00  0.00     0.116 A 
HETATM   20  N2  UNL     1      19.515   2.206  49.268  1.00  0.00    -0.273 NA
HETATM   21  C11 UNL     1      19.525   1.798  50.545  1.00  0.00     0.124 A 
ENDBRANCH  15  16
ENDBRANCH  13  15
ENDBRANCH   5  13
TORSDOF 3
ENDMDL
MODEL 9
REMARK VINA RESULT:      -7.4      2.117      2.676
REMARK  3 active torsions:
REMARK  status: ('A' for Active; 'I' for Inactive)
REMARK    1  A    between atoms: C5_5  and  N1_6 
REMARK    2  A    between atoms: N1_6  and  C6_7 
REMARK    3  A    between atoms: C6_7  and  C7_8 
ROOT
HETATM    1  C1  UNL     1      22.477   3.708  51.226  1.00  0.00    -0.002 C 
HETATM    2  C2  UNL     1      23.443   2.838  51.451  1.00  0.00    -0.022 C 
HETATM    3  C3  UNL     1      23.875   1.683  52.242  1.00  0.00     0.072 C 
HETATM    4  C4  UNL     1      22.858   0.920  52.937  1.00  0.00     0.025 A 
HETATM    5  C5  UNL     1      23.605  -0.059  53.605  1.00  0.00     0.040 A 
HETATM    6  C12 UNL     1      22.902  -0.962  54.371  1.00  0.00     0.049 A 
HETATM    7  C13 UNL     1      21.538  -1.014  54.555  1.00  0.00     0.122 A 
HETATM    8  N3  UNL     1      20.828  -0.052  53.895  1.00  0.00    -0.236 NA
HETATM    9  C14 UNL     1      21.494   0.861  53.127  1.00  0.00     0.177 A 
HETATM   10  O1  UNL     1      20.426   1.638  52.648  1.00  0.00    -0.304 OA
HETATM   11  C15 UNL     1      20.344   3.025  52.397  1.00  0.00     0.144 C 
HETATM   12  C16 UNL     1      21.159   3.892  51.823  1.00  0.00     0.024 C 
ENDROOT
BRANCH   5  13
HETATM   13  N1  UNL     1      24.989  -0.217  53.604  1.00  0.00    -0.385 N 
HETATM   14  H5  UNL     1      25.625   0.446  54.133  1.00  0.00     0.160 HD
BRANCH  13  15
HETATM   15  C6  UNL     1      25.920  -1.146  53.004  1.00  0.00     0.160 C 
BRANCH  15  16
HETATM   16  C7  UNL     1      27.346  -0.795  53.207  1.00  0.00    -0.023 A 
HETATM   17  C8  UNL     1      27.405   0.585  53.474  1.00  0.00     0.012 A 
HETATM   18  C9  UNL     1      28.624   1.227  53.725  1.00  0.00     0.020 A 
HETATM   19  C10 UNL     1      29.795   0.496  53.712  1.00  0.00     0.116 A 
HETATM   20  N2  UNL     1      29.708  -0.819  53.455  1.00  0.00    -0.273 NA
HETATM   21  C11 UNL     1      28.552  -1.452  53.212  1.00  0.00     0.124 A 
ENDBRANCH  15  16
ENDBRANCH  13  15
ENDBRANCH   5  13
TORSDOF 3
ENDMDL
