MODEL 1
REMARK VINA RESULT:      -7.4      0.000      0.000
REMARK  7 active torsions:
REMARK  status: ('A' for Active; 'I' for Inactive)
REMARK    1  A    between atoms: O1_2  and  C2_3 
REMARK    2  A    between atoms: C3_5  and  N2_6 
REMARK    3  A    between atoms: N2_6  and  C4_7 
REMARK    4  A    between atoms: C10_16  and  N4_17 
REMARK    5  A    between atoms: N4_17  and  C11_18 
REMARK    6  A    between atoms: C11_18  and  C12_19 
REMARK    7  A    between atoms: C12_19  and  N5_20 
ROOT
HETATM    1  C2  UNL     1      27.143  -0.412  53.675  1.00  0.00     0.302 A 
HETATM    2  N1  UNL     1      27.310   0.463  52.666  1.00  0.00    -0.017 NA
HETATM    3  C3  UNL     1      26.268   0.993  52.001  1.00  0.00     0.745 A 
HETATM    4  N3  UNL     1      25.055   0.612  52.391  1.00  0.00     0.130 NA
HETATM    5  C10 UNL     1      24.838  -0.266  53.403  1.00  0.00     0.742 A 
HETATM    6  N6  UNL     1      25.898  -0.769  54.034  1.00  0.00    -0.018 NA
ENDROOT
BRANCH   3   7
HETATM    7  N2  UNL     1      26.449   1.917  50.935  1.00  0.00    -0.197 N 
HETATM    8  H4  UNL     1      27.181   1.733  50.229  1.00  0.00     0.183 HD
BRANCH   7   9
HETATM    9  C4  UNL     1      25.567   3.032  50.962  1.00  0.00     0.118 C 
HETATM   10  C5  UNL     1      25.838   4.081  50.230  1.00  0.00    -0.014 A 
HETATM   11  C6  UNL     1      27.014   4.156  49.382  1.00  0.00     0.015 A 
HETATM   12  P1  UNL     1      24.757   5.559  50.205  1.00  0.00    -0.069 P 
HETATM   13  C7  UNL     1      27.465   5.098  48.583  1.00  0.00     0.025 A 
HETATM   14  C8  UNL     1      26.692   6.315  48.480  1.00  0.00     0.034 A 
HETATM   15 CL1  UNL     1      27.340   7.549  47.394  1.00  0.00    -0.084 Cl
HETATM   16  C9  UNL     1      25.573   6.721  49.038  1.00  0.00     0.032 A 
HETATM   17  H9  UNL     1      24.695   6.160  51.546  1.00  0.00     0.066 HD
ENDBRANCH   7   9
ENDBRANCH   3   7
BRANCH   1  18
HETATM   18  O1  UNL     1      28.261  -0.915  54.312  1.00  0.00    -0.323 OA
HETATM   19  C1  UNL     1      29.529  -0.456  53.925  1.00  0.00     0.213 C 
ENDBRANCH   1  18
BRANCH   5  20
HETATM   20  N4  UNL     1      23.533  -0.675  53.819  1.00  0.00    -0.220 N 
HETATM   21  H10 UNL     1      23.496  -1.161  54.753  1.00  0.00     0.177 HD
BRANCH  20  22
HETATM   22  C11 UNL     1      22.354  -0.450  53.037  1.00  0.00     0.168 C 
BRANCH  22  23
HETATM   23  C12 UNL     1      21.139  -0.083  53.862  1.00  0.00     0.292 C 
BRANCH  23  24
HETATM   24  N5  UNL     1      20.484   1.025  53.203  1.00  0.00     0.094 N 
HETATM   25  C13 UNL     1      21.388   1.928  52.565  1.00  0.00     0.298 C 
HETATM   26  C14 UNL     1      20.680   3.268  52.416  1.00  0.00     0.198 C 
HETATM   27  O2  UNL     1      19.329   3.049  52.171  1.00  0.00    -0.388 OA
HETATM   28  C15 UNL     1      19.111   1.868  51.458  1.00  0.00     0.198 C 
HETATM   29  C16 UNL     1      19.391   0.656  52.358  1.00  0.00     0.298 C 
ENDBRANCH  23  24
ENDBRANCH  22  23
ENDBRANCH  20  22
ENDBRANCH   5  20
TORSDOF 7
ENDMDL
MODEL 2
REMARK VINA RESULT:      -7.4      3.687      6.360
REMARK  7 active torsions:
REMARK  status: ('A' for Active; 'I' for Inactive)
REMARK    1  A    between atoms: O1_2  and  C2_3 
REMARK    2  A    between atoms: C3_5  and  N2_6 
REMARK    3  A    between atoms: N2_6  and  C4_7 
REMARK    4  A    between atoms: C10_16  and  N4_17 
REMARK    5  A    between atoms: N4_17  and  C11_18 
REMARK    6  A    between atoms: C11_18  and  C12_19 
REMARK    7  A    between atoms: C12_19  and  N5_20 
ROOT
HETATM    1  C2  UNL     1      27.704   1.204  53.548  1.00  0.00     0.302 A 
HETATM    2  N1  UNL     1      26.520   0.634  53.836  1.00  0.00    -0.017 NA
HETATM    3  C3  UNL     1      25.394   0.953  53.173  1.00  0.00     0.745 A 
HETATM    4  N3  UNL     1      25.507   1.863  52.210  1.00  0.00     0.130 NA
HETATM    5  C10 UNL     1      26.680   2.464  51.883  1.00  0.00     0.742 A 
HETATM    6  N6  UNL     1      27.771   2.119  52.566  1.00  0.00    -0.018 NA
ENDROOT
BRANCH   3   7
HETATM    7  N2  UNL     1      24.144   0.350  53.481  1.00  0.00    -0.197 N 
HETATM    8  H4  UNL     1      24.111  -0.411  54.180  1.00  0.00     0.183 HD
BRANCH   7   9
HETATM    9  C4  UNL     1      23.037   0.883  52.765  1.00  0.00     0.118 C 
HETATM   10  C5  UNL     1      21.860   0.329  52.900  1.00  0.00    -0.014 A 
HETATM   11  C6  UNL     1      21.634  -0.820  53.758  1.00  0.00     0.015 A 
HETATM   12  P1  UNL     1      20.382   0.951  52.015  1.00  0.00    -0.069 P 
HETATM   13  C7  UNL     1      20.552  -1.517  54.030  1.00  0.00     0.025 A 
HETATM   14  C8  UNL     1      19.319  -1.117  53.389  1.00  0.00     0.034 A 
HETATM   15 CL1  UNL     1      17.896  -2.085  53.787  1.00  0.00    -0.084 Cl
HETATM   16  C9  UNL     1      19.015  -0.158  52.544  1.00  0.00     0.032 A 
HETATM   17  H9  UNL     1      20.581   0.840  50.562  1.00  0.00     0.066 HD
ENDBRANCH   7   9
ENDBRANCH   3   7
BRANCH   1  18
HETATM   18  O1  UNL     1      28.819   0.826  54.273  1.00  0.00    -0.323 OA
HETATM   19  C1  UNL     1      29.733  -0.069  53.696  1.00  0.00     0.213 C 
ENDBRANCH   1  18
BRANCH   5  20
HETATM   20  N4  UNL     1      26.798   3.442  50.848  1.00  0.00    -0.220 N 
HETATM   21  H10 UNL     1      27.726   3.938  50.809  1.00  0.00     0.177 HD
BRANCH  20  22
HETATM   22  C11 UNL     1      25.743   3.738  49.925  1.00  0.00     0.168 C 
BRANCH  22  23
HETATM   23  C12 UNL     1      25.163   5.126  50.091  1.00  0.00     0.292 C 
BRANCH  23  24
HETATM   24  N5  UNL     1      23.794   4.976  50.533  1.00  0.00     0.094 N 
HETATM   25  C13 UNL     1      23.123   3.859  49.948  1.00  0.00     0.298 C 
HETATM   26  C14 UNL     1      21.625   4.122  50.030  1.00  0.00     0.198 C 
HETATM   27  O2  UNL     1      21.343   4.807  51.206  1.00  0.00    -0.388 OA
HETATM   28  C15 UNL     1      22.220   4.463  52.236  1.00  0.00     0.198 C 
HETATM   29  C16 UNL     1      23.613   5.043  51.950  1.00  0.00     0.298 C 
ENDBRANCH  23  24
ENDBRANCH  22  23
ENDBRANCH  20  22
ENDBRANCH   5  20
TORSDOF 7
ENDMDL
MODEL 3
REMARK VINA RESULT:      -7.2      1.895      5.481
REMARK  7 active torsions:
REMARK  status: ('A' for Active; 'I' for Inactive)
REMARK    1  A    between atoms: O1_2  and  C2_3 
REMARK    2  A    between atoms: C3_5  and  N2_6 
REMARK    3  A    between atoms: N2_6  and  C4_7 
REMARK    4  A    between atoms: C10_16  and  N4_17 
REMARK    5  A    between atoms: N4_17  and  C11_18 
REMARK    6  A    between atoms: C11_18  and  C12_19 
REMARK    7  A    between atoms: C12_19  and  N5_20 
ROOT
HETATM    1  C2  UNL     1      21.181   0.493  51.493  1.00  0.00     0.302 A 
HETATM    2  N1  UNL     1      21.784   1.421  50.727  1.00  0.00    -0.017 NA
HETATM    3  C3  UNL     1      23.076   1.754  50.894  1.00  0.00     0.745 A 
HETATM    4  N3  UNL     1      23.737   1.118  51.856  1.00  0.00     0.130 NA
HETATM    5  C10 UNL     1      23.172   0.175  52.653  1.00  0.00     0.742 A 
HETATM    6  N6  UNL     1      21.889  -0.124  52.455  1.00  0.00    -0.018 NA
ENDROOT
BRANCH   3   7
HETATM    7  N2  UNL     1      23.709   2.736  50.082  1.00  0.00    -0.197 N 
HETATM    8  H4  UNL     1      24.203   2.438  49.224  1.00  0.00     0.183 HD
BRANCH   7   9
HETATM    9  C4  UNL     1      23.584   4.068  50.561  1.00  0.00     0.118 C 
HETATM   10  C5  UNL     1      24.470   4.963  50.206  1.00  0.00    -0.014 A 
HETATM   11  C6  UNL     1      25.586   4.648  49.333  1.00  0.00     0.015 A 
HETATM   12  P1  UNL     1      24.385   6.701  50.777  1.00  0.00    -0.069 P 
HETATM   13  C7  UNL     1      26.571   5.383  48.863  1.00  0.00     0.025 A 
HETATM   14  C8  UNL     1      26.608   6.776  49.245  1.00  0.00     0.034 A 
HETATM   15 CL1  UNL     1      27.950   7.719  48.587  1.00  0.00    -0.084 Cl
HETATM   16  C9  UNL     1      25.836   7.522  50.004  1.00  0.00     0.032 A 
HETATM   17  H9  UNL     1      24.502   6.756  52.242  1.00  0.00     0.066 HD
ENDBRANCH   7   9
ENDBRANCH   3   7
BRANCH   1  18
HETATM   18  O1  UNL     1      19.850   0.202  51.265  1.00  0.00    -0.323 OA
HETATM   19  C1  UNL     1      19.001  -0.006  52.363  1.00  0.00     0.213 C 
ENDBRANCH   1  18
BRANCH   5  20
HETATM   20  N4  UNL     1      23.885  -0.507  53.687  1.00  0.00    -0.220 N 
HETATM   21  H10 UNL     1      23.282  -0.918  54.446  1.00  0.00     0.177 HD
BRANCH  20  22
HETATM   22  C11 UNL     1      25.312  -0.629  53.706  1.00  0.00     0.168 C 
BRANCH  22  23
HETATM   23  C12 UNL     1      25.943  -0.183  55.008  1.00  0.00     0.292 C 
BRANCH  23  24
HETATM   24  N5  UNL     1      26.990   0.760  54.684  1.00  0.00     0.094 N 
HETATM   25  C13 UNL     1      28.224   0.142  54.314  1.00  0.00     0.298 C 
HETATM   26  C14 UNL     1      29.338   1.154  54.544  1.00  0.00     0.198 C 
HETATM   27  O2  UNL     1      28.867   2.429  54.256  1.00  0.00    -0.388 OA
HETATM   28  C15 UNL     1      27.903   2.416  53.246  1.00  0.00     0.198 C 
HETATM   29  C16 UNL     1      26.603   1.795  53.775  1.00  0.00     0.298 C 
ENDBRANCH  23  24
ENDBRANCH  22  23
ENDBRANCH  20  22
ENDBRANCH   5  20
TORSDOF 7
ENDMDL
MODEL 4
REMARK VINA RESULT:      -7.1      2.081      5.661
REMARK  7 active torsions:
REMARK  status: ('A' for Active; 'I' for Inactive)
REMARK    1  A    between atoms: O1_2  and  C2_3 
REMARK    2  A    between atoms: C3_5  and  N2_6 
REMARK    3  A    between atoms: N2_6  and  C4_7 
REMARK    4  A    between atoms: C10_16  and  N4_17 
REMARK    5  A    between atoms: N4_17  and  C11_18 
REMARK    6  A    between atoms: C11_18  and  C12_19 
REMARK    7  A    between atoms: C12_19  and  N5_20 
ROOT
HETATM    1  C2  UNL     1      23.451   0.958  53.069  1.00  0.00     0.302 A 
HETATM    2  N1  UNL     1      23.082   1.724  52.025  1.00  0.00    -0.017 NA
HETATM    3  C3  UNL     1      23.842   2.742  51.583  1.00  0.00     0.745 A 
HETATM    4  N3  UNL     1      24.984   2.958  52.228  1.00  0.00     0.130 NA
HETATM    5  C10 UNL     1      25.398   2.212  53.284  1.00  0.00     0.742 A 
HETATM    6  N6  UNL     1      24.615   1.214  53.691  1.00  0.00    -0.018 NA
ENDROOT
BRANCH   3   7
HETATM    7  N2  UNL     1      23.448   3.548  50.480  1.00  0.00    -0.197 N 
HETATM    8  H4  UNL     1      23.026   3.097  49.651  1.00  0.00     0.183 HD
BRANCH   7   9
HETATM    9  C4  UNL     1      23.687   4.940  50.650  1.00  0.00     0.118 C 
HETATM   10  C5  UNL     1      24.743   5.480  50.101  1.00  0.00    -0.014 A 
HETATM   11  C6  UNL     1      25.693   4.711  49.317  1.00  0.00     0.015 A 
HETATM   12  P1  UNL     1      25.127   7.263  50.269  1.00  0.00    -0.069 P 
HETATM   13  C7  UNL     1      26.799   5.051  48.692  1.00  0.00     0.025 A 
HETATM   14  C8  UNL     1      27.204   6.438  48.754  1.00  0.00     0.034 A 
HETATM   15 CL1  UNL     1      28.696   6.843  47.898  1.00  0.00    -0.084 Cl
HETATM   16  C9  UNL     1      26.687   7.501  49.329  1.00  0.00     0.032 A 
HETATM   17  H9  UNL     1      25.341   7.601  51.684  1.00  0.00     0.066 HD
ENDBRANCH   7   9
ENDBRANCH   3   7
BRANCH   1  18
HETATM   18  O1  UNL     1      22.619  -0.070  53.468  1.00  0.00    -0.323 OA
HETATM   19  C1  UNL     1      21.234   0.066  53.287  1.00  0.00     0.213 C 
ENDBRANCH   1  18
BRANCH   5  20
HETATM   20  N4  UNL     1      26.626   2.447  53.976  1.00  0.00    -0.220 N 
HETATM   21  H10 UNL     1      26.542   3.031  54.848  1.00  0.00     0.177 HD
BRANCH  20  22
HETATM   22  C11 UNL     1      27.888   1.933  53.529  1.00  0.00     0.168 C 
BRANCH  22  23
HETATM   23  C12 UNL     1      28.552   1.006  54.524  1.00  0.00     0.292 C 
BRANCH  23  24
HETATM   24  N5  UNL     1      28.401  -0.344  54.029  1.00  0.00     0.094 N 
HETATM   25  C13 UNL     1      27.670  -0.427  52.804  1.00  0.00     0.298 C 
HETATM   26  C14 UNL     1      27.110  -1.838  52.691  1.00  0.00     0.198 C 
HETATM   27  O2  UNL     1      28.016  -2.737  53.242  1.00  0.00    -0.388 OA
HETATM   28  C15 UNL     1      29.337  -2.313  53.085  1.00  0.00     0.198 C 
HETATM   29  C16 UNL     1      29.609  -1.109  53.997  1.00  0.00     0.298 C 
ENDBRANCH  23  24
ENDBRANCH  22  23
ENDBRANCH  20  22
ENDBRANCH   5  20
TORSDOF 7
ENDMDL
MODEL 5
REMARK VINA RESULT:      -7.1      2.522      2.695
REMARK  7 active torsions:
REMARK  status: ('A' for Active; 'I' for Inactive)
REMARK    1  A    between atoms: O1_2  and  C2_3 
REMARK    2  A    between atoms: C3_5  and  N2_6 
REMARK    3  A    between atoms: N2_6  and  C4_7 
REMARK    4  A    between atoms: C10_16  and  N4_17 
REMARK    5  A    between atoms: N4_17  and  C11_18 
REMARK    6  A    between atoms: C11_18  and  C12_19 
REMARK    7  A    between atoms: C12_19  and  N5_20 
ROOT
HETATM    1  C2  UNL     1      26.757  -0.157  54.386  1.00  0.00     0.302 A 
HETATM    2  N1  UNL     1      26.668   0.657  53.317  1.00  0.00    -0.017 NA
HETATM    3  C3  UNL     1      25.499   0.893  52.696  1.00  0.00     0.745 A 
HETATM    4  N3  UNL     1      24.426   0.282  53.190  1.00  0.00     0.130 NA
HETATM    5  C10 UNL     1      24.468  -0.546  54.265  1.00  0.00     0.742 A 
HETATM    6  N6  UNL     1      25.646  -0.753  54.850  1.00  0.00    -0.018 NA
ENDROOT
BRANCH   3   7
HETATM    7  N2  UNL     1      25.409   1.753  51.567  1.00  0.00    -0.197 N 
HETATM    8  H4  UNL     1      25.793   1.436  50.660  1.00  0.00     0.183 HD
BRANCH   7   9
HETATM    9  C4  UNL     1      24.776   3.000  51.822  1.00  0.00     0.118 C 
HETATM   10  C5  UNL     1      23.804   3.397  51.043  1.00  0.00    -0.014 A 
HETATM   11  C6  UNL     1      23.338   2.608  49.916  1.00  0.00     0.015 A 
HETATM   12  P1  UNL     1      22.935   4.988  51.299  1.00  0.00    -0.069 P 
HETATM   13  C7  UNL     1      22.395   2.818  49.024  1.00  0.00     0.025 A 
HETATM   14  C8  UNL     1      21.638   4.045  49.126  1.00  0.00     0.034 A 
HETATM   15 CL1  UNL     1      20.383   4.280  47.905  1.00  0.00    -0.084 Cl
HETATM   16  C9  UNL     1      21.681   5.062  49.958  1.00  0.00     0.032 A 
HETATM   17  H9  UNL     1      23.880   6.107  51.160  1.00  0.00     0.066 HD
ENDBRANCH   7   9
ENDBRANCH   3   7
BRANCH   1  18
HETATM   18  O1  UNL     1      27.993  -0.353  54.973  1.00  0.00    -0.323 OA
HETATM   19  C1  UNL     1      29.151  -0.085  54.226  1.00  0.00     0.213 C 
ENDBRANCH   1  18
BRANCH   5  20
HETATM   20  N4  UNL     1      23.313  -1.201  54.795  1.00  0.00    -0.220 N 
HETATM   21  H10 UNL     1      23.486  -1.777  55.659  1.00  0.00     0.177 HD
BRANCH  20  22
HETATM   22  C11 UNL     1      22.012  -1.095  54.204  1.00  0.00     0.168 C 
BRANCH  22  23
HETATM   23  C12 UNL     1      21.171   0.022  54.786  1.00  0.00     0.292 C 
BRANCH  23  24
HETATM   24  N5  UNL     1      20.368   0.566  53.714  1.00  0.00     0.094 N 
HETATM   25  C13 UNL     1      21.100   1.404  52.817  1.00  0.00     0.298 C 
HETATM   26  C14 UNL     1      20.104   2.321  52.120  1.00  0.00     0.198 C 
HETATM   27  O2  UNL     1      18.913   1.634  51.915  1.00  0.00    -0.388 OA
HETATM   28  C15 UNL     1      19.124   0.269  51.712  1.00  0.00     0.198 C 
HETATM   29  C16 UNL     1      19.558  -0.392  53.028  1.00  0.00     0.298 C 
ENDBRANCH  23  24
ENDBRANCH  22  23
ENDBRANCH  20  22
ENDBRANCH   5  20
TORSDOF 7
ENDMDL
MODEL 6
REMARK VINA RESULT:      -7.0      5.371     10.004
REMARK  7 active torsions:
REMARK  status: ('A' for Active; 'I' for Inactive)
REMARK    1  A    between atoms: O1_2  and  C2_3 
REMARK    2  A    between atoms: C3_5  and  N2_6 
REMARK    3  A    between atoms: N2_6  and  C4_7 
REMARK    4  A    between atoms: C10_16  and  N4_17 
REMARK    5  A    between atoms: N4_17  and  C11_18 
REMARK    6  A    between atoms: C11_18  and  C12_19 
REMARK    7  A    between atoms: C12_19  and  N5_20 
ROOT
HETATM    1  C2  UNL     1      20.906   1.516  52.619  1.00  0.00     0.302 A 
HETATM    2  N1  UNL     1      19.906   0.690  52.976  1.00  0.00    -0.017 NA
HETATM    3  C3  UNL     1      20.137  -0.534  53.484  1.00  0.00     0.745 A 
HETATM    4  N3  UNL     1      21.410  -0.892  53.620  1.00  0.00     0.130 NA
HETATM    5  C10 UNL     1      22.452  -0.093  53.275  1.00  0.00     0.742 A 
HETATM    6  N6  UNL     1      22.178   1.111  52.775  1.00  0.00    -0.018 NA
ENDROOT
BRANCH   3   7
HETATM    7  N2  UNL     1      19.077  -1.404  53.858  1.00  0.00    -0.197 N 
HETATM    8  H4  UNL     1      19.236  -2.098  54.609  1.00  0.00     0.183 HD
BRANCH   7   9
HETATM    9  C4  UNL     1      17.870  -1.213  53.132  1.00  0.00     0.118 C 
HETATM   10  C5  UNL     1      17.018  -2.200  53.033  1.00  0.00    -0.014 A 
HETATM   11  C6  UNL     1      17.255  -3.497  53.642  1.00  0.00     0.015 A 
HETATM   12  P1  UNL     1      15.441  -2.041  52.117  1.00  0.00    -0.069 P 
HETATM   13  C7  UNL     1      16.545  -4.603  53.663  1.00  0.00     0.025 A 
HETATM   14  C8  UNL     1      15.275  -4.597  52.972  1.00  0.00     0.034 A 
HETATM   15 CL1  UNL     1      14.359  -6.107  53.030  1.00  0.00    -0.084 Cl
HETATM   16  C9  UNL     1      14.630  -3.681  52.283  1.00  0.00     0.032 A 
HETATM   17  H9  UNL     1      15.709  -1.758  50.698  1.00  0.00     0.066 HD
ENDBRANCH   7   9
ENDBRANCH   3   7
BRANCH   1  18
HETATM   18  O1  UNL     1      20.592   2.759  52.104  1.00  0.00    -0.323 OA
HETATM   19  C1  UNL     1      19.255   3.047  51.789  1.00  0.00     0.213 C 
ENDBRANCH   1  18
BRANCH   5  20
HETATM   20  N4  UNL     1      23.820  -0.480  53.423  1.00  0.00    -0.220 N 
HETATM   21  H10 UNL     1      23.970  -1.420  53.873  1.00  0.00     0.177 HD
BRANCH  20  22
HETATM   22  C11 UNL     1      24.916   0.338  52.995  1.00  0.00     0.168 C 
BRANCH  22  23
HETATM   23  C12 UNL     1      26.226  -0.414  52.884  1.00  0.00     0.292 C 
BRANCH  23  24
HETATM   24  N5  UNL     1      27.251   0.406  53.493  1.00  0.00     0.094 N 
HETATM   25  C13 UNL     1      28.562  -0.155  53.403  1.00  0.00     0.298 C 
HETATM   26  C14 UNL     1      29.409   0.464  54.507  1.00  0.00     0.198 C 
HETATM   27  O2  UNL     1      29.024   1.786  54.694  1.00  0.00    -0.388 OA
HETATM   28  C15 UNL     1      28.579   2.375  53.509  1.00  0.00     0.198 C 
HETATM   29  C16 UNL     1      27.218   1.784  53.113  1.00  0.00     0.298 C 
ENDBRANCH  23  24
ENDBRANCH  22  23
ENDBRANCH  20  22
ENDBRANCH   5  20
TORSDOF 7
ENDMDL
MODEL 7
REMARK VINA RESULT:      -6.9      4.498      7.475
REMARK  7 active torsions:
REMARK  status: ('A' for Active; 'I' for Inactive)
REMARK    1  A    between atoms: O1_2  and  C2_3 
REMARK    2  A    between atoms: C3_5  and  N2_6 
REMARK    3  A    between atoms: N2_6  and  C4_7 
REMARK    4  A    between atoms: C10_16  and  N4_17 
REMARK    5  A    between atoms: N4_17  and  C11_18 
REMARK    6  A    between atoms: C11_18  and  C12_19 
REMARK    7  A    between atoms: C12_19  and  N5_20 
ROOT
HETATM    1  C2  UNL     1      26.054   6.657  49.606  1.00  0.00     0.302 A 
HETATM    2  N1  UNL     1      27.167   6.621  48.850  1.00  0.00    -0.017 NA
HETATM    3  C3  UNL     1      27.814   5.471  48.588  1.00  0.00     0.745 A 
HETATM    4  N3  UNL     1      27.299   4.363  49.112  1.00  0.00     0.130 NA
HETATM    5  C10 UNL     1      26.179   4.351  49.879  1.00  0.00     0.742 A 
HETATM    6  N6  UNL     1      25.570   5.512  50.116  1.00  0.00    -0.018 NA
ENDROOT
BRANCH   3   7
HETATM    7  N2  UNL     1      28.990   5.437  47.789  1.00  0.00    -0.197 N 
HETATM    8  H4  UNL     1      28.936   5.055  46.829  1.00  0.00     0.183 HD
BRANCH   7   9
HETATM    9  C4  UNL     1      30.152   5.954  48.424  1.00  0.00     0.118 C 
HETATM   10  C5  UNL     1      31.323   5.457  48.122  1.00  0.00    -0.014 A 
HETATM   11  C6  UNL     1      31.488   4.388  47.153  1.00  0.00     0.015 A 
HETATM   12  P1  UNL     1      32.870   6.063  48.892  1.00  0.00    -0.069 P 
HETATM   13  C7  UNL     1      32.553   3.756  46.712  1.00  0.00     0.025 A 
HETATM   14  C8  UNL     1      33.836   4.150  47.249  1.00  0.00     0.034 A 
HETATM   15 CL1  UNL     1      35.236   3.270  46.625  1.00  0.00    -0.084 Cl
HETATM   16  C9  UNL     1      34.203   5.051  48.134  1.00  0.00     0.032 A 
HETATM   17  H9  UNL     1      32.833   5.832  50.344  1.00  0.00     0.066 HD
ENDBRANCH   7   9
ENDBRANCH   3   7
BRANCH   1  18
HETATM   18  O1  UNL     1      25.443   7.875  49.834  1.00  0.00    -0.323 OA
HETATM   19  C1  UNL     1      26.232   9.035  49.874  1.00  0.00     0.213 C 
ENDBRANCH   1  18
BRANCH   5  20
HETATM   20  N4  UNL     1      25.627   3.159  50.442  1.00  0.00    -0.220 N 
HETATM   21  H10 UNL     1      24.576   3.112  50.442  1.00  0.00     0.177 HD
BRANCH  20  22
HETATM   22  C11 UNL     1      26.431   2.097  50.972  1.00  0.00     0.168 C 
BRANCH  22  23
HETATM   23  C12 UNL     1      26.667   2.201  52.464  1.00  0.00     0.292 C 
BRANCH  23  24
HETATM   24  N5  UNL     1      27.097   0.900  52.928  1.00  0.00     0.094 N 
HETATM   25  C13 UNL     1      26.805  -0.159  52.014  1.00  0.00     0.298 C 
HETATM   26  C14 UNL     1      26.776  -1.460  52.805  1.00  0.00     0.198 C 
HETATM   27  O2  UNL     1      27.726  -1.402  53.818  1.00  0.00    -0.388 OA
HETATM   28  C15 UNL     1      28.833  -0.632  53.456  1.00  0.00     0.198 C 
HETATM   29  C16 UNL     1      28.442   0.852  53.410  1.00  0.00     0.298 C 
ENDBRANCH  23  24
ENDBRANCH  22  23
ENDBRANCH  20  22
ENDBRANCH   5  20
TORSDOF 7
ENDMDL
MODEL 8
REMARK VINA RESULT:      -6.8      5.567     10.418
REMARK  7 active torsions:
REMARK  status: ('A' for Active; 'I' for Inactive)
REMARK    1  A    between atoms: O1_2  and  C2_3 
REMARK    2  A    between atoms: C3_5  and  N2_6 
REMARK    3  A    between atoms: N2_6  and  C4_7 
REMARK    4  A    between atoms: C10_16  and  N4_17 
REMARK    5  A    between atoms: N4_17  and  C11_18 
REMARK    6  A    between atoms: C11_18  and  C12_19 
REMARK    7  A    between atoms: C12_19  and  N5_20 
ROOT
HETATM    1  C2  UNL     1      26.372   6.719  48.586  1.00  0.00     0.302 A 
HETATM    2  N1  UNL     1      25.747   5.648  49.110  1.00  0.00    -0.017 NA
HETATM    3  C3  UNL     1      26.376   4.473  49.292  1.00  0.00     0.745 A 
HETATM    4  N3  UNL     1      27.653   4.417  48.928  1.00  0.00     0.130 NA
HETATM    5  C10 UNL     1      28.325   5.470  48.396  1.00  0.00     0.742 A 
HETATM    6  N6  UNL     1      27.665   6.615  48.232  1.00  0.00    -0.018 NA
ENDROOT
BRANCH   3   7
HETATM    7  N2  UNL     1      25.711   3.344  49.845  1.00  0.00    -0.197 N 
HETATM    8  H4  UNL     1      24.745   3.130  49.543  1.00  0.00     0.183 HD
BRANCH   7   9
HETATM    9  C4  UNL     1      26.480   2.608  50.787  1.00  0.00     0.118 C 
HETATM   10  C5  UNL     1      25.873   1.811  51.628  1.00  0.00    -0.014 A 
HETATM   11  C6  UNL     1      24.431   1.645  51.639  1.00  0.00     0.015 A 
HETATM   12  P1  UNL     1      26.786   0.827  52.873  1.00  0.00    -0.069 P 
HETATM   13  C7  UNL     1      23.635   0.911  52.386  1.00  0.00     0.025 A 
HETATM   14  C8  UNL     1      24.244   0.088  53.406  1.00  0.00     0.034 A 
HETATM   15 CL1  UNL     1      23.132  -0.879  54.381  1.00  0.00    -0.084 Cl
HETATM   16  C9  UNL     1      25.489  -0.105  53.782  1.00  0.00     0.032 A 
HETATM   17  H9  UNL     1      27.499   1.721  53.798  1.00  0.00     0.066 HD
ENDBRANCH   7   9
ENDBRANCH   3   7
BRANCH   1  18
HETATM   18  O1  UNL     1      25.663   7.894  48.429  1.00  0.00    -0.323 OA
HETATM   19  C1  UNL     1      24.355   7.836  47.922  1.00  0.00     0.213 C 
ENDBRANCH   1  18
BRANCH   5  20
HETATM   20  N4  UNL     1      29.698   5.407  48.006  1.00  0.00    -0.220 N 
HETATM   21  H10 UNL     1      29.957   4.572  47.420  1.00  0.00     0.177 HD
BRANCH  20  22
HETATM   22  C11 UNL     1      30.665   6.398  48.378  1.00  0.00     0.168 C 
BRANCH  22  23
HETATM   23  C12 UNL     1      31.678   5.907  49.390  1.00  0.00     0.292 C 
BRANCH  23  24
HETATM   24  N5  UNL     1      32.955   6.492  49.046  1.00  0.00     0.094 N 
HETATM   25  C13 UNL     1      33.887   5.556  48.501  1.00  0.00     0.298 C 
HETATM   26  C14 UNL     1      35.287   6.119  48.706  1.00  0.00     0.198 C 
HETATM   27  O2  UNL     1      35.247   7.503  48.579  1.00  0.00    -0.388 OA
HETATM   28  C15 UNL     1      34.269   7.919  47.674  1.00  0.00     0.198 C 
HETATM   29  C16 UNL     1      32.874   7.694  48.276  1.00  0.00     0.298 C 
ENDBRANCH  23  24
ENDBRANCH  22  23
ENDBRANCH  20  22
ENDBRANCH   5  20
TORSDOF 7
ENDMDL
MODEL 9
REMARK VINA RESULT:      -6.8      3.934      6.840
REMARK  7 active torsions:
REMARK  status: ('A' for Active; 'I' for Inactive)
REMARK    1  A    between atoms: O1_2  and  C2_3 
REMARK    2  A    between atoms: C3_5  and  N2_6 
REMARK    3  A    between atoms: N2_6  and  C4_7 
REMARK    4  A    between atoms: C10_16  and  N4_17 
REMARK    5  A    between atoms: N4_17  and  C11_18 
REMARK    6  A    between atoms: C11_18  and  C12_19 
REMARK    7  A    between atoms: C12_19  and  N5_20 
ROOT
HETATM    1  C2  UNL     1      26.539   1.270  51.986  1.00  0.00     0.302 A 
HETATM    2  N1  UNL     1      25.223   0.991  51.944  1.00  0.00    -0.017 NA
HETATM    3  C3  UNL     1      24.343   1.794  51.318  1.00  0.00     0.745 A 
HETATM    4  N3  UNL     1      24.838   2.883  50.737  1.00  0.00     0.130 NA
HETATM    5  C10 UNL     1      26.157   3.204  50.753  1.00  0.00     0.742 A 
HETATM    6  N6  UNL     1      26.994   2.382  51.385  1.00  0.00    -0.018 NA
ENDROOT
BRANCH   3   7
HETATM    7  N2  UNL     1      22.954   1.497  51.276  1.00  0.00    -0.197 N 
HETATM    8  H4  UNL     1      22.393   1.820  50.469  1.00  0.00     0.183 HD
BRANCH   7   9
HETATM    9  C4  UNL     1      22.472   0.760  52.392  1.00  0.00     0.118 C 
HETATM   10  C5  UNL     1      21.233   0.342  52.399  1.00  0.00    -0.014 A 
HETATM   11  C6  UNL     1      20.318   0.602  51.302  1.00  0.00     0.015 A 
HETATM   12  P1  UNL     1      20.532  -0.613  53.795  1.00  0.00    -0.069 P 
HETATM   13  C7  UNL     1      19.057   0.281  51.112  1.00  0.00     0.025 A 
HETATM   14  C8  UNL     1      18.395  -0.478  52.149  1.00  0.00     0.034 A 
HETATM   15 CL1  UNL     1      16.703  -0.884  51.845  1.00  0.00    -0.084 Cl
HETATM   16  C9  UNL     1      18.791  -0.946  53.312  1.00  0.00     0.032 A 
HETATM   17  H9  UNL     1      20.563   0.195  55.024  1.00  0.00     0.066 HD
ENDBRANCH   7   9
ENDBRANCH   3   7
BRANCH   1  18
HETATM   18  O1  UNL     1      27.383   0.398  52.648  1.00  0.00    -0.323 OA
HETATM   19  C1  UNL     1      27.035  -0.959  52.724  1.00  0.00     0.213 C 
ENDBRANCH   1  18
BRANCH   5  20
HETATM   20  N4  UNL     1      26.686   4.375  50.128  1.00  0.00    -0.220 N 
HETATM   21  H10 UNL     1      27.722   4.518  50.254  1.00  0.00     0.177 HD
BRANCH  20  22
HETATM   22  C11 UNL     1      25.882   5.297  49.382  1.00  0.00     0.168 C 
BRANCH  22  23
HETATM   23  C12 UNL     1      25.443   6.505  50.183  1.00  0.00     0.292 C 
BRANCH  23  24
HETATM   24  N5  UNL     1      24.015   6.397  50.385  1.00  0.00     0.094 N 
HETATM   25  C13 UNL     1      23.654   5.920  51.683  1.00  0.00     0.298 C 
HETATM   26  C14 UNL     1      22.252   5.333  51.589  1.00  0.00     0.198 C 
HETATM   27  O2  UNL     1      21.505   6.073  50.680  1.00  0.00    -0.388 OA
HETATM   28  C15 UNL     1      21.887   7.416  50.657  1.00  0.00     0.198 C 
HETATM   29  C16 UNL     1      23.267   7.554  50.001  1.00  0.00     0.298 C 
ENDBRANCH  23  24
ENDBRANCH  22  23
ENDBRANCH  20  22
ENDBRANCH   5  20
TORSDOF 7
ENDMDL
