MODEL 1
REMARK VINA RESULT:      -7.5      0.000      0.000
REMARK  5 active torsions:
REMARK  status: ('A' for Active; 'I' for Inactive)
REMARK    1  A    between atoms: C2_2  and  C3_3 
REMARK    2  A    between atoms: C2_2  and  O1_6 
REMARK    3  A    between atoms: C3_3  and  C4_4 
REMARK    4  A    between atoms: O1_6  and  C5_7 
REMARK    5  A    between atoms: C13_15  and  C14_16 
REMARK       I    between atoms: C14_16  and  N1_17 
ROOT
HETATM    1  C5  UNL     1      24.264   0.245  52.908  1.00  0.00     0.062 C 
HETATM    2  C6  UNL     1      23.284   0.833  52.168  1.00  0.00     0.035 C 
HETATM    3  C7  UNL     1      23.233   2.221  51.624  1.00  0.00     0.030 C 
HETATM    4  C8  UNL     1      24.143   3.100  52.014  1.00  0.00     0.037 C 
HETATM    5  C9  UNL     1      24.625   3.899  50.825  1.00  0.00     0.086 C 
HETATM    6  C10 UNL     1      26.051   3.327  50.638  1.00  0.00    -0.024 C 
HETATM    7  C11 UNL     1      26.688   2.224  51.157  1.00  0.00    -0.023 C 
HETATM    8  C12 UNL     1      26.299   0.925  51.656  1.00  0.00     0.043 A 
HETATM    9  C13 UNL     1      26.897   0.258  52.824  1.00  0.00     0.107 A 
HETATM   10  C15 UNL     1      25.629   0.864  53.036  1.00  0.00     0.063 A 
HETATM   11  C16 UNL     1      25.557   2.221  53.688  1.00  0.00     0.108 C 
HETATM   12  N2  UNL     1      24.724   3.238  53.369  1.00  0.00    -0.268 NA
ENDROOT
BRANCH   1  13
HETATM   13  O1  UNL     1      23.746  -0.915  53.439  1.00  0.00    -0.349 OA
BRANCH  13  14
HETATM   14  C2  UNL     1      22.838  -0.914  54.511  1.00  0.00     0.126 C 
HETATM   15  C1  UNL     1      23.601  -1.469  55.721  1.00  0.00     0.040 C 
BRANCH  14  16
HETATM   16  C3  UNL     1      21.612  -1.729  54.262  1.00  0.00     0.063 C 
BRANCH  16  17
HETATM   17  C4  UNL     1      20.414  -0.887  53.893  1.00  0.00     0.224 C 
HETATM   18  F1  UNL     1      20.498   0.416  54.276  1.00  0.00    -0.255 F 
ENDBRANCH  16  17
ENDBRANCH  14  16
ENDBRANCH  13  14
ENDBRANCH   1  13
BRANCH   9  19
HETATM   19  C14 UNL     1      27.068  -1.193  52.864  1.00  0.00     0.221 C 
HETATM   20  N1  UNL     1      27.231  -2.585  52.902  1.00  0.00    -0.370 N 
HETATM   21  H17 UNL     1      26.332  -3.085  53.137  1.00  0.00     0.159 HD
HETATM   22  H18 UNL     1      28.196  -2.930  52.699  1.00  0.00     0.159 HD
HETATM   23  O2  UNL     1      27.499  -0.758  53.987  1.00  0.00    -0.273 OA
ENDBRANCH   9  19
TORSDOF 5
ENDMDL
MODEL 2
REMARK VINA RESULT:      -7.2      2.746      4.896
REMARK  5 active torsions:
REMARK  status: ('A' for Active; 'I' for Inactive)
REMARK    1  A    between atoms: C2_2  and  C3_3 
REMARK    2  A    between atoms: C2_2  and  O1_6 
REMARK    3  A    between atoms: C3_3  and  C4_4 
REMARK    4  A    between atoms: O1_6  and  C5_7 
REMARK    5  A    between atoms: C13_15  and  C14_16 
REMARK       I    between atoms: C14_16  and  N1_17 
ROOT
HETATM    1  C5  UNL     1      25.729   1.740  53.430  1.00  0.00     0.062 C 
HETATM    2  C6  UNL     1      26.879   2.269  52.928  1.00  0.00     0.035 C 
HETATM    3  C7  UNL     1      28.278   1.775  53.084  1.00  0.00     0.030 C 
HETATM    4  C8  UNL     1      28.525   0.803  53.947  1.00  0.00     0.037 C 
HETATM    5  C9  UNL     1      29.479  -0.195  53.331  1.00  0.00     0.086 C 
HETATM    6  C10 UNL     1      28.537  -1.398  53.083  1.00  0.00    -0.024 C 
HETATM    7  C11 UNL     1      27.168  -1.529  53.110  1.00  0.00    -0.023 C 
HETATM    8  C12 UNL     1      26.027  -0.669  52.901  1.00  0.00     0.043 A 
HETATM    9  C13 UNL     1      24.787  -0.706  53.694  1.00  0.00     0.107 A 
HETATM   10  C15 UNL     1      25.690   0.348  54.000  1.00  0.00     0.063 A 
HETATM   11  C16 UNL     1      26.606   0.217  55.189  1.00  0.00     0.108 C 
HETATM   12  N2  UNL     1      27.898   0.607  55.273  1.00  0.00    -0.268 NA
ENDROOT
BRANCH   1  13
HETATM   13  O1  UNL     1      24.740   2.688  53.297  1.00  0.00    -0.349 OA
BRANCH  13  14
HETATM   14  C2  UNL     1      24.514   3.377  52.093  1.00  0.00     0.126 C 
HETATM   15  C1  UNL     1      23.536   4.513  52.426  1.00  0.00     0.040 C 
BRANCH  14  16
HETATM   16  C3  UNL     1      23.952   2.523  51.006  1.00  0.00     0.063 C 
BRANCH  16  17
HETATM   17  C4  UNL     1      23.901   3.230  49.673  1.00  0.00     0.224 C 
HETATM   18  F1  UNL     1      25.115   3.449  49.101  1.00  0.00    -0.255 F 
ENDBRANCH  16  17
ENDBRANCH  14  16
ENDBRANCH  13  14
ENDBRANCH   1  13
BRANCH   9  19
HETATM   19  C14 UNL     1      23.486  -0.446  53.082  1.00  0.00     0.221 C 
HETATM   20  N1  UNL     1      22.238  -0.196  52.494  1.00  0.00    -0.370 N 
HETATM   21  H17 UNL     1      21.975   0.825  52.536  1.00  0.00     0.159 HD
HETATM   22  H18 UNL     1      21.748  -1.032  52.104  1.00  0.00     0.159 HD
HETATM   23  O2  UNL     1      23.238  -0.892  54.255  1.00  0.00    -0.273 OA
ENDBRANCH   9  19
TORSDOF 5
ENDMDL
MODEL 3
REMARK VINA RESULT:      -7.1      1.480      1.767
REMARK  5 active torsions:
REMARK  status: ('A' for Active; 'I' for Inactive)
REMARK    1  A    between atoms: C2_2  and  C3_3 
REMARK    2  A    between atoms: C2_2  and  O1_6 
REMARK    3  A    between atoms: C3_3  and  C4_4 
REMARK    4  A    between atoms: O1_6  and  C5_7 
REMARK    5  A    between atoms: C13_15  and  C14_16 
REMARK       I    between atoms: C14_16  and  N1_17 
ROOT
HETATM    1  C5  UNL     1      23.349   1.047  52.208  1.00  0.00     0.062 C 
HETATM    2  C6  UNL     1      22.816   1.215  50.966  1.00  0.00     0.035 C 
HETATM    3  C7  UNL     1      23.002   2.352  50.018  1.00  0.00     0.030 C 
HETATM    4  C8  UNL     1      23.612   3.449  50.440  1.00  0.00     0.037 C 
HETATM    5  C9  UNL     1      24.579   3.933  49.384  1.00  0.00     0.086 C 
HETATM    6  C10 UNL     1      25.938   3.584  50.039  1.00  0.00    -0.024 C 
HETATM    7  C11 UNL     1      26.277   2.808  51.122  1.00  0.00    -0.023 C 
HETATM    8  C12 UNL     1      25.721   1.667  51.812  1.00  0.00     0.043 A 
HETATM    9  C13 UNL     1      25.717   1.485  53.273  1.00  0.00     0.107 A 
HETATM   10  C15 UNL     1      24.488   1.900  52.695  1.00  0.00     0.063 A 
HETATM   11  C16 UNL     1      24.099   3.355  52.748  1.00  0.00     0.108 C 
HETATM   12  N2  UNL     1      23.495   4.076  51.776  1.00  0.00    -0.268 NA
ENDROOT
BRANCH   1  13
HETATM   13  O1  UNL     1      22.662   0.024  52.821  1.00  0.00    -0.349 OA
BRANCH  13  14
HETATM   14  C2  UNL     1      22.025   0.181  54.064  1.00  0.00     0.126 C 
HETATM   15  C1  UNL     1      22.095  -1.185  54.759  1.00  0.00     0.040 C 
BRANCH  14  16
HETATM   16  C3  UNL     1      20.605   0.629  53.960  1.00  0.00     0.063 C 
BRANCH  16  17
HETATM   17  C4  UNL     1      19.737  -0.349  53.205  1.00  0.00     0.224 C 
HETATM   18  F1  UNL     1      19.736  -0.181  51.855  1.00  0.00    -0.255 F 
ENDBRANCH  16  17
ENDBRANCH  14  16
ENDBRANCH  13  14
ENDBRANCH   1  13
BRANCH   9  19
HETATM   19  C14 UNL     1      25.874   0.161  53.873  1.00  0.00     0.221 C 
HETATM   20  N1  UNL     1      26.022  -1.109  54.448  1.00  0.00    -0.370 N 
HETATM   21  H17 UNL     1      25.127  -1.454  54.887  1.00  0.00     0.159 HD
HETATM   22  H18 UNL     1      26.974  -1.530  54.367  1.00  0.00     0.159 HD
HETATM   23  O2  UNL     1      26.352   0.990  54.722  1.00  0.00    -0.273 OA
ENDBRANCH   9  19
TORSDOF 5
ENDMDL
MODEL 4
REMARK VINA RESULT:      -7.0      2.849      4.889
REMARK  5 active torsions:
REMARK  status: ('A' for Active; 'I' for Inactive)
REMARK    1  A    between atoms: C2_2  and  C3_3 
REMARK    2  A    between atoms: C2_2  and  O1_6 
REMARK    3  A    between atoms: C3_3  and  C4_4 
REMARK    4  A    between atoms: O1_6  and  C5_7 
REMARK    5  A    between atoms: C13_15  and  C14_16 
REMARK       I    between atoms: C14_16  and  N1_17 
ROOT
HETATM    1  C5  UNL     1      24.107   1.133  53.148  1.00  0.00     0.062 C 
HETATM    2  C6  UNL     1      24.110   2.475  52.915  1.00  0.00     0.035 C 
HETATM    3  C7  UNL     1      23.119   3.291  52.155  1.00  0.00     0.030 C 
HETATM    4  C8  UNL     1      22.184   2.675  51.448  1.00  0.00     0.037 C 
HETATM    5  C9  UNL     1      20.856   3.367  51.646  1.00  0.00     0.086 C 
HETATM    6  C10 UNL     1      20.105   2.331  52.518  1.00  0.00    -0.024 C 
HETATM    7  C11 UNL     1      20.523   1.214  53.203  1.00  0.00    -0.023 C 
HETATM    8  C12 UNL     1      21.746   0.758  53.822  1.00  0.00     0.043 A 
HETATM    9  C13 UNL     1      22.249  -0.625  53.776  1.00  0.00     0.107 A 
HETATM   10  C15 UNL     1      22.882   0.297  52.899  1.00  0.00     0.063 A 
HETATM   11  C16 UNL     1      22.478   0.334  51.447  1.00  0.00     0.108 C 
HETATM   12  N2  UNL     1      22.336   1.428  50.665  1.00  0.00    -0.268 NA
ENDROOT
BRANCH   1  13
HETATM   13  O1  UNL     1      25.356   0.787  53.612  1.00  0.00    -0.349 OA
BRANCH  13  14
HETATM   14  C2  UNL     1      26.387   0.360  52.757  1.00  0.00     0.126 C 
HETATM   15  C1  UNL     1      26.326  -1.174  52.745  1.00  0.00     0.040 C 
BRANCH  14  16
HETATM   16  C3  UNL     1      27.745   0.814  53.177  1.00  0.00     0.063 C 
BRANCH  16  17
HETATM   17  C4  UNL     1      28.150   0.275  54.528  1.00  0.00     0.224 C 
HETATM   18  F1  UNL     1      29.214  -0.571  54.505  1.00  0.00    -0.255 F 
ENDBRANCH  16  17
ENDBRANCH  14  16
ENDBRANCH  13  14
ENDBRANCH   1  13
BRANCH   9  19
HETATM   19  C14 UNL     1      22.958  -1.212  54.911  1.00  0.00     0.221 C 
HETATM   20  N1  UNL     1      23.638  -1.777  55.999  1.00  0.00    -0.370 N 
HETATM   21  H17 UNL     1      24.166  -2.650  55.729  1.00  0.00     0.159 HD
HETATM   22  H18 UNL     1      23.533  -1.271  56.907  1.00  0.00     0.159 HD
HETATM   23  O2  UNL     1      21.741  -1.592  55.023  1.00  0.00    -0.273 OA
ENDBRANCH   9  19
TORSDOF 5
ENDMDL
MODEL 5
REMARK VINA RESULT:      -6.9      1.996      3.764
REMARK  5 active torsions:
REMARK  status: ('A' for Active; 'I' for Inactive)
REMARK    1  A    between atoms: C2_2  and  C3_3 
REMARK    2  A    between atoms: C2_2  and  O1_6 
REMARK    3  A    between atoms: C3_3  and  C4_4 
REMARK    4  A    between atoms: O1_6  and  C5_7 
REMARK    5  A    between atoms: C13_15  and  C14_16 
REMARK       I    between atoms: C14_16  and  N1_17 
ROOT
HETATM    1  C5  UNL     1      24.711  -0.153  53.267  1.00  0.00     0.062 C 
HETATM    2  C6  UNL     1      25.192  -0.362  54.524  1.00  0.00     0.035 C 
HETATM    3  C7  UNL     1      26.597  -0.259  55.014  1.00  0.00     0.030 C 
HETATM    4  C8  UNL     1      27.576  -0.116  54.135  1.00  0.00     0.037 C 
HETATM    5  C9  UNL     1      28.559   0.920  54.631  1.00  0.00     0.086 C 
HETATM    6  C10 UNL     1      28.263   2.098  53.672  1.00  0.00    -0.024 C 
HETATM    7  C11 UNL     1      27.241   2.342  52.785  1.00  0.00    -0.023 C 
HETATM    8  C12 UNL     1      25.852   1.967  52.654  1.00  0.00     0.043 A 
HETATM    9  C13 UNL     1      25.187   1.628  51.386  1.00  0.00     0.107 A 
HETATM   10  C15 UNL     1      25.541   0.530  52.214  1.00  0.00     0.063 A 
HETATM   11  C16 UNL     1      26.795  -0.251  51.913  1.00  0.00     0.108 C 
HETATM   12  N2  UNL     1      27.679  -0.753  52.804  1.00  0.00    -0.268 NA
ENDROOT
BRANCH   1  13
HETATM   13  O1  UNL     1      23.433  -0.662  53.218  1.00  0.00    -0.349 OA
BRANCH  13  14
HETATM   14  C2  UNL     1      22.476  -0.395  54.213  1.00  0.00     0.126 C 
HETATM   15  C1  UNL     1      21.821  -1.741  54.550  1.00  0.00     0.040 C 
BRANCH  14  16
HETATM   16  C3  UNL     1      21.435   0.590  53.797  1.00  0.00     0.063 C 
BRANCH  16  17
HETATM   17  C4  UNL     1      20.275  -0.054  53.076  1.00  0.00     0.224 C 
HETATM   18  F1  UNL     1      20.385  -0.063  51.721  1.00  0.00    -0.255 F 
ENDBRANCH  16  17
ENDBRANCH  14  16
ENDBRANCH  13  14
ENDBRANCH   1  13
BRANCH   9  19
HETATM   19  C14 UNL     1      23.790   1.985  51.142  1.00  0.00     0.221 C 
HETATM   20  N1  UNL     1      22.450   2.326  50.908  1.00  0.00    -0.370 N 
HETATM   21  H17 UNL     1      22.058   1.840  50.058  1.00  0.00     0.159 HD
HETATM   22  H18 UNL     1      22.032   2.999  51.589  1.00  0.00     0.159 HD
HETATM   23  O2  UNL     1      24.486   2.950  50.671  1.00  0.00    -0.273 OA
ENDBRANCH   9  19
TORSDOF 5
ENDMDL
MODEL 6
REMARK VINA RESULT:      -6.5      2.995      4.796
REMARK  5 active torsions:
REMARK  status: ('A' for Active; 'I' for Inactive)
REMARK    1  A    between atoms: C2_2  and  C3_3 
REMARK    2  A    between atoms: C2_2  and  O1_6 
REMARK    3  A    between atoms: C3_3  and  C4_4 
REMARK    4  A    between atoms: O1_6  and  C5_7 
REMARK    5  A    between atoms: C13_15  and  C14_16 
REMARK       I    between atoms: C14_16  and  N1_17 
ROOT
HETATM    1  C5  UNL     1      23.769   1.368  52.754  1.00  0.00     0.062 C 
HETATM    2  C6  UNL     1      23.099   0.187  52.859  1.00  0.00     0.035 C 
HETATM    3  C7  UNL     1      21.711  -0.139  52.421  1.00  0.00     0.030 C 
HETATM    4  C8  UNL     1      20.913   0.841  52.028  1.00  0.00     0.037 C 
HETATM    5  C9  UNL     1      20.156   0.417  50.791  1.00  0.00     0.086 C 
HETATM    6  C10 UNL     1      20.846   1.281  49.706  1.00  0.00    -0.024 C 
HETATM    7  C11 UNL     1      21.999   2.030  49.707  1.00  0.00    -0.023 C 
HETATM    8  C12 UNL     1      23.261   2.013  50.410  1.00  0.00     0.043 A 
HETATM    9  C13 UNL     1      23.978   3.209  50.883  1.00  0.00     0.107 A 
HETATM   10  C15 UNL     1      23.268   2.478  51.873  1.00  0.00     0.063 A 
HETATM   11  C16 UNL     1      21.910   2.960  52.317  1.00  0.00     0.108 C 
HETATM   12  N2  UNL     1      20.826   2.203  52.601  1.00  0.00    -0.268 NA
ENDROOT
BRANCH   1  13
HETATM   13  O1  UNL     1      24.882   1.289  53.561  1.00  0.00    -0.349 OA
BRANCH  13  14
HETATM   14  C2  UNL     1      25.677   0.133  53.639  1.00  0.00     0.126 C 
HETATM   15  C1  UNL     1      26.360   0.173  55.013  1.00  0.00     0.040 C 
BRANCH  14  16
HETATM   16  C3  UNL     1      26.705   0.035  52.561  1.00  0.00     0.063 C 
BRANCH  16  17
HETATM   17  C4  UNL     1      28.003  -0.568  53.043  1.00  0.00     0.224 C 
HETATM   18  F1  UNL     1      28.083  -1.919  52.913  1.00  0.00    -0.255 F 
ENDBRANCH  16  17
ENDBRANCH  14  16
ENDBRANCH  13  14
ENDBRANCH   1  13
BRANCH   9  19
HETATM   19  C14 UNL     1      25.438   3.270  50.876  1.00  0.00     0.221 C 
HETATM   20  N1  UNL     1      26.839   3.329  50.871  1.00  0.00    -0.370 N 
HETATM   21  H17 UNL     1      27.232   3.531  51.829  1.00  0.00     0.159 HD
HETATM   22  H18 UNL     1      27.292   3.170  49.944  1.00  0.00     0.159 HD
HETATM   23  O2  UNL     1      25.038   4.407  50.445  1.00  0.00    -0.273 OA
ENDBRANCH   9  19
TORSDOF 5
ENDMDL
MODEL 7
REMARK VINA RESULT:      -6.4      3.527      6.389
REMARK  5 active torsions:
REMARK  status: ('A' for Active; 'I' for Inactive)
REMARK    1  A    between atoms: C2_2  and  C3_3 
REMARK    2  A    between atoms: C2_2  and  O1_6 
REMARK    3  A    between atoms: C3_3  and  C4_4 
REMARK    4  A    between atoms: O1_6  and  C5_7 
REMARK    5  A    between atoms: C13_15  and  C14_16 
REMARK       I    between atoms: C14_16  and  N1_17 
ROOT
HETATM    1  C5  UNL     1      25.342   2.460  51.099  1.00  0.00     0.062 C 
HETATM    2  C6  UNL     1      26.438   1.652  51.109  1.00  0.00     0.035 C 
HETATM    3  C7  UNL     1      26.978   0.827  52.228  1.00  0.00     0.030 C 
HETATM    4  C8  UNL     1      26.478   0.985  53.444  1.00  0.00     0.037 C 
HETATM    5  C9  UNL     1      26.278  -0.365  54.092  1.00  0.00     0.086 C 
HETATM    6  C10 UNL     1      24.734  -0.484  54.067  1.00  0.00    -0.024 C 
HETATM    7  C11 UNL     1      23.756   0.232  53.417  1.00  0.00    -0.023 C 
HETATM    8  C12 UNL     1      23.655   1.011  52.205  1.00  0.00     0.043 A 
HETATM    9  C13 UNL     1      22.903   2.270  52.073  1.00  0.00     0.107 A 
HETATM   10  C15 UNL     1      24.312   2.398  52.193  1.00  0.00     0.063 A 
HETATM   11  C16 UNL     1      24.912   2.749  53.531  1.00  0.00     0.108 C 
HETATM   12  N2  UNL     1      26.049   2.254  54.073  1.00  0.00    -0.268 NA
ENDROOT
BRANCH   1  13
HETATM   13  O1  UNL     1      25.414   3.246  49.971  1.00  0.00    -0.349 OA
BRANCH  13  14
HETATM   14  C2  UNL     1      25.815   4.592  50.014  1.00  0.00     0.126 C 
HETATM   15  C1  UNL     1      24.536   5.427  49.864  1.00  0.00     0.040 C 
BRANCH  14  16
HETATM   16  C3  UNL     1      26.794   4.963  48.950  1.00  0.00     0.063 C 
BRANCH  16  17
HETATM   17  C4  UNL     1      26.947   6.457  48.791  1.00  0.00     0.224 C 
HETATM   18  F1  UNL     1      26.731   6.917  47.529  1.00  0.00    -0.255 F 
ENDBRANCH  16  17
ENDBRANCH  14  16
ENDBRANCH  13  14
ENDBRANCH   1  13
BRANCH   9  19
HETATM   19  C14 UNL     1      22.205   2.610  50.834  1.00  0.00     0.221 C 
HETATM   20  N1  UNL     1      21.538   2.937  49.645  1.00  0.00    -0.370 N 
HETATM   21  H17 UNL     1      22.193   3.326  48.915  1.00  0.00     0.159 HD
HETATM   22  H18 UNL     1      20.509   2.758  49.644  1.00  0.00     0.159 HD
HETATM   23  O2  UNL     1      21.997   3.587  51.634  1.00  0.00    -0.273 OA
ENDBRANCH   9  19
TORSDOF 5
ENDMDL
MODEL 8
REMARK VINA RESULT:      -6.2      3.130      5.576
REMARK  5 active torsions:
REMARK  status: ('A' for Active; 'I' for Inactive)
REMARK    1  A    between atoms: C2_2  and  C3_3 
REMARK    2  A    between atoms: C2_2  and  O1_6 
REMARK    3  A    between atoms: C3_3  and  C4_4 
REMARK    4  A    between atoms: O1_6  and  C5_7 
REMARK    5  A    between atoms: C13_15  and  C14_16 
REMARK       I    between atoms: C14_16  and  N1_17 
ROOT
HETATM    1  C5  UNL     1      22.609   3.159  51.283  1.00  0.00     0.062 C 
HETATM    2  C6  UNL     1      21.488   3.505  51.973  1.00  0.00     0.035 C 
HETATM    3  C7  UNL     1      20.502   2.618  52.656  1.00  0.00     0.030 C 
HETATM    4  C8  UNL     1      20.571   1.310  52.463  1.00  0.00     0.037 C 
HETATM    5  C9  UNL     1      20.373   0.590  53.777  1.00  0.00     0.086 C 
HETATM    6  C10 UNL     1      21.806   0.072  54.053  1.00  0.00    -0.024 C 
HETATM    7  C11 UNL     1      23.026   0.363  53.489  1.00  0.00    -0.023 C 
HETATM    8  C12 UNL     1      23.628   1.488  52.813  1.00  0.00     0.043 A 
HETATM    9  C13 UNL     1      24.526   1.390  51.650  1.00  0.00     0.107 A 
HETATM   10  C15 UNL     1      23.187   1.773  51.371  1.00  0.00     0.063 A 
HETATM   11  C16 UNL     1      22.212   0.740  50.866  1.00  0.00     0.108 C 
HETATM   12  N2  UNL     1      20.908   0.612  51.202  1.00  0.00    -0.268 NA
ENDROOT
BRANCH   1  13
HETATM   13  O1  UNL     1      23.023   4.266  50.577  1.00  0.00    -0.349 OA
BRANCH  13  14
HETATM   14  C2  UNL     1      23.483   4.186  49.251  1.00  0.00     0.126 C 
HETATM   15  C1  UNL     1      24.555   5.274  49.102  1.00  0.00     0.040 C 
BRANCH  14  16
HETATM   16  C3  UNL     1      22.412   4.381  48.230  1.00  0.00     0.063 C 
BRANCH  16  17
HETATM   17  C4  UNL     1      22.143   3.136  47.419  1.00  0.00     0.224 C 
HETATM   18  F1  UNL     1      22.864   2.047  47.797  1.00  0.00    -0.255 F 
ENDBRANCH  16  17
ENDBRANCH  14  16
ENDBRANCH  13  14
ENDBRANCH   1  13
BRANCH   9  19
HETATM   19  C14 UNL     1      25.641   2.319  51.472  1.00  0.00     0.221 C 
HETATM   20  N1  UNL     1      26.710   3.210  51.300  1.00  0.00    -0.370 N 
HETATM   21  H17 UNL     1      26.860   3.461  50.286  1.00  0.00     0.159 HD
HETATM   22  H18 UNL     1      27.201   3.497  52.176  1.00  0.00     0.159 HD
HETATM   23  O2  UNL     1      26.167   1.160  51.600  1.00  0.00    -0.273 OA
ENDBRANCH   9  19
TORSDOF 5
ENDMDL
MODEL 9
REMARK VINA RESULT:      -6.2      3.546      5.972
REMARK  5 active torsions:
REMARK  status: ('A' for Active; 'I' for Inactive)
REMARK    1  A    between atoms: C2_2  and  C3_3 
REMARK    2  A    between atoms: C2_2  and  O1_6 
REMARK    3  A    between atoms: C3_3  and  C4_4 
REMARK    4  A    between atoms: O1_6  and  C5_7 
REMARK    5  A    between atoms: C13_15  and  C14_16 
REMARK       I    between atoms: C14_16  and  N1_17 
ROOT
HETATM    1  C5  UNL     1      24.296   4.611  51.176  1.00  0.00     0.062 C 
HETATM    2  C6  UNL     1      23.880   4.233  52.416  1.00  0.00     0.035 C 
HETATM    3  C7  UNL     1      23.717   2.855  52.965  1.00  0.00     0.030 C 
HETATM    4  C8  UNL     1      23.807   1.820  52.145  1.00  0.00     0.037 C 
HETATM    5  C9  UNL     1      24.622   0.725  52.794  1.00  0.00     0.086 C 
HETATM    6  C10 UNL     1      25.930   0.796  51.968  1.00  0.00    -0.024 C 
HETATM    7  C11 UNL     1      26.421   1.724  51.079  1.00  0.00    -0.023 C 
HETATM    8  C12 UNL     1      26.275   3.144  50.856  1.00  0.00     0.043 A 
HETATM    9  C13 UNL     1      26.182   3.784  49.534  1.00  0.00     0.107 A 
HETATM   10  C15 UNL     1      24.958   3.637  50.241  1.00  0.00     0.063 A 
HETATM   11  C16 UNL     1      24.036   2.495  49.895  1.00  0.00     0.108 C 
HETATM   12  N2  UNL     1      23.312   1.741  50.753  1.00  0.00    -0.268 NA
ENDROOT
BRANCH   1  13
HETATM   13  O1  UNL     1      23.993   5.945  51.023  1.00  0.00    -0.349 OA
BRANCH  13  14
HETATM   14  C2  UNL     1      23.355   6.446  49.875  1.00  0.00     0.126 C 
HETATM   15  C1  UNL     1      23.045   7.921  50.167  1.00  0.00     0.040 C 
BRANCH  14  16
HETATM   16  C3  UNL     1      22.101   5.721  49.518  1.00  0.00     0.063 C 
BRANCH  16  17
HETATM   17  C4  UNL     1      20.964   6.017  50.468  1.00  0.00     0.224 C 
HETATM   18  F1  UNL     1      20.804   5.103  51.462  1.00  0.00    -0.255 F 
ENDBRANCH  16  17
ENDBRANCH  14  16
ENDBRANCH  13  14
ENDBRANCH   1  13
BRANCH   9  19
HETATM   19  C14 UNL     1      26.768   5.099  49.284  1.00  0.00     0.221 C 
HETATM   20  N1  UNL     1      27.330   6.361  49.044  1.00  0.00    -0.370 N 
HETATM   21  H17 UNL     1      26.931   6.817  48.180  1.00  0.00     0.159 HD
HETATM   22  H18 UNL     1      28.051   6.671  49.733  1.00  0.00     0.159 HD
HETATM   23  O2  UNL     1      27.613   4.248  48.839  1.00  0.00    -0.273 OA
ENDBRANCH   9  19
TORSDOF 5
ENDMDL
