MODEL 1
REMARK VINA RESULT:      -7.5      0.000      0.000
REMARK  4 active torsions:
REMARK  status: ('A' for Active; 'I' for Inactive)
REMARK    1  A    between atoms: N3_13  and  C9_14 
REMARK    2  A    between atoms: C9_14  and  C10_15 
REMARK    3  A    between atoms: C10_15  and  C11_16 
REMARK    4  A    between atoms: C11_16  and  N4_17 
ROOT
HETATM    1  O1  UNL     1      22.836  -1.797  55.490  1.00  0.00    -0.271 OA
HETATM    2  C1  UNL     1      22.241  -1.151  54.547  1.00  0.00     0.248 C 
HETATM    3  C2  UNL     1      20.815  -1.403  54.243  1.00  0.00     0.279 C 
HETATM    4  O2  UNL     1      20.139  -0.445  53.474  1.00  0.00    -0.340 OA
HETATM    5  C3  UNL     1      20.801   0.516  52.777  1.00  0.00     0.100 C 
HETATM    6  C4  UNL     1      20.421   1.499  51.885  1.00  0.00     0.066 C 
HETATM    7  C5  UNL     1      21.499   2.342  51.383  1.00  0.00     0.044 C 
HETATM    8  N1  UNL     1      21.934   3.570  51.452  1.00  0.00    -0.246 NA
HETATM    9  C6  UNL     1      23.325   3.625  52.167  1.00  0.00     0.233 C 
HETATM   10  N2  UNL     1      23.908   2.419  52.616  1.00  0.00    -0.244 NA
HETATM   11  C7  UNL     1      22.985   1.361  52.315  1.00  0.00     0.071 C 
HETATM   12  C8  UNL     1      22.292   0.517  53.073  1.00  0.00     0.096 C 
HETATM   13  N3  UNL     1      23.141  -0.215  53.898  1.00  0.00    -0.312 N 
HETATM   14  C17 UNL     1      22.641   1.502  50.758  1.00  0.00     0.121 C 
ENDROOT
BRANCH  13  15
HETATM   15  C9  UNL     1      24.530   0.124  53.973  1.00  0.00     0.134 C 
BRANCH  15  16
HETATM   16  C10 UNL     1      25.384  -1.008  53.378  1.00  0.00     0.040 C 
BRANCH  16  17
HETATM   17  C11 UNL     1      26.222  -0.387  52.294  1.00  0.00     0.118 C 
BRANCH  17  18
HETATM   18  N4  UNL     1      27.410   0.244  52.686  1.00  0.00    -0.412 N 
HETATM   19  C12 UNL     1      28.196  -0.401  53.675  1.00  0.00     0.117 C 
HETATM   20  C13 UNL     1      29.542   0.297  53.714  1.00  0.00     0.019 C 
HETATM   21  C14 UNL     1      29.339   1.699  54.241  1.00  0.00     0.003 C 
HETATM   22  C15 UNL     1      28.062   2.333  53.799  1.00  0.00     0.019 C 
HETATM   23  C16 UNL     1      27.541   1.641  52.546  1.00  0.00     0.117 C 
ENDBRANCH  17  18
ENDBRANCH  16  17
ENDBRANCH  15  16
ENDBRANCH  13  15
TORSDOF 4
ENDMDL
MODEL 2
REMARK VINA RESULT:      -7.3      1.355      2.009
REMARK  4 active torsions:
REMARK  status: ('A' for Active; 'I' for Inactive)
REMARK    1  A    between atoms: N3_13  and  C9_14 
REMARK    2  A    between atoms: C9_14  and  C10_15 
REMARK    3  A    between atoms: C10_15  and  C11_16 
REMARK    4  A    between atoms: C11_16  and  N4_17 
ROOT
HETATM    1  O1  UNL     1      24.015  -0.875  54.964  1.00  0.00    -0.271 OA
HETATM    2  C1  UNL     1      22.896  -0.811  54.329  1.00  0.00     0.248 C 
HETATM    3  C2  UNL     1      21.855  -1.844  54.528  1.00  0.00     0.279 C 
HETATM    4  O2  UNL     1      20.554  -1.542  54.102  1.00  0.00    -0.340 OA
HETATM    5  C3  UNL     1      20.292  -0.495  53.277  1.00  0.00     0.100 C 
HETATM    6  C4  UNL     1      19.164  -0.029  52.633  1.00  0.00     0.066 C 
HETATM    7  C5  UNL     1      19.347   1.178  51.838  1.00  0.00     0.044 C 
HETATM    8  N1  UNL     1      19.008   2.438  51.822  1.00  0.00    -0.246 NA
HETATM    9  C6  UNL     1      20.264   3.352  52.008  1.00  0.00     0.233 C 
HETATM   10  N2  UNL     1      21.532   2.746  52.153  1.00  0.00    -0.244 NA
HETATM   11  C7  UNL     1      21.330   1.324  52.130  1.00  0.00     0.071 C 
HETATM   12  C8  UNL     1      21.521   0.366  53.031  1.00  0.00     0.096 C 
HETATM   13  N3  UNL     1      22.845   0.353  53.463  1.00  0.00    -0.312 N 
HETATM   14  C17 UNL     1      20.490   1.016  50.804  1.00  0.00     0.121 C 
ENDROOT
BRANCH  13  15
HETATM   15  C9  UNL     1      23.735   1.402  53.067  1.00  0.00     0.134 C 
BRANCH  15  16
HETATM   16  C10 UNL     1      24.910   0.824  52.260  1.00  0.00     0.040 C 
BRANCH  16  17
HETATM   17  C11 UNL     1      26.105   1.684  52.570  1.00  0.00     0.118 C 
BRANCH  17  18
HETATM   18  N4  UNL     1      27.154   1.089  53.281  1.00  0.00    -0.412 N 
HETATM   19  C12 UNL     1      28.414   1.739  53.255  1.00  0.00     0.117 C 
HETATM   20  C13 UNL     1      29.285   1.090  54.311  1.00  0.00     0.019 C 
HETATM   21  C14 UNL     1      29.579  -0.330  53.884  1.00  0.00     0.003 C 
HETATM   22  C15 UNL     1      28.442  -1.000  53.186  1.00  0.00     0.019 C 
HETATM   23  C16 UNL     1      27.133  -0.300  53.530  1.00  0.00     0.117 C 
ENDBRANCH  17  18
ENDBRANCH  16  17
ENDBRANCH  15  16
ENDBRANCH  13  15
TORSDOF 4
ENDMDL
MODEL 3
REMARK VINA RESULT:      -7.1      2.963      5.149
REMARK  4 active torsions:
REMARK  status: ('A' for Active; 'I' for Inactive)
REMARK    1  A    between atoms: N3_13  and  C9_14 
REMARK    2  A    between atoms: C9_14  and  C10_15 
REMARK    3  A    between atoms: C10_15  and  C11_16 
REMARK    4  A    between atoms: C11_16  and  N4_17 
ROOT
HETATM    1  O1  UNL     1      26.853   2.350  53.310  1.00  0.00    -0.271 OA
HETATM    2  C1  UNL     1      26.187   1.313  53.687  1.00  0.00     0.248 C 
HETATM    3  C2  UNL     1      26.827   0.261  54.507  1.00  0.00     0.279 C 
HETATM    4  O2  UNL     1      25.986  -0.640  55.175  1.00  0.00    -0.340 OA
HETATM    5  C3  UNL     1      24.668  -0.758  54.865  1.00  0.00     0.100 C 
HETATM    6  C4  UNL     1      23.651  -1.599  55.270  1.00  0.00     0.066 C 
HETATM    7  C5  UNL     1      22.348  -1.343  54.670  1.00  0.00     0.044 C 
HETATM    8  N1  UNL     1      21.157  -0.915  54.988  1.00  0.00    -0.246 NA
HETATM    9  C6  UNL     1      20.844   0.438  54.268  1.00  0.00     0.233 C 
HETATM   10  N2  UNL     1      21.820   0.995  53.411  1.00  0.00    -0.244 NA
HETATM   11  C7  UNL     1      22.964   0.128  53.448  1.00  0.00     0.071 C 
HETATM   12  C8  UNL     1      24.215   0.294  53.866  1.00  0.00     0.096 C 
HETATM   13  N3  UNL     1      24.818   1.361  53.205  1.00  0.00    -0.312 N 
HETATM   14  C17 UNL     1      22.420  -1.340  53.121  1.00  0.00     0.121 C 
ENDROOT
BRANCH  13  15
HETATM   15  C9  UNL     1      24.036   2.210  52.359  1.00  0.00     0.134 C 
BRANCH  15  16
HETATM   16  C10 UNL     1      24.508   2.086  50.901  1.00  0.00     0.040 C 
BRANCH  16  17
HETATM   17  C11 UNL     1      24.094   3.356  50.208  1.00  0.00     0.118 C 
BRANCH  17  18
HETATM   18  N4  UNL     1      25.095   4.301  49.953  1.00  0.00    -0.412 N 
HETATM   19  C12 UNL     1      24.768   5.386  49.101  1.00  0.00     0.117 C 
HETATM   20  C13 UNL     1      25.883   6.407  49.214  1.00  0.00     0.019 C 
HETATM   21  C14 UNL     1      27.138   5.815  48.615  1.00  0.00     0.003 C 
HETATM   22  C15 UNL     1      27.294   4.351  48.860  1.00  0.00     0.019 C 
HETATM   23  C16 UNL     1      26.452   3.930  50.059  1.00  0.00     0.117 C 
ENDBRANCH  17  18
ENDBRANCH  16  17
ENDBRANCH  15  16
ENDBRANCH  13  15
TORSDOF 4
ENDMDL
MODEL 4
REMARK VINA RESULT:      -7.1      2.140      3.757
REMARK  4 active torsions:
REMARK  status: ('A' for Active; 'I' for Inactive)
REMARK    1  A    between atoms: N3_13  and  C9_14 
REMARK    2  A    between atoms: C9_14  and  C10_15 
REMARK    3  A    between atoms: C10_15  and  C11_16 
REMARK    4  A    between atoms: C11_16  and  N4_17 
ROOT
HETATM    1  O1  UNL     1      22.675   2.098  48.937  1.00  0.00    -0.271 OA
HETATM    2  C1  UNL     1      21.788   1.687  49.777  1.00  0.00     0.248 C 
HETATM    3  C2  UNL     1      20.352   1.686  49.419  1.00  0.00     0.279 C 
HETATM    4  O2  UNL     1      19.489   0.913  50.208  1.00  0.00    -0.340 OA
HETATM    5  C3  UNL     1      19.865   0.424  51.418  1.00  0.00     0.100 C 
HETATM    6  C4  UNL     1      19.220  -0.262  52.428  1.00  0.00     0.066 C 
HETATM    7  C5  UNL     1      20.045  -0.611  53.577  1.00  0.00     0.044 C 
HETATM    8  N1  UNL     1      20.560  -1.654  54.169  1.00  0.00    -0.246 NA
HETATM    9  C6  UNL     1      22.123  -1.619  54.090  1.00  0.00     0.233 C 
HETATM   10  N2  UNL     1      22.748  -0.534  53.437  1.00  0.00    -0.244 NA
HETATM   11  C7  UNL     1      21.707   0.318  52.934  1.00  0.00     0.071 C 
HETATM   12  C8  UNL     1      21.337   0.671  51.707  1.00  0.00     0.096 C 
HETATM   13  N3  UNL     1      22.398   1.260  51.023  1.00  0.00    -0.312 N 
HETATM   14  C17 UNL     1      20.750   0.632  54.177  1.00  0.00     0.121 C 
ENDROOT
BRANCH  13  15
HETATM   15  C9  UNL     1      23.709   1.250  51.596  1.00  0.00     0.134 C 
BRANCH  15  16
HETATM   16  C10 UNL     1      24.124   2.676  51.996  1.00  0.00     0.040 C 
BRANCH  16  17
HETATM   17  C11 UNL     1      24.876   2.555  53.293  1.00  0.00     0.118 C 
BRANCH  17  18
HETATM   18  N4  UNL     1      26.055   1.798  53.281  1.00  0.00    -0.412 N 
HETATM   19  C12 UNL     1      26.258   0.887  54.348  1.00  0.00     0.117 C 
HETATM   20  C13 UNL     1      27.421  -0.008  53.969  1.00  0.00     0.019 C 
HETATM   21  C14 UNL     1      28.679   0.829  53.936  1.00  0.00     0.003 C 
HETATM   22  C15 UNL     1      28.470   2.217  53.428  1.00  0.00     0.019 C 
HETATM   23  C16 UNL     1      27.191   2.283  52.601  1.00  0.00     0.117 C 
ENDBRANCH  17  18
ENDBRANCH  16  17
ENDBRANCH  15  16
ENDBRANCH  13  15
TORSDOF 4
ENDMDL
MODEL 5
REMARK VINA RESULT:      -7.0      2.173      4.921
REMARK  4 active torsions:
REMARK  status: ('A' for Active; 'I' for Inactive)
REMARK    1  A    between atoms: N3_13  and  C9_14 
REMARK    2  A    between atoms: C9_14  and  C10_15 
REMARK    3  A    between atoms: C10_15  and  C11_16 
REMARK    4  A    between atoms: C11_16  and  N4_17 
ROOT
HETATM    1  O1  UNL     1      20.561  -0.112  52.577  1.00  0.00    -0.271 OA
HETATM    2  C1  UNL     1      21.574  -0.231  53.364  1.00  0.00     0.248 C 
HETATM    3  C2  UNL     1      21.419  -0.828  54.709  1.00  0.00     0.279 C 
HETATM    4  O2  UNL     1      22.582  -1.254  55.366  1.00  0.00    -0.340 OA
HETATM    5  C3  UNL     1      23.820  -0.878  54.951  1.00  0.00     0.100 C 
HETATM    6  C4  UNL     1      25.099  -1.054  55.441  1.00  0.00     0.066 C 
HETATM    7  C5  UNL     1      26.166  -0.476  54.634  1.00  0.00     0.044 C 
HETATM    8  N1  UNL     1      27.171  -0.835  53.883  1.00  0.00    -0.246 NA
HETATM    9  C6  UNL     1      26.929  -0.413  52.396  1.00  0.00     0.233 C 
HETATM   10  N2  UNL     1      25.735   0.267  52.066  1.00  0.00    -0.244 NA
HETATM   11  C7  UNL     1      24.960   0.376  53.271  1.00  0.00     0.071 C 
HETATM   12  C8  UNL     1      23.781  -0.113  53.638  1.00  0.00     0.096 C 
HETATM   13  N3  UNL     1      22.785   0.279  52.747  1.00  0.00    -0.312 N 
HETATM   14  C17 UNL     1      25.928   1.032  54.363  1.00  0.00     0.121 C 
ENDROOT
BRANCH  13  15
HETATM   15  C9  UNL     1      23.138   0.950  51.533  1.00  0.00     0.134 C 
BRANCH  15  16
HETATM   16  C10 UNL     1      22.826   2.451  51.647  1.00  0.00     0.040 C 
BRANCH  16  17
HETATM   17  C11 UNL     1      23.015   3.033  50.272  1.00  0.00     0.118 C 
BRANCH  17  18
HETATM   18  N4  UNL     1      24.102   3.896  50.087  1.00  0.00    -0.412 N 
HETATM   19  C12 UNL     1      24.048   4.787  48.985  1.00  0.00     0.117 C 
HETATM   20  C13 UNL     1      25.163   5.799  49.162  1.00  0.00     0.019 C 
HETATM   21  C14 UNL     1      26.487   5.085  49.013  1.00  0.00     0.003 C 
HETATM   22  C15 UNL     1      26.494   3.701  49.571  1.00  0.00     0.019 C 
HETATM   23  C16 UNL     1      25.371   3.542  50.589  1.00  0.00     0.117 C 
ENDBRANCH  17  18
ENDBRANCH  16  17
ENDBRANCH  15  16
ENDBRANCH  13  15
TORSDOF 4
ENDMDL
MODEL 6
REMARK VINA RESULT:      -6.8      2.632      7.031
REMARK  4 active torsions:
REMARK  status: ('A' for Active; 'I' for Inactive)
REMARK    1  A    between atoms: N3_13  and  C9_14 
REMARK    2  A    between atoms: C9_14  and  C10_15 
REMARK    3  A    between atoms: C10_15  and  C11_16 
REMARK    4  A    between atoms: C11_16  and  N4_17 
ROOT
HETATM    1  O1  UNL     1      22.335   2.313  50.909  1.00  0.00    -0.271 OA
HETATM    2  C1  UNL     1      23.566   2.055  51.191  1.00  0.00     0.248 C 
HETATM    3  C2  UNL     1      24.658   2.879  50.627  1.00  0.00     0.279 C 
HETATM    4  O2  UNL     1      25.918   2.786  51.234  1.00  0.00    -0.340 OA
HETATM    5  C3  UNL     1      26.229   1.782  52.096  1.00  0.00     0.100 C 
HETATM    6  C4  UNL     1      27.380   1.389  52.748  1.00  0.00     0.066 C 
HETATM    7  C5  UNL     1      27.244   0.228  53.618  1.00  0.00     0.044 C 
HETATM    8  N1  UNL     1      27.269  -0.095  54.882  1.00  0.00    -0.246 NA
HETATM    9  C6  UNL     1      25.865  -0.600  55.352  1.00  0.00     0.233 C 
HETATM   10  N2  UNL     1      24.810  -0.650  54.414  1.00  0.00    -0.244 NA
HETATM   11  C7  UNL     1      25.322  -0.147  53.169  1.00  0.00     0.071 C 
HETATM   12  C8  UNL     1      25.025   0.916  52.430  1.00  0.00     0.096 C 
HETATM   13  N3  UNL     1      23.677   0.914  52.082  1.00  0.00    -0.312 N 
HETATM   14  C17 UNL     1      26.648  -0.988  52.863  1.00  0.00     0.121 C 
ENDROOT
BRANCH  13  15
HETATM   15  C9  UNL     1      22.791  -0.047  52.666  1.00  0.00     0.134 C 
BRANCH  15  16
HETATM   16  C10 UNL     1      21.679   0.666  53.453  1.00  0.00     0.040 C 
BRANCH  16  17
HETATM   17  C11 UNL     1      20.644  -0.378  53.772  1.00  0.00     0.118 C 
BRANCH  17  18
HETATM   18  N4  UNL     1      19.381  -0.226  53.185  1.00  0.00    -0.412 N 
HETATM   19  C12 UNL     1      18.492  -1.329  53.254  1.00  0.00     0.117 C 
HETATM   20  C13 UNL     1      17.122  -0.837  52.830  1.00  0.00     0.019 C 
HETATM   21  C14 UNL     1      17.175  -0.479  51.362  1.00  0.00     0.003 C 
HETATM   22  C15 UNL     1      18.469   0.128  50.933  1.00  0.00     0.019 C 
HETATM   23  C16 UNL     1      19.202   0.703  52.139  1.00  0.00     0.117 C 
ENDBRANCH  17  18
ENDBRANCH  16  17
ENDBRANCH  15  16
ENDBRANCH  13  15
TORSDOF 4
ENDMDL
MODEL 7
REMARK VINA RESULT:      -6.7      3.934      5.557
REMARK  4 active torsions:
REMARK  status: ('A' for Active; 'I' for Inactive)
REMARK    1  A    between atoms: N3_13  and  C9_14 
REMARK    2  A    between atoms: C9_14  and  C10_15 
REMARK    3  A    between atoms: C10_15  and  C11_16 
REMARK    4  A    between atoms: C11_16  and  N4_17 
ROOT
HETATM    1  O1  UNL     1      27.367   4.724  48.551  1.00  0.00    -0.271 OA
HETATM    2  C1  UNL     1      26.402   5.299  49.182  1.00  0.00     0.248 C 
HETATM    3  C2  UNL     1      26.216   6.765  49.103  1.00  0.00     0.279 C 
HETATM    4  O2  UNL     1      24.975   7.282  49.502  1.00  0.00    -0.340 OA
HETATM    5  C3  UNL     1      24.082   6.542  50.211  1.00  0.00     0.100 C 
HETATM    6  C4  UNL     1      22.865   6.805  50.807  1.00  0.00     0.066 C 
HETATM    7  C5  UNL     1      22.230   5.671  51.466  1.00  0.00     0.044 C 
HETATM    8  N1  UNL     1      21.197   4.885  51.347  1.00  0.00    -0.246 NA
HETATM    9  C6  UNL     1      21.650   3.415  51.056  1.00  0.00     0.233 C 
HETATM   10  N2  UNL     1      23.031   3.133  50.970  1.00  0.00    -0.244 NA
HETATM   11  C7  UNL     1      23.732   4.375  51.147  1.00  0.00     0.071 C 
HETATM   12  C8  UNL     1      24.519   5.093  50.354  1.00  0.00     0.096 C 
HETATM   13  N3  UNL     1      25.603   4.336  49.918  1.00  0.00    -0.312 N 
HETATM   14  C17 UNL     1      23.172   5.010  52.504  1.00  0.00     0.121 C 
ENDROOT
BRANCH  13  15
HETATM   15  C9  UNL     1      25.648   2.931  50.192  1.00  0.00     0.134 C 
BRANCH  15  16
HETATM   16  C10 UNL     1      26.823   2.612  51.132  1.00  0.00     0.040 C 
BRANCH  16  17
HETATM   17  C11 UNL     1      26.240   1.885  52.313  1.00  0.00     0.118 C 
BRANCH  17  18
HETATM   18  N4  UNL     1      27.126   1.157  53.117  1.00  0.00    -0.412 N 
HETATM   19  C12 UNL     1      28.419   1.702  53.323  1.00  0.00     0.117 C 
HETATM   20  C13 UNL     1      29.074   0.911  54.438  1.00  0.00     0.019 C 
HETATM   21  C14 UNL     1      29.326  -0.495  53.944  1.00  0.00     0.003 C 
HETATM   22  C15 UNL     1      28.262  -1.019  53.039  1.00  0.00     0.019 C 
HETATM   23  C16 UNL     1      26.969  -0.239  53.246  1.00  0.00     0.117 C 
ENDBRANCH  17  18
ENDBRANCH  16  17
ENDBRANCH  15  16
ENDBRANCH  13  15
TORSDOF 4
ENDMDL
MODEL 8
REMARK VINA RESULT:      -6.6      2.573      5.877
REMARK  4 active torsions:
REMARK  status: ('A' for Active; 'I' for Inactive)
REMARK    1  A    between atoms: N3_13  and  C9_14 
REMARK    2  A    between atoms: C9_14  and  C10_15 
REMARK    3  A    between atoms: C10_15  and  C11_16 
REMARK    4  A    between atoms: C11_16  and  N4_17 
ROOT
HETATM    1  O1  UNL     1      27.040   1.882  52.309  1.00  0.00    -0.271 OA
HETATM    2  C1  UNL     1      26.378   0.987  52.958  1.00  0.00     0.248 C 
HETATM    3  C2  UNL     1      27.057   0.102  53.931  1.00  0.00     0.279 C 
HETATM    4  O2  UNL     1      26.253  -0.588  54.848  1.00  0.00    -0.340 OA
HETATM    5  C3  UNL     1      24.908  -0.698  54.685  1.00  0.00     0.100 C 
HETATM    6  C4  UNL     1      23.906  -1.377  55.349  1.00  0.00     0.066 C 
HETATM    7  C5  UNL     1      22.561  -1.186  54.820  1.00  0.00     0.044 C 
HETATM    8  N1  UNL     1      21.421  -0.637  55.138  1.00  0.00    -0.246 NA
HETATM    9  C6  UNL     1      21.088   0.546  54.169  1.00  0.00     0.233 C 
HETATM   10  N2  UNL     1      21.996   0.853  53.132  1.00  0.00    -0.244 NA
HETATM   11  C7  UNL     1      23.109  -0.046  53.259  1.00  0.00     0.071 C 
HETATM   12  C8  UNL     1      24.398   0.138  53.523  1.00  0.00     0.096 C 
HETATM   13  N3  UNL     1      24.972   1.004  52.596  1.00  0.00    -0.312 N 
HETATM   14  C17 UNL     1      22.486  -1.519  53.308  1.00  0.00     0.121 C 
ENDROOT
BRANCH  13  15
HETATM   15  C9  UNL     1      24.142   1.694  51.655  1.00  0.00     0.134 C 
BRANCH  15  16
HETATM   16  C10 UNL     1      24.334   3.213  51.794  1.00  0.00     0.040 C 
BRANCH  16  17
HETATM   17  C11 UNL     1      22.956   3.811  51.888  1.00  0.00     0.118 C 
BRANCH  17  18
HETATM   18  N4  UNL     1      22.831   5.177  51.608  1.00  0.00    -0.412 N 
HETATM   19  C12 UNL     1      21.719   5.585  50.829  1.00  0.00     0.117 C 
HETATM   20  C13 UNL     1      21.634   7.096  50.911  1.00  0.00     0.019 C 
HETATM   21  C14 UNL     1      22.834   7.683  50.203  1.00  0.00     0.003 C 
HETATM   22  C15 UNL     1      24.086   6.889  50.373  1.00  0.00     0.019 C 
HETATM   23  C16 UNL     1      23.977   6.000  51.606  1.00  0.00     0.117 C 
ENDBRANCH  17  18
ENDBRANCH  16  17
ENDBRANCH  15  16
ENDBRANCH  13  15
TORSDOF 4
ENDMDL
MODEL 9
REMARK VINA RESULT:      -6.4      3.168      4.327
REMARK  4 active torsions:
REMARK  status: ('A' for Active; 'I' for Inactive)
REMARK    1  A    between atoms: N3_13  and  C9_14 
REMARK    2  A    between atoms: C9_14  and  C10_15 
REMARK    3  A    between atoms: C10_15  and  C11_16 
REMARK    4  A    between atoms: C11_16  and  N4_17 
ROOT
HETATM    1  O1  UNL     1      27.036   3.232  50.601  1.00  0.00    -0.271 OA
HETATM    2  C1  UNL     1      25.822   3.535  50.291  1.00  0.00     0.248 C 
HETATM    3  C2  UNL     1      25.537   4.637  49.345  1.00  0.00     0.279 C 
HETATM    4  O2  UNL     1      24.256   4.688  48.778  1.00  0.00    -0.340 OA
HETATM    5  C3  UNL     1      23.220   3.964  49.277  1.00  0.00     0.100 C 
HETATM    6  C4  UNL     1      21.869   3.889  48.999  1.00  0.00     0.066 C 
HETATM    7  C5  UNL     1      21.116   2.930  49.796  1.00  0.00     0.044 C 
HETATM    8  N1  UNL     1      20.478   1.799  49.676  1.00  0.00    -0.246 NA
HETATM    9  C6  UNL     1      21.197   0.668  50.484  1.00  0.00     0.233 C 
HETATM   10  N2  UNL     1      22.369   0.987  51.205  1.00  0.00    -0.244 NA
HETATM   11  C7  UNL     1      22.653   2.375  50.966  1.00  0.00     0.071 C 
HETATM   12  C8  UNL     1      23.661   3.006  50.371  1.00  0.00     0.096 C 
HETATM   13  N3  UNL     1      24.872   2.676  50.973  1.00  0.00    -0.312 N 
HETATM   14  C17 UNL     1      21.309   3.169  51.315  1.00  0.00     0.121 C 
ENDROOT
BRANCH  13  15
HETATM   15  C9  UNL     1      24.920   1.637  51.957  1.00  0.00     0.134 C 
BRANCH  15  16
HETATM   16  C10 UNL     1      25.323   2.219  53.323  1.00  0.00     0.040 C 
BRANCH  16  17
HETATM   17  C11 UNL     1      25.908   1.082  54.116  1.00  0.00     0.118 C 
BRANCH  17  18
HETATM   18  N4  UNL     1      27.131   0.560  53.678  1.00  0.00    -0.412 N 
HETATM   19  C12 UNL     1      27.363  -0.823  53.888  1.00  0.00     0.117 C 
HETATM   20  C13 UNL     1      28.589  -1.207  53.082  1.00  0.00     0.019 C 
HETATM   21  C14 UNL     1      29.793  -0.521  53.685  1.00  0.00     0.003 C 
HETATM   22  C15 UNL     1      29.511   0.848  54.209  1.00  0.00     0.019 C 
HETATM   23  C16 UNL     1      28.252   1.407  53.557  1.00  0.00     0.117 C 
ENDBRANCH  17  18
ENDBRANCH  16  17
ENDBRANCH  15  16
ENDBRANCH  13  15
TORSDOF 4
ENDMDL
