MODEL 1
REMARK VINA RESULT:      -7.6      0.000      0.000
REMARK  10 active torsions:
REMARK  status: ('A' for Active; 'I' for Inactive)
REMARK    1  A    between atoms: C2_2  and  C3_3 
REMARK    2  A    between atoms: C3_3  and  C4_4 
REMARK    3  A    between atoms: C4_4  and  C5_5 
REMARK    4  A    between atoms: C6_7  and  C7_8 
REMARK       I    between atoms: C7_8  and  N2_10 
REMARK    5  A    between atoms: N2_10  and  C8_11 
REMARK    6  A    between atoms: C12_15  and  O2_16 
REMARK    7  A    between atoms: C17_21  and  C18_22 
REMARK    8  A    between atoms: C18_22  and  C19_23 
REMARK    9  A    between atoms: C19_23  and  C20_24 
REMARK   10  A    between atoms: C20_24  and  O4_26 
ROOT
HETATM    1  C5  UNL     1      24.468   0.760  52.111  1.00  0.00     0.111 A 
HETATM    2  N1  UNL     1      24.473   2.043  51.438  1.00  0.00    -0.377 N 
HETATM    3  C6  UNL     1      25.622   2.837  51.169  1.00  0.00     0.097 A 
HETATM    4  C15 UNL     1      26.804   2.384  51.557  1.00  0.00     0.035 A 
HETATM    5  C16 UNL     1      26.972   1.110  52.247  1.00  0.00     0.007 A 
HETATM    6  C17 UNL     1      25.872   0.409  52.474  1.00  0.00    -0.057 A 
HETATM    7  H11 UNL     1      23.583   2.468  51.098  1.00  0.00     0.160 HD
ENDROOT
BRANCH   3   8
HETATM    8  C7  UNL     1      25.584   4.122  50.491  1.00  0.00     0.272 C 
HETATM    9  O1  UNL     1      26.367   4.407  49.547  1.00  0.00    -0.266 OA
HETATM   10  N2  UNL     1      24.680   5.169  50.815  1.00  0.00    -0.322 N 
HETATM   11  H12 UNL     1      23.991   5.033  51.581  1.00  0.00     0.169 HD
BRANCH  10  12
HETATM   12  C8  UNL     1      24.920   6.299  49.944  1.00  0.00     0.037 A 
HETATM   13  C9  UNL     1      24.388   6.228  48.672  1.00  0.00     0.029 A 
HETATM   14  C10 UNL     1      24.590   7.290  47.795  1.00  0.00     0.005 A 
HETATM   15  C11 UNL     1      25.322   8.351  48.279  1.00  0.00     0.037 A 
HETATM   16  C12 UNL     1      25.857   8.430  49.549  1.00  0.00     0.070 A 
HETATM   17  C14 UNL     1      25.654   7.376  50.416  1.00  0.00     0.066 A 
BRANCH  16  18
HETATM   18  O2  UNL     1      26.589   9.526  49.989  1.00  0.00    -0.356 OA
HETATM   19  C13 UNL     1      27.989   9.595  49.756  1.00  0.00     0.210 C 
ENDBRANCH  16  18
ENDBRANCH  10  12
ENDBRANCH   3   8
BRANCH   1  20
HETATM   20  C4  UNL     1      23.558   0.737  53.300  1.00  0.00     0.029 C 
BRANCH  20  21
HETATM   21  C3  UNL     1      22.409  -0.189  53.007  1.00  0.00     0.002 C 
BRANCH  21  22
HETATM   22  C2  UNL     1      21.760  -0.685  54.286  1.00  0.00    -0.004 C 
HETATM   23  C1  UNL     1      22.868  -1.252  55.160  1.00  0.00     0.005 C 
ENDBRANCH  21  22
ENDBRANCH  20  21
ENDBRANCH   1  20
BRANCH   6  24
HETATM   24  C18 UNL     1      26.058  -0.885  53.175  1.00  0.00     0.046 C 
BRANCH  24  25
HETATM   25  C19 UNL     1      26.804  -1.893  52.339  1.00  0.00     0.114 C 
BRANCH  25  26
HETATM   26  C20 UNL     1      28.035  -2.240  53.136  1.00  0.00     0.139 C 
HETATM   27  O3  UNL     1      28.638  -1.382  53.835  1.00  0.00    -0.650 OA
BRANCH  26  28
HETATM   28  O4  UNL     1      28.453  -3.576  53.041  1.00  0.00    -0.776 OA
HETATM   29  H26 UNL     1      28.122  -4.126  52.265  1.00  0.00     0.167 HD
ENDBRANCH  26  28
ENDBRANCH  25  26
ENDBRANCH  24  25
ENDBRANCH   6  24
TORSDOF 10
ENDMDL
MODEL 2
REMARK VINA RESULT:      -7.6      2.464      3.763
REMARK  10 active torsions:
REMARK  status: ('A' for Active; 'I' for Inactive)
REMARK    1  A    between atoms: C2_2  and  C3_3 
REMARK    2  A    between atoms: C3_3  and  C4_4 
REMARK    3  A    between atoms: C4_4  and  C5_5 
REMARK    4  A    between atoms: C6_7  and  C7_8 
REMARK       I    between atoms: C7_8  and  N2_10 
REMARK    5  A    between atoms: N2_10  and  C8_11 
REMARK    6  A    between atoms: C12_15  and  O2_16 
REMARK    7  A    between atoms: C17_21  and  C18_22 
REMARK    8  A    between atoms: C18_22  and  C19_23 
REMARK    9  A    between atoms: C19_23  and  C20_24 
REMARK   10  A    between atoms: C20_24  and  O4_26 
ROOT
HETATM    1  C5  UNL     1      25.454   1.557  52.929  1.00  0.00     0.111 A 
HETATM    2  N1  UNL     1      25.391   2.848  52.276  1.00  0.00    -0.377 N 
HETATM    3  C6  UNL     1      24.209   3.491  51.815  1.00  0.00     0.097 A 
HETATM    4  C15 UNL     1      23.050   2.875  51.988  1.00  0.00     0.035 A 
HETATM    5  C16 UNL     1      22.939   1.569  52.630  1.00  0.00     0.007 A 
HETATM    6  C17 UNL     1      24.069   1.013  53.040  1.00  0.00    -0.057 A 
HETATM    7  H11 UNL     1      26.260   3.399  52.104  1.00  0.00     0.160 HD
ENDROOT
BRANCH   3   8
HETATM    8  C7  UNL     1      24.189   4.789  51.161  1.00  0.00     0.272 C 
HETATM    9  O1  UNL     1      24.218   4.912  49.909  1.00  0.00    -0.266 OA
HETATM   10  N2  UNL     1      24.134   6.030  51.852  1.00  0.00    -0.322 N 
HETATM   11  H12 UNL     1      24.106   6.037  52.891  1.00  0.00     0.169 HD
BRANCH  10  12
HETATM   12  C8  UNL     1      24.127   7.113  50.895  1.00  0.00     0.037 A 
HETATM   13  C9  UNL     1      22.895   7.513  50.415  1.00  0.00     0.029 A 
HETATM   14  C10 UNL     1      22.834   8.553  49.492  1.00  0.00     0.005 A 
HETATM   15  C11 UNL     1      24.037   9.113  49.123  1.00  0.00     0.037 A 
HETATM   16  C12 UNL     1      25.271   8.721  49.597  1.00  0.00     0.070 A 
HETATM   17  C14 UNL     1      25.329   7.690  50.513  1.00  0.00     0.066 A 
BRANCH  16  18
HETATM   18  O2  UNL     1      26.457   9.321  49.192  1.00  0.00    -0.356 OA
HETATM   19  C13 UNL     1      27.599   9.299  50.039  1.00  0.00     0.210 C 
ENDBRANCH  16  18
ENDBRANCH  10  12
ENDBRANCH   3   8
BRANCH   1  20
HETATM   20  C4  UNL     1      26.377   0.604  52.235  1.00  0.00     0.029 C 
BRANCH  20  21
HETATM   21  C3  UNL     1      27.706   0.623  52.940  1.00  0.00     0.002 C 
BRANCH  21  22
HETATM   22  C2  UNL     1      28.133  -0.774  53.350  1.00  0.00    -0.004 C 
HETATM   23  C1  UNL     1      29.628  -0.722  53.625  1.00  0.00     0.005 C 
ENDBRANCH  21  22
ENDBRANCH  20  21
ENDBRANCH   1  20
BRANCH   6  24
HETATM   24  C18 UNL     1      23.942  -0.313  53.692  1.00  0.00     0.046 C 
BRANCH  24  25
HETATM   25  C19 UNL     1      22.613  -0.968  53.416  1.00  0.00     0.114 C 
BRANCH  25  26
HETATM   26  C20 UNL     1      22.103  -1.420  54.760  1.00  0.00     0.139 C 
HETATM   27  O3  UNL     1      22.875  -1.586  55.742  1.00  0.00    -0.650 OA
BRANCH  26  28
HETATM   28  O4  UNL     1      20.719  -1.639  54.833  1.00  0.00    -0.776 OA
HETATM   29  H26 UNL     1      20.210  -1.222  55.595  1.00  0.00     0.167 HD
ENDBRANCH  26  28
ENDBRANCH  25  26
ENDBRANCH  24  25
ENDBRANCH   6  24
TORSDOF 10
ENDMDL
MODEL 3
REMARK VINA RESULT:      -7.4      1.433      1.599
REMARK  10 active torsions:
REMARK  status: ('A' for Active; 'I' for Inactive)
REMARK    1  A    between atoms: C2_2  and  C3_3 
REMARK    2  A    between atoms: C3_3  and  C4_4 
REMARK    3  A    between atoms: C4_4  and  C5_5 
REMARK    4  A    between atoms: C6_7  and  C7_8 
REMARK       I    between atoms: C7_8  and  N2_10 
REMARK    5  A    between atoms: N2_10  and  C8_11 
REMARK    6  A    between atoms: C12_15  and  O2_16 
REMARK    7  A    between atoms: C17_21  and  C18_22 
REMARK    8  A    between atoms: C18_22  and  C19_23 
REMARK    9  A    between atoms: C19_23  and  C20_24 
REMARK   10  A    between atoms: C20_24  and  O4_26 
ROOT
HETATM    1  C5  UNL     1      24.612   0.307  52.301  1.00  0.00     0.111 A 
HETATM    2  N1  UNL     1      24.191   1.631  51.890  1.00  0.00    -0.377 N 
HETATM    3  C6  UNL     1      25.049   2.684  51.470  1.00  0.00     0.097 A 
HETATM    4  C15 UNL     1      26.353   2.459  51.442  1.00  0.00     0.035 A 
HETATM    5  C16 UNL     1      26.941   1.180  51.824  1.00  0.00     0.007 A 
HETATM    6  C17 UNL     1      26.100   0.233  52.208  1.00  0.00    -0.057 A 
HETATM    7  H11 UNL     1      23.180   1.888  51.881  1.00  0.00     0.160 HD
ENDROOT
BRANCH   3   8
HETATM    8  C7  UNL     1      24.586   4.002  51.066  1.00  0.00     0.272 C 
HETATM    9  O1  UNL     1      24.557   4.364  49.861  1.00  0.00    -0.266 OA
HETATM   10  N2  UNL     1      24.128   4.999  51.970  1.00  0.00    -0.322 N 
HETATM   11  H12 UNL     1      24.112   4.798  52.989  1.00  0.00     0.169 HD
BRANCH  10  12
HETATM   12  C8  UNL     1      23.746   6.180  51.229  1.00  0.00     0.037 A 
HETATM   13  C9  UNL     1      22.399   6.344  50.970  1.00  0.00     0.029 A 
HETATM   14  C10 UNL     1      21.979   7.466  50.261  1.00  0.00     0.005 A 
HETATM   15  C11 UNL     1      22.964   8.343  49.866  1.00  0.00     0.037 A 
HETATM   16  C12 UNL     1      24.311   8.187  50.120  1.00  0.00     0.070 A 
HETATM   17  C14 UNL     1      24.724   7.074  50.824  1.00  0.00     0.066 A 
BRANCH  16  18
HETATM   18  O2  UNL     1      25.267   9.103  49.698  1.00  0.00    -0.356 OA
HETATM   19  C13 UNL     1      26.639   8.907  50.014  1.00  0.00     0.210 C 
ENDBRANCH  16  18
ENDBRANCH  10  12
ENDBRANCH   3   8
BRANCH   1  20
HETATM   20  C4  UNL     1      24.116  -0.057  53.666  1.00  0.00     0.029 C 
BRANCH  20  21
HETATM   21  C3  UNL     1      22.844  -0.848  53.519  1.00  0.00     0.002 C 
BRANCH  21  22
HETATM   22  C2  UNL     1      22.000  -0.775  54.777  1.00  0.00    -0.004 C 
HETATM   23  C1  UNL     1      20.872   0.209  54.504  1.00  0.00     0.005 C 
ENDBRANCH  21  22
ENDBRANCH  20  21
ENDBRANCH   1  20
BRANCH   6  24
HETATM   24  C18 UNL     1      26.710  -1.064  52.592  1.00  0.00     0.046 C 
BRANCH  24  25
HETATM   25  C19 UNL     1      27.759  -0.914  53.665  1.00  0.00     0.114 C 
BRANCH  25  26
HETATM   26  C20 UNL     1      28.869  -1.854  53.273  1.00  0.00     0.139 C 
HETATM   27  O3  UNL     1      30.054  -1.454  53.119  1.00  0.00    -0.650 OA
BRANCH  26  28
HETATM   28  O4  UNL     1      28.487  -3.192  53.096  1.00  0.00    -0.776 OA
HETATM   29  H26 UNL     1      28.694  -3.635  52.217  1.00  0.00     0.167 HD
ENDBRANCH  26  28
ENDBRANCH  25  26
ENDBRANCH  24  25
ENDBRANCH   6  24
TORSDOF 10
ENDMDL
MODEL 4
REMARK VINA RESULT:      -7.4      2.518      3.816
REMARK  10 active torsions:
REMARK  status: ('A' for Active; 'I' for Inactive)
REMARK    1  A    between atoms: C2_2  and  C3_3 
REMARK    2  A    between atoms: C3_3  and  C4_4 
REMARK    3  A    between atoms: C4_4  and  C5_5 
REMARK    4  A    between atoms: C6_7  and  C7_8 
REMARK       I    between atoms: C7_8  and  N2_10 
REMARK    5  A    between atoms: N2_10  and  C8_11 
REMARK    6  A    between atoms: C12_15  and  O2_16 
REMARK    7  A    between atoms: C17_21  and  C18_22 
REMARK    8  A    between atoms: C18_22  and  C19_23 
REMARK    9  A    between atoms: C19_23  and  C20_24 
REMARK   10  A    between atoms: C20_24  and  O4_26 
ROOT
HETATM    1  C5  UNL     1      25.245   1.859  53.409  1.00  0.00     0.111 A 
HETATM    2  N1  UNL     1      25.441   2.941  52.466  1.00  0.00    -0.377 N 
HETATM    3  C6  UNL     1      24.702   3.146  51.269  1.00  0.00     0.097 A 
HETATM    4  C15 UNL     1      23.742   2.286  50.967  1.00  0.00     0.035 A 
HETATM    5  C16 UNL     1      23.414   1.143  51.812  1.00  0.00     0.007 A 
HETATM    6  C17 UNL     1      24.132   0.996  52.914  1.00  0.00    -0.057 A 
HETATM    7  H11 UNL     1      26.176   3.663  52.632  1.00  0.00     0.160 HD
ENDROOT
BRANCH   3   8
HETATM    8  C7  UNL     1      24.933   4.246  50.346  1.00  0.00     0.272 C 
HETATM    9  O1  UNL     1      24.641   4.171  49.124  1.00  0.00    -0.266 OA
HETATM   10  N2  UNL     1      25.500   5.495  50.718  1.00  0.00    -0.322 N 
HETATM   11  H12 UNL     1      25.775   5.658  51.707  1.00  0.00     0.169 HD
BRANCH  10  12
HETATM   12  C8  UNL     1      25.583   6.351  49.557  1.00  0.00     0.037 A 
HETATM   13  C9  UNL     1      26.768   6.327  48.849  1.00  0.00     0.029 A 
HETATM   14  C10 UNL     1      26.899   7.133  47.721  1.00  0.00     0.005 A 
HETATM   15  C11 UNL     1      25.808   7.908  47.395  1.00  0.00     0.037 A 
HETATM   16  C12 UNL     1      24.621   7.939  48.096  1.00  0.00     0.070 A 
HETATM   17  C14 UNL     1      24.494   7.138  49.213  1.00  0.00     0.066 A 
BRANCH  16  18
HETATM   18  O2  UNL     1      23.548   8.740  47.724  1.00  0.00    -0.356 OA
HETATM   19  C13 UNL     1      22.476   8.969  48.628  1.00  0.00     0.210 C 
ENDBRANCH  16  18
ENDBRANCH  10  12
ENDBRANCH   3   8
BRANCH   1  20
HETATM   20  C4  UNL     1      26.496   1.076  53.657  1.00  0.00     0.029 C 
BRANCH  20  21
HETATM   21  C3  UNL     1      26.904   0.403  52.375  1.00  0.00     0.002 C 
BRANCH  21  22
HETATM   22  C2  UNL     1      27.266  -1.052  52.605  1.00  0.00    -0.004 C 
HETATM   23  C1  UNL     1      28.609  -1.072  53.318  1.00  0.00     0.005 C 
ENDBRANCH  21  22
ENDBRANCH  20  21
ENDBRANCH   1  20
BRANCH   6  24
HETATM   24  C18 UNL     1      23.789  -0.171  53.764  1.00  0.00     0.046 C 
BRANCH  24  25
HETATM   25  C19 UNL     1      22.462  -0.784  53.396  1.00  0.00     0.114 C 
BRANCH  25  26
HETATM   26  C20 UNL     1      21.945  -1.410  54.665  1.00  0.00     0.139 C 
HETATM   27  O3  UNL     1      22.710  -1.698  55.624  1.00  0.00    -0.650 OA
BRANCH  26  28
HETATM   28  O4  UNL     1      20.562  -1.645  54.696  1.00  0.00    -0.776 OA
HETATM   29  H26 UNL     1      20.230  -2.570  54.478  1.00  0.00     0.167 HD
ENDBRANCH  26  28
ENDBRANCH  25  26
ENDBRANCH  24  25
ENDBRANCH   6  24
TORSDOF 10
ENDMDL
MODEL 5
REMARK VINA RESULT:      -7.4      2.538      3.825
REMARK  10 active torsions:
REMARK  status: ('A' for Active; 'I' for Inactive)
REMARK    1  A    between atoms: C2_2  and  C3_3 
REMARK    2  A    between atoms: C3_3  and  C4_4 
REMARK    3  A    between atoms: C4_4  and  C5_5 
REMARK    4  A    between atoms: C6_7  and  C7_8 
REMARK       I    between atoms: C7_8  and  N2_10 
REMARK    5  A    between atoms: N2_10  and  C8_11 
REMARK    6  A    between atoms: C12_15  and  O2_16 
REMARK    7  A    between atoms: C17_21  and  C18_22 
REMARK    8  A    between atoms: C18_22  and  C19_23 
REMARK    9  A    between atoms: C19_23  and  C20_24 
REMARK   10  A    between atoms: C20_24  and  O4_26 
ROOT
HETATM    1  C5  UNL     1      25.919   1.001  52.628  1.00  0.00     0.111 A 
HETATM    2  N1  UNL     1      26.189   2.100  51.723  1.00  0.00    -0.377 N 
HETATM    3  C6  UNL     1      25.211   2.894  51.063  1.00  0.00     0.097 A 
HETATM    4  C15 UNL     1      23.933   2.626  51.280  1.00  0.00     0.035 A 
HETATM    5  C16 UNL     1      23.491   1.554  52.166  1.00  0.00     0.007 A 
HETATM    6  C17 UNL     1      24.440   0.844  52.754  1.00  0.00    -0.057 A 
HETATM    7  H11 UNL     1      27.169   2.376  51.501  1.00  0.00     0.160 HD
ENDROOT
BRANCH   3   8
HETATM    8  C7  UNL     1      25.524   3.988  50.158  1.00  0.00     0.272 C 
HETATM    9  O1  UNL     1      25.794   3.800  48.944  1.00  0.00    -0.266 OA
HETATM   10  N2  UNL     1      25.556   5.356  50.543  1.00  0.00    -0.322 N 
HETATM   11  H12 UNL     1      25.346   5.618  51.527  1.00  0.00     0.169 HD
BRANCH  10  12
HETATM   12  C8  UNL     1      25.900   6.169  49.398  1.00  0.00     0.037 A 
HETATM   13  C9  UNL     1      24.871   6.869  48.800  1.00  0.00     0.029 A 
HETATM   14  C10 UNL     1      25.149   7.668  47.694  1.00  0.00     0.005 A 
HETATM   15  C11 UNL     1      26.461   7.695  47.275  1.00  0.00     0.037 A 
HETATM   16  C12 UNL     1      27.495   6.999  47.867  1.00  0.00     0.070 A 
HETATM   17  C14 UNL     1      27.216   6.209  48.963  1.00  0.00     0.066 A 
BRANCH  16  18
HETATM   18  O2  UNL     1      28.804   7.062  47.405  1.00  0.00    -0.356 OA
HETATM   19  C13 UNL     1      29.794   7.764  48.146  1.00  0.00     0.210 C 
ENDBRANCH  16  18
ENDBRANCH  10  12
ENDBRANCH   3   8
BRANCH   1  20
HETATM   20  C4  UNL     1      26.585  -0.271  52.205  1.00  0.00     0.029 C 
BRANCH  20  21
HETATM   21  C3  UNL     1      27.475  -0.741  53.324  1.00  0.00     0.002 C 
BRANCH  21  22
HETATM   22  C2  UNL     1      28.731   0.104  53.424  1.00  0.00    -0.004 C 
HETATM   23  C1  UNL     1      29.901  -0.851  53.600  1.00  0.00     0.005 C 
ENDBRANCH  21  22
ENDBRANCH  20  21
ENDBRANCH   1  20
BRANCH   6  24
HETATM   24  C18 UNL     1      23.977  -0.243  53.653  1.00  0.00     0.046 C 
BRANCH  24  25
HETATM   25  C19 UNL     1      22.476  -0.285  53.783  1.00  0.00     0.114 C 
BRANCH  25  26
HETATM   26  C20 UNL     1      22.199  -1.256  54.901  1.00  0.00     0.139 C 
HETATM   27  O3  UNL     1      23.074  -1.548  55.760  1.00  0.00    -0.650 OA
BRANCH  26  28
HETATM   28  O4  UNL     1      20.907  -1.802  54.914  1.00  0.00    -0.776 OA
HETATM   29  H26 UNL     1      20.750  -2.667  54.424  1.00  0.00     0.167 HD
ENDBRANCH  26  28
ENDBRANCH  25  26
ENDBRANCH  24  25
ENDBRANCH   6  24
TORSDOF 10
ENDMDL
MODEL 6
REMARK VINA RESULT:      -7.4      2.049      8.527
REMARK  10 active torsions:
REMARK  status: ('A' for Active; 'I' for Inactive)
REMARK    1  A    between atoms: C2_2  and  C3_3 
REMARK    2  A    between atoms: C3_3  and  C4_4 
REMARK    3  A    between atoms: C4_4  and  C5_5 
REMARK    4  A    between atoms: C6_7  and  C7_8 
REMARK       I    between atoms: C7_8  and  N2_10 
REMARK    5  A    between atoms: N2_10  and  C8_11 
REMARK    6  A    between atoms: C12_15  and  O2_16 
REMARK    7  A    between atoms: C17_21  and  C18_22 
REMARK    8  A    between atoms: C18_22  and  C19_23 
REMARK    9  A    between atoms: C19_23  and  C20_24 
REMARK   10  A    between atoms: C20_24  and  O4_26 
ROOT
HETATM    1  C5  UNL     1      25.052   7.158  50.564  1.00  0.00     0.111 A 
HETATM    2  N1  UNL     1      24.645   5.942  51.239  1.00  0.00    -0.377 N 
HETATM    3  C6  UNL     1      24.961   4.618  50.831  1.00  0.00     0.097 A 
HETATM    4  C15 UNL     1      25.693   4.454  49.741  1.00  0.00     0.035 A 
HETATM    5  C16 UNL     1      26.186   5.574  48.946  1.00  0.00     0.007 A 
HETATM    6  C17 UNL     1      25.863   6.786  49.367  1.00  0.00    -0.057 A 
HETATM    7  H11 UNL     1      24.068   5.986  52.107  1.00  0.00     0.160 HD
ENDROOT
BRANCH   3   8
HETATM    8  C7  UNL     1      24.530   3.422  51.537  1.00  0.00     0.272 C 
HETATM    9  O1  UNL     1      24.167   3.447  52.742  1.00  0.00    -0.266 OA
HETATM   10  N2  UNL     1      24.476   2.127  50.954  1.00  0.00    -0.322 N 
HETATM   11  H12 UNL     1      24.756   2.000  49.961  1.00  0.00     0.169 HD
BRANCH  10  12
HETATM   12  C8  UNL     1      24.004   1.177  51.936  1.00  0.00     0.037 A 
HETATM   13  C9  UNL     1      22.654   0.887  51.925  1.00  0.00     0.029 A 
HETATM   14  C10 UNL     1      22.149  -0.022  52.850  1.00  0.00     0.005 A 
HETATM   15  C11 UNL     1      23.060  -0.573  53.724  1.00  0.00     0.037 A 
HETATM   16  C12 UNL     1      24.410  -0.290  53.743  1.00  0.00     0.070 A 
HETATM   17  C14 UNL     1      24.907   0.612  52.824  1.00  0.00     0.066 A 
BRANCH  16  18
HETATM   18  O2  UNL     1      25.289  -0.875  54.647  1.00  0.00    -0.356 OA
HETATM   19  C13 UNL     1      26.402  -0.144  55.142  1.00  0.00     0.210 C 
ENDBRANCH  16  18
ENDBRANCH  10  12
ENDBRANCH   3   8
BRANCH   1  20
HETATM   20  C4  UNL     1      23.893   8.035  50.206  1.00  0.00     0.029 C 
BRANCH  20  21
HETATM   21  C3  UNL     1      22.684   7.166  49.983  1.00  0.00     0.002 C 
BRANCH  21  22
HETATM   22  C2  UNL     1      22.341   7.065  48.508  1.00  0.00    -0.004 C 
HETATM   23  C1  UNL     1      22.509   5.607  48.109  1.00  0.00     0.005 C 
ENDBRANCH  21  22
ENDBRANCH  20  21
ENDBRANCH   1  20
BRANCH   6  24
HETATM   24  C18 UNL     1      26.371   7.916  48.551  1.00  0.00     0.046 C 
BRANCH  24  25
HETATM   25  C19 UNL     1      27.719   8.404  49.014  1.00  0.00     0.114 C 
BRANCH  25  26
HETATM   26  C20 UNL     1      27.439   9.640  49.829  1.00  0.00     0.139 C 
HETATM   27  O3  UNL     1      27.002  10.698  49.302  1.00  0.00    -0.650 OA
BRANCH  26  28
HETATM   28  O4  UNL     1      27.699   9.523  51.202  1.00  0.00    -0.776 OA
HETATM   29  H26 UNL     1      27.528   8.636  51.647  1.00  0.00     0.167 HD
ENDBRANCH  26  28
ENDBRANCH  25  26
ENDBRANCH  24  25
ENDBRANCH   6  24
TORSDOF 10
ENDMDL
MODEL 7
REMARK VINA RESULT:      -7.3      1.811      2.251
REMARK  10 active torsions:
REMARK  status: ('A' for Active; 'I' for Inactive)
REMARK    1  A    between atoms: C2_2  and  C3_3 
REMARK    2  A    between atoms: C3_3  and  C4_4 
REMARK    3  A    between atoms: C4_4  and  C5_5 
REMARK    4  A    between atoms: C6_7  and  C7_8 
REMARK       I    between atoms: C7_8  and  N2_10 
REMARK    5  A    between atoms: N2_10  and  C8_11 
REMARK    6  A    between atoms: C12_15  and  O2_16 
REMARK    7  A    between atoms: C17_21  and  C18_22 
REMARK    8  A    between atoms: C18_22  and  C19_23 
REMARK    9  A    between atoms: C19_23  and  C20_24 
REMARK   10  A    between atoms: C20_24  and  O4_26 
ROOT
HETATM    1  C5  UNL     1      24.357   1.210  51.886  1.00  0.00     0.111 A 
HETATM    2  N1  UNL     1      24.224   2.460  51.164  1.00  0.00    -0.377 N 
HETATM    3  C6  UNL     1      25.293   3.232  50.634  1.00  0.00     0.097 A 
HETATM    4  C15 UNL     1      26.530   2.791  50.800  1.00  0.00     0.035 A 
HETATM    5  C16 UNL     1      26.837   1.550  51.502  1.00  0.00     0.007 A 
HETATM    6  C17 UNL     1      25.807   0.868  51.977  1.00  0.00    -0.057 A 
HETATM    7  H11 UNL     1      23.282   2.873  50.989  1.00  0.00     0.160 HD
ENDROOT
BRANCH   3   8
HETATM    8  C7  UNL     1      25.117   4.484  49.916  1.00  0.00     0.272 C 
HETATM    9  O1  UNL     1      24.334   4.593  48.937  1.00  0.00    -0.266 OA
HETATM   10  N2  UNL     1      25.796   5.691  50.237  1.00  0.00    -0.322 N 
HETATM   11  H12 UNL     1      26.466   5.706  51.032  1.00  0.00     0.169 HD
BRANCH  10  12
HETATM   12  C8  UNL     1      25.384   6.732  49.323  1.00  0.00     0.037 A 
HETATM   13  C9  UNL     1      26.164   6.920  48.200  1.00  0.00     0.029 A 
HETATM   14  C10 UNL     1      25.810   7.911  47.288  1.00  0.00     0.005 A 
HETATM   15  C11 UNL     1      24.681   8.641  47.588  1.00  0.00     0.037 A 
HETATM   16  C12 UNL     1      23.896   8.460  48.708  1.00  0.00     0.070 A 
HETATM   17  C14 UNL     1      24.250   7.477  49.609  1.00  0.00     0.066 A 
BRANCH  16  18
HETATM   18  O2  UNL     1      22.765   9.225  48.964  1.00  0.00    -0.356 OA
HETATM   19  C13 UNL     1      21.577   8.611  49.445  1.00  0.00     0.210 C 
ENDBRANCH  16  18
ENDBRANCH  10  12
ENDBRANCH   3   8
BRANCH   1  20
HETATM   20  C4  UNL     1      23.702   1.250  53.231  1.00  0.00     0.029 C 
BRANCH  20  21
HETATM   21  C3  UNL     1      22.511   0.331  53.213  1.00  0.00     0.002 C 
BRANCH  21  22
HETATM   22  C2  UNL     1      22.718  -0.861  54.129  1.00  0.00    -0.004 C 
HETATM   23  C1  UNL     1      21.339  -1.394  54.487  1.00  0.00     0.005 C 
ENDBRANCH  21  22
ENDBRANCH  20  21
ENDBRANCH   1  20
BRANCH   6  24
HETATM   24  C18 UNL     1      26.132  -0.393  52.688  1.00  0.00     0.046 C 
BRANCH  24  25
HETATM   25  C19 UNL     1      27.540  -0.406  53.227  1.00  0.00     0.114 C 
BRANCH  25  26
HETATM   26  C20 UNL     1      27.424   0.038  54.661  1.00  0.00     0.139 C 
HETATM   27  O3  UNL     1      26.455  -0.309  55.388  1.00  0.00    -0.650 OA
BRANCH  26  28
HETATM   28  O4  UNL     1      28.467   0.856  55.121  1.00  0.00    -0.776 OA
HETATM   29  H26 UNL     1      29.342   0.422  55.364  1.00  0.00     0.167 HD
ENDBRANCH  26  28
ENDBRANCH  25  26
ENDBRANCH  24  25
ENDBRANCH   6  24
TORSDOF 10
ENDMDL
MODEL 8
REMARK VINA RESULT:      -7.1      3.859      7.831
REMARK  10 active torsions:
REMARK  status: ('A' for Active; 'I' for Inactive)
REMARK    1  A    between atoms: C2_2  and  C3_3 
REMARK    2  A    between atoms: C3_3  and  C4_4 
REMARK    3  A    between atoms: C4_4  and  C5_5 
REMARK    4  A    between atoms: C6_7  and  C7_8 
REMARK       I    between atoms: C7_8  and  N2_10 
REMARK    5  A    between atoms: N2_10  and  C8_11 
REMARK    6  A    between atoms: C12_15  and  O2_16 
REMARK    7  A    between atoms: C17_21  and  C18_22 
REMARK    8  A    between atoms: C18_22  and  C19_23 
REMARK    9  A    between atoms: C19_23  and  C20_24 
REMARK   10  A    between atoms: C20_24  and  O4_26 
ROOT
HETATM    1  C5  UNL     1      25.169   2.736  51.583  1.00  0.00     0.111 A 
HETATM    2  N1  UNL     1      23.796   2.334  51.355  1.00  0.00    -0.377 N 
HETATM    3  C6  UNL     1      23.133   1.243  51.982  1.00  0.00     0.097 A 
HETATM    4  C15 UNL     1      23.810   0.516  52.858  1.00  0.00     0.035 A 
HETATM    5  C16 UNL     1      25.201   0.790  53.203  1.00  0.00     0.007 A 
HETATM    6  C17 UNL     1      25.772   1.815  52.591  1.00  0.00    -0.057 A 
HETATM    7  H11 UNL     1      23.195   2.856  50.682  1.00  0.00     0.160 HD
ENDROOT
BRANCH   3   8
HETATM    8  C7  UNL     1      21.752   0.870  51.724  1.00  0.00     0.272 C 
HETATM    9  O1  UNL     1      21.435   0.043  50.830  1.00  0.00    -0.266 OA
HETATM   10  N2  UNL     1      20.639   1.389  52.438  1.00  0.00    -0.322 N 
HETATM   11  H12 UNL     1      20.794   2.080  53.200  1.00  0.00     0.169 HD
BRANCH  10  12
HETATM   12  C8  UNL     1      19.421   0.804  51.923  1.00  0.00     0.037 A 
HETATM   13  C9  UNL     1      18.872   1.395  50.803  1.00  0.00     0.029 A 
HETATM   14  C10 UNL     1      17.699   0.869  50.266  1.00  0.00     0.005 A 
HETATM   15  C11 UNL     1      17.170  -0.226  50.913  1.00  0.00     0.037 A 
HETATM   16  C12 UNL     1      17.713  -0.823  52.032  1.00  0.00     0.070 A 
HETATM   17  C14 UNL     1      18.875  -0.299  52.561  1.00  0.00     0.066 A 
BRANCH  16  18
HETATM   18  O2  UNL     1      17.138  -1.929  52.646  1.00  0.00    -0.356 OA
HETATM   19  C13 UNL     1      17.816  -2.595  53.704  1.00  0.00     0.210 C 
ENDBRANCH  16  18
ENDBRANCH  10  12
ENDBRANCH   3   8
BRANCH   1  20
HETATM   20  C4  UNL     1      25.971   2.790  50.320  1.00  0.00     0.029 C 
BRANCH  20  21
HETATM   21  C3  UNL     1      26.058   4.223  49.868  1.00  0.00     0.002 C 
BRANCH  21  22
HETATM   22  C2  UNL     1      27.239   4.437  48.939  1.00  0.00    -0.004 C 
HETATM   23  C1  UNL     1      27.214   5.898  48.515  1.00  0.00     0.005 C 
ENDBRANCH  21  22
ENDBRANCH  20  21
ENDBRANCH   1  20
BRANCH   6  24
HETATM   24  C18 UNL     1      27.186   2.082  52.950  1.00  0.00     0.046 C 
BRANCH  24  25
HETATM   25  C19 UNL     1      28.025   0.831  52.967  1.00  0.00     0.114 C 
BRANCH  25  26
HETATM   26  C20 UNL     1      28.591   0.746  54.361  1.00  0.00     0.139 C 
HETATM   27  O3  UNL     1      28.440  -0.279  55.078  1.00  0.00    -0.650 OA
BRANCH  26  28
HETATM   28  O4  UNL     1      29.290   1.882  54.794  1.00  0.00    -0.776 OA
HETATM   29  H26 UNL     1      29.970   2.290  54.173  1.00  0.00     0.167 HD
ENDBRANCH  26  28
ENDBRANCH  25  26
ENDBRANCH  24  25
ENDBRANCH   6  24
TORSDOF 10
ENDMDL
MODEL 9
REMARK VINA RESULT:      -7.0      1.553      2.029
REMARK  10 active torsions:
REMARK  status: ('A' for Active; 'I' for Inactive)
REMARK    1  A    between atoms: C2_2  and  C3_3 
REMARK    2  A    between atoms: C3_3  and  C4_4 
REMARK    3  A    between atoms: C4_4  and  C5_5 
REMARK    4  A    between atoms: C6_7  and  C7_8 
REMARK       I    between atoms: C7_8  and  N2_10 
REMARK    5  A    between atoms: N2_10  and  C8_11 
REMARK    6  A    between atoms: C12_15  and  O2_16 
REMARK    7  A    between atoms: C17_21  and  C18_22 
REMARK    8  A    between atoms: C18_22  and  C19_23 
REMARK    9  A    between atoms: C19_23  and  C20_24 
REMARK   10  A    between atoms: C20_24  and  O4_26 
ROOT
HETATM    1  C5  UNL     1      24.506   0.834  52.033  1.00  0.00     0.111 A 
HETATM    2  N1  UNL     1      24.205   2.124  51.445  1.00  0.00    -0.377 N 
HETATM    3  C6  UNL     1      25.158   3.058  50.955  1.00  0.00     0.097 A 
HETATM    4  C15 UNL     1      26.442   2.744  51.029  1.00  0.00     0.035 A 
HETATM    5  C16 UNL     1      26.914   1.483  51.591  1.00  0.00     0.007 A 
HETATM    6  C17 UNL     1      25.987   0.649  52.035  1.00  0.00    -0.057 A 
HETATM    7  H11 UNL     1      23.217   2.445  51.348  1.00  0.00     0.160 HD
ENDROOT
BRANCH   3   8
HETATM    8  C7  UNL     1      24.814   4.345  50.373  1.00  0.00     0.272 C 
HETATM    9  O1  UNL     1      23.697   4.563  49.836  1.00  0.00    -0.266 OA
HETATM   10  N2  UNL     1      25.684   5.468  50.349  1.00  0.00    -0.322 N 
HETATM   11  H12 UNL     1      26.632   5.391  50.769  1.00  0.00     0.169 HD
BRANCH  10  12
HETATM   12  C8  UNL     1      25.022   6.576  49.697  1.00  0.00     0.037 A 
HETATM   13  C9  UNL     1      24.238   7.388  50.493  1.00  0.00     0.029 A 
HETATM   14  C10 UNL     1      23.580   8.469  49.914  1.00  0.00     0.005 A 
HETATM   15  C11 UNL     1      23.768   8.646  48.561  1.00  0.00     0.037 A 
HETATM   16  C12 UNL     1      24.550   7.839  47.759  1.00  0.00     0.070 A 
HETATM   17  C14 UNL     1      25.202   6.769  48.336  1.00  0.00     0.066 A 
BRANCH  16  18
HETATM   18  O2  UNL     1      24.708   8.062  46.396  1.00  0.00    -0.356 OA
HETATM   19  C13 UNL     1      23.660   7.742  45.491  1.00  0.00     0.210 C 
ENDBRANCH  16  18
ENDBRANCH  10  12
ENDBRANCH   3   8
BRANCH   1  20
HETATM   20  C4  UNL     1      23.918   0.672  53.400  1.00  0.00     0.029 C 
BRANCH  20  21
HETATM   21  C3  UNL     1      22.636  -0.107  53.282  1.00  0.00     0.002 C 
BRANCH  21  22
HETATM   22  C2  UNL     1      22.435  -1.023  54.474  1.00  0.00    -0.004 C 
HETATM   23  C1  UNL     1      21.060  -1.657  54.325  1.00  0.00     0.005 C 
ENDBRANCH  21  22
ENDBRANCH  20  21
ENDBRANCH   1  20
BRANCH   6  24
HETATM   24  C18 UNL     1      26.480  -0.630  52.603  1.00  0.00     0.046 C 
BRANCH  24  25
HETATM   25  C19 UNL     1      27.773  -0.466  53.360  1.00  0.00     0.114 C 
BRANCH  25  26
HETATM   26  C20 UNL     1      28.468  -1.799  53.260  1.00  0.00     0.139 C 
HETATM   27  O3  UNL     1      29.692  -1.931  53.526  1.00  0.00    -0.650 OA
BRANCH  26  28
HETATM   28  O4  UNL     1      27.656  -2.868  52.854  1.00  0.00    -0.776 OA
HETATM   29  H26 UNL     1      27.960  -3.805  53.065  1.00  0.00     0.167 HD
ENDBRANCH  26  28
ENDBRANCH  25  26
ENDBRANCH  24  25
ENDBRANCH   6  24
TORSDOF 10
ENDMDL
