MODEL 1
REMARK VINA RESULT:      -8.3      0.000      0.000
REMARK  5 active torsions:
REMARK  status: ('A' for Active; 'I' for Inactive)
REMARK    1  A    between atoms: N1_2  and  C3_4 
REMARK    2  A    between atoms: C3_4  and  C4_5 
REMARK    3  A    between atoms: C5_6  and  C6_7 
REMARK       I    between atoms: C6_7  and  N2_9 
REMARK    4  A    between atoms: N2_9  and  C7_10 
REMARK    5  A    between atoms: C12_17  and  C13_18 
ROOT
HETATM    1  C7  UNL     1      25.120   4.008  50.556  1.00  0.00     0.036 A 
HETATM    2  C8  UNL     1      23.795   3.983  50.169  1.00  0.00     0.032 A 
HETATM    3  C9  UNL     1      22.959   2.947  50.602  1.00  0.00     0.035 A 
HETATM    4  C10 UNL     1      23.454   1.948  51.415  1.00  0.00     0.070 A 
HETATM    5  N3  UNL     1      22.697   0.936  51.870  1.00  0.00    -0.241 NA
HETATM    6  C11 UNL     1      23.299   0.013  52.678  1.00  0.00     0.234 A 
HETATM    7  N4  UNL     1      24.593   0.057  53.041  1.00  0.00    -0.240 NA
HETATM    8  C12 UNL     1      25.388   1.074  52.593  1.00  0.00     0.081 A 
HETATM    9  C19 UNL     1      24.780   1.998  51.784  1.00  0.00     0.025 A 
HETATM   10  C20 UNL     1      25.612   3.011  51.366  1.00  0.00     0.045 A 
ENDROOT
BRANCH   1  11
HETATM   11  N2  UNL     1      25.810   5.131  50.026  1.00  0.00    -0.316 N 
HETATM   12  C6  UNL     1      26.904   4.647  49.255  1.00  0.00     0.301 C 
HETATM   13  O1  UNL     1      27.103   3.407  49.148  1.00  0.00    -0.258 OA
HETATM   14  H9  UNL     1      25.692   6.175  50.079  1.00  0.00     0.170 HD
BRANCH  12  15
HETATM   15  C5  UNL     1      27.848   5.497  48.555  1.00  0.00    -0.004 C 
HETATM   16  C4  UNL     1      28.641   6.193  47.973  1.00  0.00    -0.066 C 
BRANCH  16  17
HETATM   17  C3  UNL     1      29.631   7.032  47.263  1.00  0.00     0.365 C 
BRANCH  17  18
HETATM   18  N1  UNL     1      30.434   7.819  48.156  1.00  0.00     0.090 N 
HETATM   19  C1  UNL     1      31.391   7.084  48.925  1.00  0.00     0.310 C 
HETATM   20  C2  UNL     1      29.653   8.747  48.920  1.00  0.00     0.310 C 
ENDBRANCH  17  18
ENDBRANCH  16  17
ENDBRANCH  12  15
ENDBRANCH   1  11
BRANCH   8  21
HETATM   21  C13 UNL     1      26.757   0.991  53.068  1.00  0.00    -0.005 A 
HETATM   22  C14 UNL     1      27.581   1.960  53.594  1.00  0.00     0.014 A 
HETATM   23  C15 UNL     1      28.862   1.681  54.018  1.00  0.00     0.002 A 
HETATM   24  C16 UNL     1      29.372   0.413  53.930  1.00  0.00     0.019 A 
HETATM   25  C17 UNL     1      28.618  -0.620  53.417  1.00  0.00     0.011 A 
HETATM   26 BR1  UNL     1      29.277  -2.399  53.271  1.00  0.00    -0.051 Br
HETATM   27  C18 UNL     1      27.329  -0.285  53.003  1.00  0.00     0.032 A 
ENDBRANCH   8  21
TORSDOF 5
ENDMDL
MODEL 2
REMARK VINA RESULT:      -8.2      2.247      3.260
REMARK  5 active torsions:
REMARK  status: ('A' for Active; 'I' for Inactive)
REMARK    1  A    between atoms: N1_2  and  C3_4 
REMARK    2  A    between atoms: C3_4  and  C4_5 
REMARK    3  A    between atoms: C5_6  and  C6_7 
REMARK       I    between atoms: C6_7  and  N2_9 
REMARK    4  A    between atoms: N2_9  and  C7_10 
REMARK    5  A    between atoms: C12_17  and  C13_18 
ROOT
HETATM    1  C7  UNL     1      23.164   1.727  51.385  1.00  0.00     0.036 A 
HETATM    2  C8  UNL     1      21.835   1.831  51.746  1.00  0.00     0.032 A 
HETATM    3  C9  UNL     1      21.356   1.125  52.857  1.00  0.00     0.035 A 
HETATM    4  C10 UNL     1      22.206   0.325  53.591  1.00  0.00     0.070 A 
HETATM    5  N3  UNL     1      21.805  -0.366  54.672  1.00  0.00    -0.241 NA
HETATM    6  C11 UNL     1      22.743  -1.114  55.325  1.00  0.00     0.234 A 
HETATM    7  N4  UNL     1      24.033  -1.201  54.952  1.00  0.00    -0.240 NA
HETATM    8  C12 UNL     1      24.470  -0.510  53.857  1.00  0.00     0.081 A 
HETATM    9  C19 UNL     1      23.526   0.240  53.207  1.00  0.00     0.025 A 
HETATM   10  C20 UNL     1      24.009   0.929  52.119  1.00  0.00     0.045 A 
ENDROOT
BRANCH   1  11
HETATM   11  N2  UNL     1      23.467   2.514  50.241  1.00  0.00    -0.316 N 
HETATM   12  C6  UNL     1      23.981   3.761  50.695  1.00  0.00     0.301 C 
HETATM   13  O1  UNL     1      24.093   3.989  51.929  1.00  0.00    -0.258 OA
HETATM   14  H9  UNL     1      23.398   2.380  49.201  1.00  0.00     0.170 HD
BRANCH  12  15
HETATM   15  C5  UNL     1      24.402   4.838  49.817  1.00  0.00    -0.004 C 
HETATM   16  C4  UNL     1      24.754   5.739  49.099  1.00  0.00    -0.066 C 
BRANCH  16  17
HETATM   17  C3  UNL     1      25.189   6.859  48.236  1.00  0.00     0.365 C 
BRANCH  17  18
HETATM   18  N1  UNL     1      26.524   7.298  48.528  1.00  0.00     0.090 N 
HETATM   19  C1  UNL     1      27.541   6.302  48.378  1.00  0.00     0.310 C 
HETATM   20  C2  UNL     1      26.602   8.038  49.753  1.00  0.00     0.310 C 
ENDBRANCH  17  18
ENDBRANCH  16  17
ENDBRANCH  12  15
ENDBRANCH   1  11
BRANCH   8  21
HETATM   21  C13 UNL     1      25.881  -0.698  53.580  1.00  0.00    -0.005 A 
HETATM   22  C14 UNL     1      26.535  -1.708  52.912  1.00  0.00     0.014 A 
HETATM   23  C15 UNL     1      27.900  -1.701  52.726  1.00  0.00     0.002 A 
HETATM   24  C16 UNL     1      28.670  -0.674  53.205  1.00  0.00     0.019 A 
HETATM   25  C17 UNL     1      28.101   0.380  53.886  1.00  0.00     0.011 A 
HETATM   26 BR1  UNL     1      29.123   1.830  54.575  1.00  0.00    -0.051 Br
HETATM   27  C18 UNL     1      26.717   0.325  54.047  1.00  0.00     0.032 A 
ENDBRANCH   8  21
TORSDOF 5
ENDMDL
MODEL 3
REMARK VINA RESULT:      -8.1      3.213      5.461
REMARK  5 active torsions:
REMARK  status: ('A' for Active; 'I' for Inactive)
REMARK    1  A    between atoms: N1_2  and  C3_4 
REMARK    2  A    between atoms: C3_4  and  C4_5 
REMARK    3  A    between atoms: C5_6  and  C6_7 
REMARK       I    between atoms: C6_7  and  N2_9 
REMARK    4  A    between atoms: N2_9  and  C7_10 
REMARK    5  A    between atoms: C12_17  and  C13_18 
ROOT
HETATM    1  C7  UNL     1      25.920   0.968  52.299  1.00  0.00     0.036 A 
HETATM    2  C8  UNL     1      26.897   0.599  53.203  1.00  0.00     0.032 A 
HETATM    3  C9  UNL     1      26.555  -0.151  54.335  1.00  0.00     0.035 A 
HETATM    4  C10 UNL     1      25.244  -0.522  54.552  1.00  0.00     0.070 A 
HETATM    5  N3  UNL     1      24.860  -1.250  55.614  1.00  0.00    -0.241 NA
HETATM    6  C11 UNL     1      23.533  -1.567  55.714  1.00  0.00     0.234 A 
HETATM    7  N4  UNL     1      22.599  -1.193  54.821  1.00  0.00    -0.240 NA
HETATM    8  C12 UNL     1      22.961  -0.452  53.732  1.00  0.00     0.081 A 
HETATM    9  C19 UNL     1      24.291  -0.139  53.636  1.00  0.00     0.025 A 
HETATM   10  C20 UNL     1      24.614   0.597  52.519  1.00  0.00     0.045 A 
ENDROOT
BRANCH   1  11
HETATM   11  N2  UNL     1      26.452   1.718  51.216  1.00  0.00    -0.316 N 
HETATM   12  C6  UNL     1      25.778   2.971  51.182  1.00  0.00     0.301 C 
HETATM   13  O1  UNL     1      24.885   3.234  52.032  1.00  0.00    -0.258 OA
HETATM   14  H9  UNL     1      27.187   1.555  50.483  1.00  0.00     0.170 HD
BRANCH  12  15
HETATM   15  C5  UNL     1      26.043   4.014  50.208  1.00  0.00    -0.004 C 
HETATM   16  C4  UNL     1      26.275   4.882  49.405  1.00  0.00    -0.066 C 
BRANCH  16  17
HETATM   17  C3  UNL     1      26.578   5.952  48.431  1.00  0.00     0.365 C 
BRANCH  17  18
HETATM   18  N1  UNL     1      27.926   6.435  48.540  1.00  0.00     0.090 N 
HETATM   19  C1  UNL     1      28.170   7.709  47.935  1.00  0.00     0.310 C 
HETATM   20  C2  UNL     1      28.895   5.432  48.207  1.00  0.00     0.310 C 
ENDBRANCH  17  18
ENDBRANCH  16  17
ENDBRANCH  12  15
ENDBRANCH   1  11
BRANCH   8  21
HETATM   21  C13 UNL     1      21.849  -0.128  52.858  1.00  0.00    -0.005 A 
HETATM   22  C14 UNL     1      21.814   0.589  51.684  1.00  0.00     0.014 A 
HETATM   23  C15 UNL     1      20.649   0.774  50.971  1.00  0.00     0.002 A 
HETATM   24  C16 UNL     1      19.464   0.244  51.410  1.00  0.00     0.019 A 
HETATM   25  C17 UNL     1      19.405  -0.490  52.575  1.00  0.00     0.011 A 
HETATM   26 BR1  UNL     1      17.787  -1.248  53.231  1.00  0.00    -0.051 Br
HETATM   27  C18 UNL     1      20.611  -0.648  53.258  1.00  0.00     0.032 A 
ENDBRANCH   8  21
TORSDOF 5
ENDMDL
MODEL 4
REMARK VINA RESULT:      -8.1      3.339      7.636
REMARK  5 active torsions:
REMARK  status: ('A' for Active; 'I' for Inactive)
REMARK    1  A    between atoms: N1_2  and  C3_4 
REMARK    2  A    between atoms: C3_4  and  C4_5 
REMARK    3  A    between atoms: C5_6  and  C6_7 
REMARK       I    between atoms: C6_7  and  N2_9 
REMARK    4  A    between atoms: N2_9  and  C7_10 
REMARK    5  A    between atoms: C12_17  and  C13_18 
ROOT
HETATM    1  C7  UNL     1      25.097   4.790  50.219  1.00  0.00     0.036 A 
HETATM    2  C8  UNL     1      23.760   4.915  49.897  1.00  0.00     0.032 A 
HETATM    3  C9  UNL     1      23.365   5.798  48.884  1.00  0.00     0.035 A 
HETATM    4  C10 UNL     1      24.306   6.545  48.207  1.00  0.00     0.070 A 
HETATM    5  N3  UNL     1      23.986   7.398  47.220  1.00  0.00    -0.241 NA
HETATM    6  C11 UNL     1      25.010   8.073  46.615  1.00  0.00     0.234 A 
HETATM    7  N4  UNL     1      26.305   7.936  46.948  1.00  0.00    -0.240 NA
HETATM    8  C12 UNL     1      26.660   7.076  47.948  1.00  0.00     0.081 A 
HETATM    9  C19 UNL     1      25.632   6.400  48.550  1.00  0.00     0.025 A 
HETATM   10  C20 UNL     1      26.034   5.536  49.543  1.00  0.00     0.045 A 
ENDROOT
BRANCH   1  11
HETATM   11  N2  UNL     1      25.308   3.850  51.263  1.00  0.00    -0.316 N 
HETATM   12  C6  UNL     1      26.093   2.785  50.738  1.00  0.00     0.301 C 
HETATM   13  O1  UNL     1      26.468   2.809  49.535  1.00  0.00    -0.258 OA
HETATM   14  H9  UNL     1      25.025   3.777  52.273  1.00  0.00     0.170 HD
BRANCH  12  15
HETATM   15  C5  UNL     1      26.514   1.627  51.504  1.00  0.00    -0.004 C 
HETATM   16  C4  UNL     1      26.875   0.670  52.141  1.00  0.00    -0.066 C 
BRANCH  16  17
HETATM   17  C3  UNL     1      27.341  -0.497  52.922  1.00  0.00     0.365 C 
BRANCH  17  18
HETATM   18  N1  UNL     1      28.616  -0.275  53.543  1.00  0.00     0.090 N 
HETATM   19  C1  UNL     1      29.545  -1.359  53.436  1.00  0.00     0.310 C 
HETATM   20  C2  UNL     1      28.494   0.266  54.865  1.00  0.00     0.310 C 
ENDBRANCH  17  18
ENDBRANCH  16  17
ENDBRANCH  12  15
ENDBRANCH   1  11
BRANCH   8  21
HETATM   21  C13 UNL     1      28.090   7.031  48.193  1.00  0.00    -0.005 A 
HETATM   22  C14 UNL     1      28.985   5.991  48.079  1.00  0.00     0.014 A 
HETATM   23  C15 UNL     1      30.329   6.149  48.336  1.00  0.00     0.002 A 
HETATM   24  C16 UNL     1      30.834   7.363  48.721  1.00  0.00     0.019 A 
HETATM   25  C17 UNL     1      30.012   8.460  48.860  1.00  0.00     0.011 A 
HETATM   26 BR1  UNL     1      30.660  10.168  49.394  1.00  0.00    -0.051 Br
HETATM   27  C18 UNL     1      28.661   8.247  48.588  1.00  0.00     0.032 A 
ENDBRANCH   8  21
TORSDOF 5
ENDMDL
MODEL 5
REMARK VINA RESULT:      -8.0      1.720      1.918
REMARK  5 active torsions:
REMARK  status: ('A' for Active; 'I' for Inactive)
REMARK    1  A    between atoms: N1_2  and  C3_4 
REMARK    2  A    between atoms: C3_4  and  C4_5 
REMARK    3  A    between atoms: C5_6  and  C6_7 
REMARK       I    between atoms: C6_7  and  N2_9 
REMARK    4  A    between atoms: N2_9  and  C7_10 
REMARK    5  A    between atoms: C12_17  and  C13_18 
ROOT
HETATM    1  C7  UNL     1      24.115   3.875  51.726  1.00  0.00     0.036 A 
HETATM    2  C8  UNL     1      22.746   3.716  51.638  1.00  0.00     0.032 A 
HETATM    3  C9  UNL     1      22.146   2.547  52.124  1.00  0.00     0.035 A 
HETATM    4  C10 UNL     1      22.918   1.552  52.688  1.00  0.00     0.070 A 
HETATM    5  N3  UNL     1      22.396   0.416  53.179  1.00  0.00    -0.241 NA
HETATM    6  C11 UNL     1      23.262  -0.490  53.725  1.00  0.00     0.234 A 
HETATM    7  N4  UNL     1      24.594  -0.313  53.797  1.00  0.00    -0.240 NA
HETATM    8  C12 UNL     1      25.152   0.833  53.304  1.00  0.00     0.081 A 
HETATM    9  C19 UNL     1      24.280   1.738  52.760  1.00  0.00     0.025 A 
HETATM   10  C20 UNL     1      24.882   2.882  52.288  1.00  0.00     0.045 A 
ENDROOT
BRANCH   1  11
HETATM   11  N2  UNL     1      24.541   5.120  51.189  1.00  0.00    -0.316 N 
HETATM   12  C6  UNL     1      25.216   4.857  49.963  1.00  0.00     0.301 C 
HETATM   13  O1  UNL     1      25.336   3.673  49.548  1.00  0.00    -0.258 OA
HETATM   14  H9  UNL     1      24.470   6.126  51.484  1.00  0.00     0.170 HD
BRANCH  12  15
HETATM   15  C5  UNL     1      25.801   5.881  49.118  1.00  0.00    -0.004 C 
HETATM   16  C4  UNL     1      26.298   6.731  48.424  1.00  0.00    -0.066 C 
BRANCH  16  17
HETATM   17  C3  UNL     1      26.926   7.776  47.586  1.00  0.00     0.365 C 
BRANCH  17  18
HETATM   18  N1  UNL     1      26.943   9.062  48.225  1.00  0.00     0.090 N 
HETATM   19  C1  UNL     1      27.776   9.158  49.384  1.00  0.00     0.310 C 
HETATM   20  C2  UNL     1      25.627   9.604  48.400  1.00  0.00     0.310 C 
ENDBRANCH  17  18
ENDBRANCH  16  17
ENDBRANCH  12  15
ENDBRANCH   1  11
BRANCH   8  21
HETATM   21  C13 UNL     1      26.595   0.884  53.454  1.00  0.00    -0.005 A 
HETATM   22  C14 UNL     1      27.430   1.947  53.713  1.00  0.00     0.014 A 
HETATM   23  C15 UNL     1      28.793   1.793  53.846  1.00  0.00     0.002 A 
HETATM   24  C16 UNL     1      29.377   0.561  53.723  1.00  0.00     0.019 A 
HETATM   25  C17 UNL     1      28.619  -0.560  53.465  1.00  0.00     0.011 A 
HETATM   26 BR1  UNL     1      29.379  -2.296  53.283  1.00  0.00    -0.051 Br
HETATM   27  C18 UNL     1      27.245  -0.351  53.340  1.00  0.00     0.032 A 
ENDBRANCH   8  21
TORSDOF 5
ENDMDL
MODEL 6
REMARK VINA RESULT:      -8.0      4.160      4.929
REMARK  5 active torsions:
REMARK  status: ('A' for Active; 'I' for Inactive)
REMARK    1  A    between atoms: N1_2  and  C3_4 
REMARK    2  A    between atoms: C3_4  and  C4_5 
REMARK    3  A    between atoms: C5_6  and  C6_7 
REMARK       I    between atoms: C6_7  and  N2_9 
REMARK    4  A    between atoms: N2_9  and  C7_10 
REMARK    5  A    between atoms: C12_17  and  C13_18 
ROOT
HETATM    1  C7  UNL     1      22.473   0.969  51.755  1.00  0.00     0.036 A 
HETATM    2  C8  UNL     1      21.307   0.327  52.124  1.00  0.00     0.032 A 
HETATM    3  C9  UNL     1      21.297  -0.518  53.241  1.00  0.00     0.035 A 
HETATM    4  C10 UNL     1      22.449  -0.714  53.974  1.00  0.00     0.070 A 
HETATM    5  N3  UNL     1      22.497  -1.504  55.059  1.00  0.00    -0.241 NA
HETATM    6  C11 UNL     1      23.694  -1.609  55.710  1.00  0.00     0.234 A 
HETATM    7  N4  UNL     1      24.818  -0.975  55.329  1.00  0.00    -0.240 NA
HETATM    8  C12 UNL     1      24.800  -0.166  54.229  1.00  0.00     0.081 A 
HETATM    9  C19 UNL     1      23.597  -0.062  53.582  1.00  0.00     0.025 A 
HETATM   10  C20 UNL     1      23.620   0.772  52.487  1.00  0.00     0.045 A 
ENDROOT
BRANCH   1  11
HETATM   11  N2  UNL     1      22.291   1.785  50.606  1.00  0.00    -0.316 N 
HETATM   12  C6  UNL     1      22.165   3.133  51.045  1.00  0.00     0.301 C 
HETATM   13  O1  UNL     1      22.227   3.407  52.274  1.00  0.00    -0.258 OA
HETATM   14  H9  UNL     1      22.233   1.616  49.570  1.00  0.00     0.170 HD
BRANCH  12  15
HETATM   15  C5  UNL     1      21.962   4.264  50.159  1.00  0.00    -0.004 C 
HETATM   16  C4  UNL     1      21.782   5.205  49.429  1.00  0.00    -0.066 C 
BRANCH  16  17
HETATM   17  C3  UNL     1      21.539   6.363  48.541  1.00  0.00     0.365 C 
BRANCH  17  18
HETATM   18  N1  UNL     1      21.576   7.616  49.240  1.00  0.00     0.090 N 
HETATM   19  C1  UNL     1      22.703   7.801  50.103  1.00  0.00     0.310 C 
HETATM   20  C2  UNL     1      20.317   7.946  49.840  1.00  0.00     0.310 C 
ENDBRANCH  17  18
ENDBRANCH  16  17
ENDBRANCH  12  15
ENDBRANCH   1  11
BRANCH   8  21
HETATM   21  C13 UNL     1      26.082   0.451  53.944  1.00  0.00    -0.005 A 
HETATM   22  C14 UNL     1      26.422   1.776  53.784  1.00  0.00     0.014 A 
HETATM   23  C15 UNL     1      27.716   2.176  53.537  1.00  0.00     0.002 A 
HETATM   24  C16 UNL     1      28.729   1.260  53.438  1.00  0.00     0.019 A 
HETATM   25  C17 UNL     1      28.482  -0.088  53.585  1.00  0.00     0.011 A 
HETATM   26 BR1  UNL     1      29.852  -1.403  53.456  1.00  0.00    -0.051 Br
HETATM   27  C18 UNL     1      27.156  -0.441  53.834  1.00  0.00     0.032 A 
ENDBRANCH   8  21
TORSDOF 5
ENDMDL
MODEL 7
REMARK VINA RESULT:      -7.7      2.960      5.329
REMARK  5 active torsions:
REMARK  status: ('A' for Active; 'I' for Inactive)
REMARK    1  A    between atoms: N1_2  and  C3_4 
REMARK    2  A    between atoms: C3_4  and  C4_5 
REMARK    3  A    between atoms: C5_6  and  C6_7 
REMARK       I    between atoms: C6_7  and  N2_9 
REMARK    4  A    between atoms: N2_9  and  C7_10 
REMARK    5  A    between atoms: C12_17  and  C13_18 
ROOT
HETATM    1  C7  UNL     1      25.684   1.003  52.207  1.00  0.00     0.036 A 
HETATM    2  C8  UNL     1      26.709   0.640  53.057  1.00  0.00     0.032 A 
HETATM    3  C9  UNL     1      26.433  -0.121  54.200  1.00  0.00     0.035 A 
HETATM    4  C10 UNL     1      25.139  -0.508  54.482  1.00  0.00     0.070 A 
HETATM    5  N3  UNL     1      24.818  -1.246  55.557  1.00  0.00    -0.241 NA
HETATM    6  C11 UNL     1      23.502  -1.578  55.722  1.00  0.00     0.234 A 
HETATM    7  N4  UNL     1      22.519  -1.209  54.880  1.00  0.00    -0.240 NA
HETATM    8  C12 UNL     1      22.817  -0.458  53.779  1.00  0.00     0.081 A 
HETATM    9  C19 UNL     1      24.137  -0.130  53.617  1.00  0.00     0.025 A 
HETATM   10  C20 UNL     1      24.394   0.616  52.490  1.00  0.00     0.045 A 
ENDROOT
BRANCH   1  11
HETATM   11  N2  UNL     1      26.152   1.765  51.103  1.00  0.00    -0.316 N 
HETATM   12  C6  UNL     1      25.564   3.058  51.186  1.00  0.00     0.301 C 
HETATM   13  O1  UNL     1      24.783   3.339  52.134  1.00  0.00    -0.258 OA
HETATM   14  H9  UNL     1      26.796   1.588  50.291  1.00  0.00     0.170 HD
BRANCH  12  15
HETATM   15  C5  UNL     1      25.798   4.124  50.230  1.00  0.00    -0.004 C 
HETATM   16  C4  UNL     1      26.005   5.008  49.437  1.00  0.00    -0.066 C 
BRANCH  16  17
HETATM   17  C3  UNL     1      26.282   6.091  48.469  1.00  0.00     0.365 C 
BRANCH  17  18
HETATM   18  N1  UNL     1      27.624   6.594  48.568  1.00  0.00     0.090 N 
HETATM   19  C1  UNL     1      27.851   7.857  47.934  1.00  0.00     0.310 C 
HETATM   20  C2  UNL     1      28.606   5.596  48.261  1.00  0.00     0.310 C 
ENDBRANCH  17  18
ENDBRANCH  16  17
ENDBRANCH  12  15
ENDBRANCH   1  11
BRANCH   8  21
HETATM   21  C13 UNL     1      21.658  -0.141  52.965  1.00  0.00    -0.005 A 
HETATM   22  C14 UNL     1      20.316  -0.167  53.270  1.00  0.00     0.014 A 
HETATM   23  C15 UNL     1      19.350   0.196  52.357  1.00  0.00     0.002 A 
HETATM   24  C16 UNL     1      19.691   0.601  51.094  1.00  0.00     0.019 A 
HETATM   25  C17 UNL     1      21.011   0.658  50.701  1.00  0.00     0.011 A 
HETATM   26 BR1  UNL     1      21.541   1.212  48.959  1.00  0.00    -0.051 Br
HETATM   27  C18 UNL     1      21.949   0.282  51.662  1.00  0.00     0.032 A 
ENDBRANCH   8  21
TORSDOF 5
ENDMDL
MODEL 8
REMARK VINA RESULT:      -7.6      4.232      8.942
REMARK  5 active torsions:
REMARK  status: ('A' for Active; 'I' for Inactive)
REMARK    1  A    between atoms: N1_2  and  C3_4 
REMARK    2  A    between atoms: C3_4  and  C4_5 
REMARK    3  A    between atoms: C5_6  and  C6_7 
REMARK       I    between atoms: C6_7  and  N2_9 
REMARK    4  A    between atoms: N2_9  and  C7_10 
REMARK    5  A    between atoms: C12_17  and  C13_18 
ROOT
HETATM    1  C7  UNL     1      22.377   0.105  53.788  1.00  0.00     0.036 A 
HETATM    2  C8  UNL     1      22.866  -0.822  54.687  1.00  0.00     0.032 A 
HETATM    3  C9  UNL     1      24.242  -1.077  54.748  1.00  0.00     0.035 A 
HETATM    4  C10 UNL     1      25.111  -0.408  53.911  1.00  0.00     0.070 A 
HETATM    5  N3  UNL     1      26.439  -0.604  53.933  1.00  0.00    -0.241 NA
HETATM    6  C11 UNL     1      27.199   0.128  53.063  1.00  0.00     0.234 A 
HETATM    7  N4  UNL     1      26.698   1.024  52.194  1.00  0.00    -0.240 NA
HETATM    8  C12 UNL     1      25.350   1.245  52.149  1.00  0.00     0.081 A 
HETATM    9  C19 UNL     1      24.594   0.510  53.024  1.00  0.00     0.025 A 
HETATM   10  C20 UNL     1      23.245   0.771  52.955  1.00  0.00     0.045 A 
ENDROOT
BRANCH   1  11
HETATM   11  N2  UNL     1      20.964   0.234  53.872  1.00  0.00    -0.316 N 
HETATM   12  C6  UNL     1      20.422  -0.065  52.591  1.00  0.00     0.301 C 
HETATM   13  O1  UNL     1      21.185  -0.379  51.638  1.00  0.00    -0.258 OA
HETATM   14  H9  UNL     1      20.280   0.488  54.629  1.00  0.00     0.170 HD
BRANCH  12  15
HETATM   15  C5  UNL     1      19.006  -0.038  52.277  1.00  0.00    -0.004 C 
HETATM   16  C4  UNL     1      17.831  -0.024  52.008  1.00  0.00    -0.066 C 
BRANCH  16  17
HETATM   17  C3  UNL     1      16.393  -0.022  51.661  1.00  0.00     0.365 C 
BRANCH  17  18
HETATM   18  N1  UNL     1      15.642   0.942  52.414  1.00  0.00     0.090 N 
HETATM   19  C1  UNL     1      14.453   0.442  53.033  1.00  0.00     0.310 C 
HETATM   20  C2  UNL     1      15.461   2.173  51.700  1.00  0.00     0.310 C 
ENDBRANCH  17  18
ENDBRANCH  16  17
ENDBRANCH  12  15
ENDBRANCH   1  11
BRANCH   8  21
HETATM   21  C13 UNL     1      24.959   2.239  51.168  1.00  0.00    -0.005 A 
HETATM   22  C14 UNL     1      23.711   2.642  50.752  1.00  0.00     0.014 A 
HETATM   23  C15 UNL     1      23.536   3.634  49.811  1.00  0.00     0.002 A 
HETATM   24  C16 UNL     1      24.612   4.264  49.245  1.00  0.00     0.019 A 
HETATM   25  C17 UNL     1      25.899   3.925  49.601  1.00  0.00     0.011 A 
HETATM   26 BR1  UNL     1      27.430   4.767  48.846  1.00  0.00    -0.051 Br
HETATM   27  C18 UNL     1      26.021   2.917  50.558  1.00  0.00     0.032 A 
ENDBRANCH   8  21
TORSDOF 5
ENDMDL
MODEL 9
REMARK VINA RESULT:      -7.6      4.486      8.486
REMARK  5 active torsions:
REMARK  status: ('A' for Active; 'I' for Inactive)
REMARK    1  A    between atoms: N1_2  and  C3_4 
REMARK    2  A    between atoms: C3_4  and  C4_5 
REMARK    3  A    between atoms: C5_6  and  C6_7 
REMARK       I    between atoms: C6_7  and  N2_9 
REMARK    4  A    between atoms: N2_9  and  C7_10 
REMARK    5  A    between atoms: C12_17  and  C13_18 
ROOT
HETATM    1  C7  UNL     1      21.553   0.769  51.955  1.00  0.00     0.036 A 
HETATM    2  C8  UNL     1      21.360  -0.234  52.885  1.00  0.00     0.032 A 
HETATM    3  C9  UNL     1      22.441  -0.702  53.643  1.00  0.00     0.035 A 
HETATM    4  C10 UNL     1      23.699  -0.165  53.464  1.00  0.00     0.070 A 
HETATM    5  N3  UNL     1      24.769  -0.567  54.169  1.00  0.00    -0.241 NA
HETATM    6  C11 UNL     1      25.962   0.049  53.910  1.00  0.00     0.234 A 
HETATM    7  N4  UNL     1      26.125   1.023  52.997  1.00  0.00    -0.240 NA
HETATM    8  C12 UNL     1      25.055   1.451  52.264  1.00  0.00     0.081 A 
HETATM    9  C19 UNL     1      23.862   0.832  52.529  1.00  0.00     0.025 A 
HETATM   10  C20 UNL     1      22.808   1.302  51.779  1.00  0.00     0.045 A 
ENDROOT
BRANCH   1  11
HETATM   11  N2  UNL     1      20.347   1.116  51.288  1.00  0.00    -0.316 N 
HETATM   12  C6  UNL     1      19.748   2.190  52.003  1.00  0.00     0.301 C 
HETATM   13  O1  UNL     1      20.305   2.655  53.033  1.00  0.00    -0.258 OA
HETATM   14  H9  UNL     1      19.838   0.770  50.436  1.00  0.00     0.170 HD
BRANCH  12  15
HETATM   15  C5  UNL     1      18.495   2.820  51.629  1.00  0.00    -0.004 C 
HETATM   16  C4  UNL     1      17.455   3.350  51.330  1.00  0.00    -0.066 C 
BRANCH  16  17
HETATM   17  C3  UNL     1      16.177   4.010  50.984  1.00  0.00     0.365 C 
BRANCH  17  18
HETATM   18  N1  UNL     1      15.095   3.605  51.836  1.00  0.00     0.090 N 
HETATM   19  C1  UNL     1      15.113   4.164  53.153  1.00  0.00     0.310 C 
HETATM   20  C2  UNL     1      14.871   2.189  51.801  1.00  0.00     0.310 C 
ENDBRANCH  17  18
ENDBRANCH  16  17
ENDBRANCH  12  15
ENDBRANCH   1  11
BRANCH   8  21
HETATM   21  C13 UNL     1      25.383   2.507  51.324  1.00  0.00    -0.005 A 
HETATM   22  C14 UNL     1      26.323   2.549  50.319  1.00  0.00     0.014 A 
HETATM   23  C15 UNL     1      26.473   3.648  49.501  1.00  0.00     0.002 A 
HETATM   24  C16 UNL     1      25.682   4.755  49.659  1.00  0.00     0.019 A 
HETATM   25  C17 UNL     1      24.714   4.801  50.638  1.00  0.00     0.011 A 
HETATM   26 BR1  UNL     1      23.589   6.313  50.901  1.00  0.00    -0.051 Br
HETATM   27  C18 UNL     1      24.602   3.664  51.438  1.00  0.00     0.032 A 
ENDBRANCH   8  21
TORSDOF 5
ENDMDL
