MODEL 1
REMARK VINA RESULT:      -9.1      0.000      0.000
REMARK  3 active torsions:
REMARK  status: ('A' for Active; 'I' for Inactive)
REMARK       I    between atoms: C3_3  and  N1_5 
REMARK    1  A    between atoms: N1_5  and  C4_6 
REMARK    2  A    between atoms: C11_15  and  N4_16 
REMARK    3  A    between atoms: N4_16  and  C12_17 
ROOT
HETATM    1  C1  UNL     1      30.163  -0.875  53.456  1.00  0.00     0.022 C 
HETATM    2  C2  UNL     1      28.966  -0.894  53.598  1.00  0.00    -0.016 C 
HETATM    3  C3  UNL     1      27.521  -0.910  53.747  1.00  0.00     0.300 C 
HETATM    4  O1  UNL     1      26.796  -1.776  53.169  1.00  0.00    -0.258 OA
HETATM    5  N1  UNL     1      26.834   0.063  54.563  1.00  0.00    -0.316 N 
HETATM    6  H2  UNL     1      27.432   0.774  55.038  1.00  0.00     0.170 HD
ENDROOT
BRANCH   5   7
HETATM    7  C4  UNL     1      25.422  -0.234  54.495  1.00  0.00     0.036 A 
HETATM    8  C5  UNL     1      24.984  -0.997  55.561  1.00  0.00     0.032 A 
HETATM    9  C6  UNL     1      23.664  -1.381  55.670  1.00  0.00     0.035 A 
HETATM   10  C7  UNL     1      22.803  -0.971  54.671  1.00  0.00     0.069 A 
HETATM   11  N2  UNL     1      21.496  -1.332  54.747  1.00  0.00    -0.259 NA
HETATM   12  C18 UNL     1      23.230  -0.206  53.595  1.00  0.00     0.023 A 
HETATM   13  C8  UNL     1      20.608  -0.964  53.803  1.00  0.00     0.142 A 
HETATM   14  C9  UNL     1      21.049  -0.196  52.730  1.00  0.00     0.089 A 
HETATM   15  C10 UNL     1      20.126   0.216  51.701  1.00  0.00     0.103 C 
HETATM   16  C11 UNL     1      22.376   0.206  52.594  1.00  0.00     0.067 A 
HETATM   17  N3  UNL     1      19.388   0.548  50.862  1.00  0.00    -0.191 NA
HETATM   18  C19 UNL     1      24.555   0.172  53.499  1.00  0.00     0.045 A 
BRANCH  16  19
HETATM   19  N4  UNL     1      22.859   0.978  51.530  1.00  0.00    -0.354 N 
HETATM   20  H6  UNL     1      22.973   0.324  50.731  1.00  0.00     0.166 HD
BRANCH  19  21
HETATM   21  C12 UNL     1      23.139   2.379  51.541  1.00  0.00     0.033 A 
HETATM   22  C13 UNL     1      22.387   3.145  52.389  1.00  0.00     0.029 A 
HETATM   23  C14 UNL     1      22.667   4.516  52.393  1.00  0.00     0.004 A 
HETATM   24  C15 UNL     1      23.660   5.012  51.566  1.00  0.00     0.019 A 
HETATM   25  C16 UNL     1      24.384   4.181  50.732  1.00  0.00     0.013 A 
HETATM   26 BR1  UNL     1      25.754   4.851  49.590  1.00  0.00    -0.051 Br
HETATM   27  C17 UNL     1      24.142   2.805  50.692  1.00  0.00     0.048 A 
ENDBRANCH  19  21
ENDBRANCH  16  19
ENDBRANCH   5   7
TORSDOF 3
ENDMDL
MODEL 2
REMARK VINA RESULT:      -8.7      2.598      5.424
REMARK  3 active torsions:
REMARK  status: ('A' for Active; 'I' for Inactive)
REMARK       I    between atoms: C3_3  and  N1_5 
REMARK    1  A    between atoms: N1_5  and  C4_6 
REMARK    2  A    between atoms: C11_15  and  N4_16 
REMARK    3  A    between atoms: N4_16  and  C12_17 
ROOT
HETATM    1  C1  UNL     1      28.107   5.143  48.570  1.00  0.00     0.022 C 
HETATM    2  C2  UNL     1      27.177   4.504  48.994  1.00  0.00    -0.016 C 
HETATM    3  C3  UNL     1      26.051   3.727  49.485  1.00  0.00     0.300 C 
HETATM    4  O1  UNL     1      26.074   2.459  49.517  1.00  0.00    -0.258 OA
HETATM    5  N1  UNL     1      24.845   4.362  49.961  1.00  0.00    -0.316 N 
HETATM    6  H2  UNL     1      24.829   5.404  49.935  1.00  0.00     0.170 HD
ENDROOT
BRANCH   5   7
HETATM    7  C4  UNL     1      23.938   3.314  50.370  1.00  0.00     0.036 A 
HETATM    8  C5  UNL     1      22.880   3.152  49.496  1.00  0.00     0.032 A 
HETATM    9  C6  UNL     1      21.909   2.199  49.719  1.00  0.00     0.035 A 
HETATM   10  C7  UNL     1      22.040   1.416  50.849  1.00  0.00     0.069 A 
HETATM   11  N2  UNL     1      21.101   0.467  51.099  1.00  0.00    -0.259 NA
HETATM   12  C18 UNL     1      23.097   1.569  51.734  1.00  0.00     0.023 A 
HETATM   13  C8  UNL     1      21.174  -0.326  52.185  1.00  0.00     0.142 A 
HETATM   14  C9  UNL     1      22.239  -0.164  53.064  1.00  0.00     0.089 A 
HETATM   15  C10 UNL     1      22.350  -0.996  54.238  1.00  0.00     0.103 C 
HETATM   16  C11 UNL     1      23.234   0.791  52.865  1.00  0.00     0.067 A 
HETATM   17  N3  UNL     1      22.442  -1.660  55.191  1.00  0.00    -0.191 NA
HETATM   18  C19 UNL     1      24.064   2.528  51.499  1.00  0.00     0.045 A 
BRANCH  16  19
HETATM   19  N4  UNL     1      24.321   0.986  53.726  1.00  0.00    -0.354 N 
HETATM   20  H6  UNL     1      23.968   1.578  54.503  1.00  0.00     0.166 HD
BRANCH  19  21
HETATM   21  C12 UNL     1      25.647   0.476  53.568  1.00  0.00     0.033 A 
HETATM   22  C13 UNL     1      25.759  -0.770  53.016  1.00  0.00     0.029 A 
HETATM   23  C14 UNL     1      27.060  -1.263  52.865  1.00  0.00     0.004 A 
HETATM   24  C15 UNL     1      28.135  -0.488  53.269  1.00  0.00     0.019 A 
HETATM   25  C16 UNL     1      27.950   0.766  53.820  1.00  0.00     0.013 A 
HETATM   26 BR1  UNL     1      29.419   1.843  54.379  1.00  0.00    -0.051 Br
HETATM   27  C17 UNL     1      26.670   1.302  53.992  1.00  0.00     0.048 A 
ENDBRANCH  19  21
ENDBRANCH  16  19
ENDBRANCH   5   7
TORSDOF 3
ENDMDL
MODEL 3
REMARK VINA RESULT:      -8.7      1.995      3.107
REMARK  3 active torsions:
REMARK  status: ('A' for Active; 'I' for Inactive)
REMARK       I    between atoms: C3_3  and  N1_5 
REMARK    1  A    between atoms: N1_5  and  C4_6 
REMARK    2  A    between atoms: C11_15  and  N4_16 
REMARK    3  A    between atoms: N4_16  and  C12_17 
ROOT
HETATM    1  C1  UNL     1      29.839  -0.928  53.660  1.00  0.00     0.022 C 
HETATM    2  C2  UNL     1      28.696  -0.608  53.452  1.00  0.00    -0.016 C 
HETATM    3  C3  UNL     1      27.324  -0.204  53.192  1.00  0.00     0.300 C 
HETATM    4  O1  UNL     1      26.848  -0.164  52.017  1.00  0.00    -0.258 OA
HETATM    5  N1  UNL     1      26.433   0.177  54.262  1.00  0.00    -0.316 N 
HETATM    6  H2  UNL     1      26.827   0.144  55.227  1.00  0.00     0.170 HD
ENDROOT
BRANCH   5   7
HETATM    7  C4  UNL     1      25.163   0.519  53.665  1.00  0.00     0.036 A 
HETATM    8  C5  UNL     1      24.250  -0.517  53.721  1.00  0.00     0.032 A 
HETATM    9  C6  UNL     1      22.979  -0.378  53.202  1.00  0.00     0.035 A 
HETATM   10  C7  UNL     1      22.662   0.836  52.626  1.00  0.00     0.069 A 
HETATM   11  N2  UNL     1      21.419   1.006  52.105  1.00  0.00    -0.259 NA
HETATM   12  C18 UNL     1      23.569   1.883  52.564  1.00  0.00     0.023 A 
HETATM   13  C8  UNL     1      21.050   2.168  51.530  1.00  0.00     0.142 A 
HETATM   14  C9  UNL     1      21.969   3.210  51.474  1.00  0.00     0.089 A 
HETATM   15  C10 UNL     1      21.609   4.468  50.866  1.00  0.00     0.103 C 
HETATM   16  C11 UNL     1      23.259   3.098  51.990  1.00  0.00     0.067 A 
HETATM   17  N3  UNL     1      21.328   5.484  50.370  1.00  0.00    -0.191 NA
HETATM   18  C19 UNL     1      24.838   1.731  53.088  1.00  0.00     0.045 A 
BRANCH  16  19
HETATM   19  N4  UNL     1      24.212   4.124  51.953  1.00  0.00    -0.354 N 
HETATM   20  H6  UNL     1      24.173   4.583  52.884  1.00  0.00     0.166 HD
BRANCH  19  21
HETATM   21  C12 UNL     1      25.065   4.468  50.860  1.00  0.00     0.033 A 
HETATM   22  C13 UNL     1      25.899   3.484  50.403  1.00  0.00     0.029 A 
HETATM   23  C14 UNL     1      26.731   3.830  49.333  1.00  0.00     0.004 A 
HETATM   24  C15 UNL     1      26.670   5.109  48.806  1.00  0.00     0.019 A 
HETATM   25  C16 UNL     1      25.803   6.056  49.315  1.00  0.00     0.013 A 
HETATM   26 BR1  UNL     1      25.709   7.820  48.600  1.00  0.00    -0.051 Br
HETATM   27  C17 UNL     1      24.952   5.760  50.385  1.00  0.00     0.048 A 
ENDBRANCH  19  21
ENDBRANCH  16  19
ENDBRANCH   5   7
TORSDOF 3
ENDMDL
MODEL 4
REMARK VINA RESULT:      -8.2      2.326      3.530
REMARK  3 active torsions:
REMARK  status: ('A' for Active; 'I' for Inactive)
REMARK       I    between atoms: C3_3  and  N1_5 
REMARK    1  A    between atoms: N1_5  and  C4_6 
REMARK    2  A    between atoms: C11_15  and  N4_16 
REMARK    3  A    between atoms: N4_16  and  C12_17 
ROOT
HETATM    1  C1  UNL     1      29.684  -0.833  53.834  1.00  0.00     0.022 C 
HETATM    2  C2  UNL     1      28.600  -0.493  53.431  1.00  0.00    -0.016 C 
HETATM    3  C3  UNL     1      27.303  -0.073  52.929  1.00  0.00     0.300 C 
HETATM    4  O1  UNL     1      26.818  -0.536  51.851  1.00  0.00    -0.258 OA
HETATM    5  N1  UNL     1      26.497   0.896  53.633  1.00  0.00    -0.316 N 
HETATM    6  H2  UNL     1      26.897   1.275  54.518  1.00  0.00     0.170 HD
ENDROOT
BRANCH   5   7
HETATM    7  C4  UNL     1      25.285   1.086  52.871  1.00  0.00     0.036 A 
HETATM    8  C5  UNL     1      24.212   0.386  53.389  1.00  0.00     0.032 A 
HETATM    9  C6  UNL     1      22.968   0.443  52.797  1.00  0.00     0.035 A 
HETATM   10  C7  UNL     1      22.842   1.228  51.668  1.00  0.00     0.069 A 
HETATM   11  N2  UNL     1      21.630   1.306  51.059  1.00  0.00    -0.259 NA
HETATM   12  C18 UNL     1      23.911   1.935  51.137  1.00  0.00     0.023 A 
HETATM   13  C8  UNL     1      21.445   2.054  49.954  1.00  0.00     0.142 A 
HETATM   14  C9  UNL     1      22.524   2.759  49.432  1.00  0.00     0.089 A 
HETATM   15  C10 UNL     1      22.362   3.570  48.250  1.00  0.00     0.103 C 
HETATM   16  C11 UNL     1      23.792   2.719  50.009  1.00  0.00     0.067 A 
HETATM   17  N3  UNL     1      22.241   4.222  47.292  1.00  0.00    -0.191 NA
HETATM   18  C19 UNL     1      25.152   1.869  51.740  1.00  0.00     0.045 A 
BRANCH  16  19
HETATM   19  N4  UNL     1      24.903   3.414  49.515  1.00  0.00    -0.354 N 
HETATM   20  H6  UNL     1      25.452   2.721  48.968  1.00  0.00     0.166 HD
BRANCH  19  21
HETATM   21  C12 UNL     1      25.218   4.793  49.719  1.00  0.00     0.033 A 
HETATM   22  C13 UNL     1      24.460   5.461  50.641  1.00  0.00     0.029 A 
HETATM   23  C14 UNL     1      24.774   6.810  50.835  1.00  0.00     0.004 A 
HETATM   24  C15 UNL     1      25.804   7.383  50.108  1.00  0.00     0.019 A 
HETATM   25  C16 UNL     1      26.531   6.649  49.190  1.00  0.00     0.013 A 
HETATM   26 BR1  UNL     1      27.951   7.425  48.183  1.00  0.00    -0.051 Br
HETATM   27  C17 UNL     1      26.255   5.298  48.960  1.00  0.00     0.048 A 
ENDBRANCH  19  21
ENDBRANCH  16  19
ENDBRANCH   5   7
TORSDOF 3
ENDMDL
MODEL 5
REMARK VINA RESULT:      -8.1      2.808      4.438
REMARK  3 active torsions:
REMARK  status: ('A' for Active; 'I' for Inactive)
REMARK       I    between atoms: C3_3  and  N1_5 
REMARK    1  A    between atoms: N1_5  and  C4_6 
REMARK    2  A    between atoms: C11_15  and  N4_16 
REMARK    3  A    between atoms: N4_16  and  C12_17 
ROOT
HETATM    1  C1  UNL     1      26.678   4.932  48.956  1.00  0.00     0.022 C 
HETATM    2  C2  UNL     1      26.388   4.110  49.789  1.00  0.00    -0.016 C 
HETATM    3  C3  UNL     1      26.047   3.133  50.809  1.00  0.00     0.300 C 
HETATM    4  O1  UNL     1      25.095   3.321  51.627  1.00  0.00    -0.258 OA
HETATM    5  N1  UNL     1      26.777   1.895  50.945  1.00  0.00    -0.316 N 
HETATM    6  H2  UNL     1      27.559   1.742  50.272  1.00  0.00     0.170 HD
ENDROOT
BRANCH   5   7
HETATM    7  C4  UNL     1      26.188   1.163  52.042  1.00  0.00     0.036 A 
HETATM    8  C5  UNL     1      27.064   0.981  53.095  1.00  0.00     0.032 A 
HETATM    9  C6  UNL     1      26.681   0.305  54.234  1.00  0.00     0.035 A 
HETATM   10  C7  UNL     1      25.389  -0.180  54.276  1.00  0.00     0.069 A 
HETATM   11  N2  UNL     1      24.979  -0.852  55.383  1.00  0.00    -0.259 NA
HETATM   12  C18 UNL     1      24.500  -0.005  53.225  1.00  0.00     0.023 A 
HETATM   13  C8  UNL     1      23.731  -1.350  55.483  1.00  0.00     0.142 A 
HETATM   14  C9  UNL     1      22.850  -1.166  54.423  1.00  0.00     0.089 A 
HETATM   15  C10 UNL     1      21.505  -1.686  54.495  1.00  0.00     0.103 C 
HETATM   16  C11 UNL     1      23.209  -0.488  53.260  1.00  0.00     0.067 A 
HETATM   17  N3  UNL     1      20.420  -2.108  54.543  1.00  0.00    -0.191 NA
HETATM   18  C19 UNL     1      24.896   0.675  52.090  1.00  0.00     0.045 A 
BRANCH  16  19
HETATM   19  N4  UNL     1      22.351  -0.282  52.172  1.00  0.00    -0.354 N 
HETATM   20  H6  UNL     1      22.638  -0.971  51.449  1.00  0.00     0.166 HD
BRANCH  19  21
HETATM   21  C12 UNL     1      21.297   0.678  52.076  1.00  0.00     0.033 A 
HETATM   22  C13 UNL     1      21.520   1.889  52.671  1.00  0.00     0.029 A 
HETATM   23  C14 UNL     1      20.483   2.824  52.572  1.00  0.00     0.004 A 
HETATM   24  C15 UNL     1      19.321   2.486  51.899  1.00  0.00     0.019 A 
HETATM   25  C16 UNL     1      19.162   1.242  51.319  1.00  0.00     0.013 A 
HETATM   26 BR1  UNL     1      17.568   0.765  50.389  1.00  0.00    -0.051 Br
HETATM   27  C17 UNL     1      20.168   0.274  51.391  1.00  0.00     0.048 A 
ENDBRANCH  19  21
ENDBRANCH  16  19
ENDBRANCH   5   7
TORSDOF 3
ENDMDL
MODEL 6
REMARK VINA RESULT:      -8.0      2.473      5.910
REMARK  3 active torsions:
REMARK  status: ('A' for Active; 'I' for Inactive)
REMARK       I    between atoms: C3_3  and  N1_5 
REMARK    1  A    between atoms: N1_5  and  C4_6 
REMARK    2  A    between atoms: C11_15  and  N4_16 
REMARK    3  A    between atoms: N4_16  and  C12_17 
ROOT
HETATM    1  C1  UNL     1      17.009   3.686  49.509  1.00  0.00     0.022 C 
HETATM    2  C2  UNL     1      17.673   2.976  50.223  1.00  0.00    -0.016 C 
HETATM    3  C3  UNL     1      18.492   2.133  51.077  1.00  0.00     0.300 C 
HETATM    4  O1  UNL     1      18.950   2.546  52.186  1.00  0.00    -0.258 OA
HETATM    5  N1  UNL     1      18.826   0.779  50.706  1.00  0.00    -0.316 N 
HETATM    6  H2  UNL     1      18.448   0.442  49.795  1.00  0.00     0.170 HD
ENDROOT
BRANCH   5   7
HETATM    7  C4  UNL     1      19.642   0.229  51.764  1.00  0.00     0.036 A 
HETATM    8  C5  UNL     1      18.904  -0.473  52.698  1.00  0.00     0.032 A 
HETATM    9  C6  UNL     1      19.510  -1.071  53.783  1.00  0.00     0.035 A 
HETATM   10  C7  UNL     1      20.879  -0.939  53.894  1.00  0.00     0.069 A 
HETATM   11  N2  UNL     1      21.508  -1.516  54.951  1.00  0.00    -0.259 NA
HETATM   12  C18 UNL     1      21.631  -0.237  52.963  1.00  0.00     0.023 A 
HETATM   13  C8  UNL     1      22.842  -1.421  55.114  1.00  0.00     0.142 A 
HETATM   14  C9  UNL     1      23.584  -0.715  54.174  1.00  0.00     0.089 A 
HETATM   15  C10 UNL     1      25.015  -0.593  54.317  1.00  0.00     0.103 C 
HETATM   16  C11 UNL     1      23.000  -0.100  53.069  1.00  0.00     0.067 A 
HETATM   17  N3  UNL     1      26.169  -0.484  54.429  1.00  0.00    -0.191 NA
HETATM   18  C19 UNL     1      21.013   0.358  51.881  1.00  0.00     0.045 A 
BRANCH  16  19
HETATM   19  N4  UNL     1      23.712   0.619  52.101  1.00  0.00    -0.354 N 
HETATM   20  H6  UNL     1      24.233  -0.088  51.546  1.00  0.00     0.166 HD
BRANCH  19  21
HETATM   21  C12 UNL     1      23.720   2.036  51.913  1.00  0.00     0.033 A 
HETATM   22  C13 UNL     1      23.845   2.799  53.041  1.00  0.00     0.029 A 
HETATM   23  C14 UNL     1      23.852   4.186  52.849  1.00  0.00     0.004 A 
HETATM   24  C15 UNL     1      23.735   4.698  51.568  1.00  0.00     0.019 A 
HETATM   25  C16 UNL     1      23.612   3.868  50.470  1.00  0.00     0.013 A 
HETATM   26 BR1  UNL     1      23.452   4.560  48.702  1.00  0.00    -0.051 Br
HETATM   27  C17 UNL     1      23.600   2.477  50.610  1.00  0.00     0.048 A 
ENDBRANCH  19  21
ENDBRANCH  16  19
ENDBRANCH   5   7
TORSDOF 3
ENDMDL
MODEL 7
REMARK VINA RESULT:      -8.0      2.984      5.622
REMARK  3 active torsions:
REMARK  status: ('A' for Active; 'I' for Inactive)
REMARK       I    between atoms: C3_3  and  N1_5 
REMARK    1  A    between atoms: N1_5  and  C4_6 
REMARK    2  A    between atoms: C11_15  and  N4_16 
REMARK    3  A    between atoms: N4_16  and  C12_17 
ROOT
HETATM    1  C1  UNL     1      23.836   6.582  47.848  1.00  0.00     0.022 C 
HETATM    2  C2  UNL     1      24.089   5.650  48.571  1.00  0.00    -0.016 C 
HETATM    3  C3  UNL     1      24.373   4.528  49.449  1.00  0.00     0.300 C 
HETATM    4  O1  UNL     1      23.941   3.360  49.205  1.00  0.00    -0.258 OA
HETATM    5  N1  UNL     1      25.163   4.686  50.647  1.00  0.00    -0.316 N 
HETATM    6  H2  UNL     1      25.517   5.647  50.844  1.00  0.00     0.170 HD
ENDROOT
BRANCH   5   7
HETATM    7  C4  UNL     1      25.252   3.391  51.280  1.00  0.00     0.036 A 
HETATM    8  C5  UNL     1      26.507   2.825  51.165  1.00  0.00     0.032 A 
HETATM    9  C6  UNL     1      26.785   1.588  51.708  1.00  0.00     0.035 A 
HETATM   10  C7  UNL     1      25.758   0.944  52.369  1.00  0.00     0.069 A 
HETATM   11  N2  UNL     1      25.998  -0.277  52.916  1.00  0.00    -0.259 NA
HETATM   12  C18 UNL     1      24.494   1.502  52.492  1.00  0.00     0.023 A 
HETATM   13  C8  UNL     1      25.037  -0.954  53.573  1.00  0.00     0.142 A 
HETATM   14  C9  UNL     1      23.774  -0.384  53.690  1.00  0.00     0.089 A 
HETATM   15  C10 UNL     1      22.720  -1.081  54.386  1.00  0.00     0.103 C 
HETATM   16  C11 UNL     1      23.465   0.863  53.151  1.00  0.00     0.067 A 
HETATM   17  N3  UNL     1      21.862  -1.641  54.941  1.00  0.00    -0.191 NA
HETATM   18  C19 UNL     1      24.229   2.741  51.943  1.00  0.00     0.045 A 
BRANCH  16  19
HETATM   19  N4  UNL     1      22.206   1.471  53.246  1.00  0.00    -0.354 N 
HETATM   20  H6  UNL     1      22.190   1.949  54.169  1.00  0.00     0.166 HD
BRANCH  19  21
HETATM   21  C12 UNL     1      21.159   1.442  52.274  1.00  0.00     0.033 A 
HETATM   22  C13 UNL     1      21.253   0.480  51.307  1.00  0.00     0.029 A 
HETATM   23  C14 UNL     1      20.224   0.458  50.358  1.00  0.00     0.004 A 
HETATM   24  C15 UNL     1      19.196   1.382  50.445  1.00  0.00     0.019 A 
HETATM   25  C16 UNL     1      19.163   2.328  51.451  1.00  0.00     0.013 A 
HETATM   26 BR1  UNL     1      17.753   3.604  51.582  1.00  0.00    -0.051 Br
HETATM   27  C17 UNL     1      20.167   2.391  52.422  1.00  0.00     0.048 A 
ENDBRANCH  19  21
ENDBRANCH  16  19
ENDBRANCH   5   7
TORSDOF 3
ENDMDL
MODEL 8
REMARK VINA RESULT:      -8.0      2.378      5.730
REMARK  3 active torsions:
REMARK  status: ('A' for Active; 'I' for Inactive)
REMARK       I    between atoms: C3_3  and  N1_5 
REMARK    1  A    between atoms: N1_5  and  C4_6 
REMARK    2  A    between atoms: C11_15  and  N4_16 
REMARK    3  A    between atoms: N4_16  and  C12_17 
ROOT
HETATM    1  C1  UNL     1      18.018   1.939  49.396  1.00  0.00     0.022 C 
HETATM    2  C2  UNL     1      18.994   1.631  50.034  1.00  0.00    -0.016 C 
HETATM    3  C3  UNL     1      20.166   1.240  50.799  1.00  0.00     0.300 C 
HETATM    4  O1  UNL     1      21.207   0.775  50.241  1.00  0.00    -0.258 OA
HETATM    5  N1  UNL     1      20.205   1.359  52.237  1.00  0.00    -0.316 N 
HETATM    6  H2  UNL     1      19.349   1.742  52.693  1.00  0.00     0.170 HD
ENDROOT
BRANCH   5   7
HETATM    7  C4  UNL     1      21.498   0.888  52.675  1.00  0.00     0.036 A 
HETATM    8  C5  UNL     1      21.484  -0.442  53.048  1.00  0.00     0.032 A 
HETATM    9  C6  UNL     1      22.628  -1.071  53.496  1.00  0.00     0.035 A 
HETATM   10  C7  UNL     1      23.782  -0.315  53.553  1.00  0.00     0.069 A 
HETATM   11  N2  UNL     1      24.926  -0.903  53.989  1.00  0.00    -0.259 NA
HETATM   12  C18 UNL     1      23.809   1.021  53.181  1.00  0.00     0.023 A 
HETATM   13  C8  UNL     1      26.084  -0.218  54.067  1.00  0.00     0.142 A 
HETATM   14  C9  UNL     1      26.098   1.121  53.691  1.00  0.00     0.089 A 
HETATM   15  C10 UNL     1      27.320   1.886  53.762  1.00  0.00     0.103 C 
HETATM   16  C11 UNL     1      24.958   1.781  53.237  1.00  0.00     0.067 A 
HETATM   17  N3  UNL     1      28.300   2.511  53.824  1.00  0.00    -0.191 NA
HETATM   18  C19 UNL     1      22.657   1.639  52.735  1.00  0.00     0.045 A 
BRANCH  16  19
HETATM   19  N4  UNL     1      24.931   3.127  52.849  1.00  0.00    -0.354 N 
HETATM   20  H6  UNL     1      24.793   3.673  53.722  1.00  0.00     0.166 HD
BRANCH  19  21
HETATM   21  C12 UNL     1      25.065   3.644  51.523  1.00  0.00     0.033 A 
HETATM   22  C13 UNL     1      26.088   3.136  50.771  1.00  0.00     0.029 A 
HETATM   23  C14 UNL     1      26.213   3.648  49.475  1.00  0.00     0.004 A 
HETATM   24  C15 UNL     1      25.323   4.612  49.033  1.00  0.00     0.019 A 
HETATM   25  C16 UNL     1      24.310   5.082  49.846  1.00  0.00     0.013 A 
HETATM   26 BR1  UNL     1      23.077   6.407  49.250  1.00  0.00    -0.051 Br
HETATM   27  C17 UNL     1      24.144   4.602  51.149  1.00  0.00     0.048 A 
ENDBRANCH  19  21
ENDBRANCH  16  19
ENDBRANCH   5   7
TORSDOF 3
ENDMDL
MODEL 9
REMARK VINA RESULT:      -8.0      2.813      3.986
REMARK  3 active torsions:
REMARK  status: ('A' for Active; 'I' for Inactive)
REMARK       I    between atoms: C3_3  and  N1_5 
REMARK    1  A    between atoms: N1_5  and  C4_6 
REMARK    2  A    between atoms: C11_15  and  N4_16 
REMARK    3  A    between atoms: N4_16  and  C12_17 
ROOT
HETATM    1  C1  UNL     1      27.775   5.243  48.428  1.00  0.00     0.022 C 
HETATM    2  C2  UNL     1      27.193   4.433  49.105  1.00  0.00    -0.016 C 
HETATM    3  C3  UNL     1      26.473   3.471  49.922  1.00  0.00     0.300 C 
HETATM    4  O1  UNL     1      25.489   2.810  49.470  1.00  0.00    -0.258 OA
HETATM    5  N1  UNL     1      26.842   3.219  51.295  1.00  0.00    -0.316 N 
HETATM    6  H2  UNL     1      27.651   3.762  51.664  1.00  0.00     0.170 HD
ENDROOT
BRANCH   5   7
HETATM    7  C4  UNL     1      25.934   2.220  51.810  1.00  0.00     0.036 A 
HETATM    8  C5  UNL     1      26.583   1.208  52.490  1.00  0.00     0.032 A 
HETATM    9  C6  UNL     1      25.882   0.163  53.055  1.00  0.00     0.035 A 
HETATM   10  C7  UNL     1      24.509   0.173  52.911  1.00  0.00     0.069 A 
HETATM   11  N2  UNL     1      23.788  -0.842  53.455  1.00  0.00    -0.259 NA
HETATM   12  C18 UNL     1      23.846   1.183  52.230  1.00  0.00     0.023 A 
HETATM   13  C8  UNL     1      22.446  -0.887  53.347  1.00  0.00     0.142 A 
HETATM   14  C9  UNL     1      21.793   0.132  52.663  1.00  0.00     0.089 A 
HETATM   15  C10 UNL     1      20.356   0.115  52.528  1.00  0.00     0.103 C 
HETATM   16  C11 UNL     1      22.475   1.199  52.082  1.00  0.00     0.067 A 
HETATM   17  N3  UNL     1      19.197   0.105  52.408  1.00  0.00    -0.191 NA
HETATM   18  C19 UNL     1      24.560   2.224  51.669  1.00  0.00     0.045 A 
BRANCH  16  19
HETATM   19  N4  UNL     1      21.854   2.244  51.385  1.00  0.00    -0.354 N 
HETATM   20  H6  UNL     1      21.305   2.772  52.092  1.00  0.00     0.166 HD
BRANCH  19  21
HETATM   21  C12 UNL     1      21.955   2.525  49.988  1.00  0.00     0.033 A 
HETATM   22  C13 UNL     1      21.852   1.456  49.141  1.00  0.00     0.029 A 
HETATM   23  C14 UNL     1      21.952   1.741  47.774  1.00  0.00     0.004 A 
HETATM   24  C15 UNL     1      22.143   3.049  47.361  1.00  0.00     0.019 A 
HETATM   25  C16 UNL     1      22.238   4.084  48.272  1.00  0.00     0.013 A 
HETATM   26 BR1  UNL     1      22.500   5.888  47.717  1.00  0.00    -0.051 Br
HETATM   27  C17 UNL     1      22.145   3.851  49.648  1.00  0.00     0.048 A 
ENDBRANCH  19  21
ENDBRANCH  16  19
ENDBRANCH   5   7
TORSDOF 3
ENDMDL
