MODEL 1
REMARK VINA RESULT:      -9.2      0.000      0.000
REMARK  5 active torsions:
REMARK  status: ('A' for Active; 'I' for Inactive)
REMARK    1  A    between atoms: C2_2  and  C3_3 
REMARK    2  A    between atoms: C3_3  and  C4_4 
REMARK    3  A    between atoms: C3_3  and  N6_23 
REMARK    4  A    between atoms: C4_4  and  C5_5 
REMARK    5  A    between atoms: C14_16  and  N2_17 
ROOT
HETATM    1  C5  UNL     1      26.439   1.437  52.315  1.00  0.00     0.054 C 
HETATM    2  C6  UNL     1      26.817   0.540  51.171  1.00  0.00     0.034 C 
HETATM    3  C7  UNL     1      26.865  -0.617  52.188  1.00  0.00     0.030 C 
HETATM    4  C8  UNL     1      25.960   0.264  53.065  1.00  0.00     0.101 C 
HETATM    5  C9  UNL     1      24.590  -0.222  52.973  1.00  0.00     0.109 C 
HETATM    6  F1  UNL     1      24.346   0.909  53.747  1.00  0.00    -0.210 F 
HETATM    7  C10 UNL     1      23.413  -0.790  52.767  1.00  0.00     0.018 C 
HETATM    8  C11 UNL     1      22.270  -0.182  53.551  1.00  0.00     0.088 C 
HETATM    9  C12 UNL     1      22.054  -1.097  54.738  1.00  0.00     0.032 C 
HETATM   10  N1  UNL     1      20.902  -1.616  54.935  1.00  0.00    -0.304 NA
HETATM   11  C13 UNL     1      23.276  -1.246  55.504  1.00  0.00     0.070 C 
HETATM   12  C14 UNL     1      24.543  -0.906  55.613  1.00  0.00     0.104 C 
HETATM   13  N3  UNL     1      25.759  -0.350  55.416  1.00  0.00    -0.220 NA
HETATM   14  C15 UNL     1      26.451   0.150  54.489  1.00  0.00     0.147 C 
HETATM   15  N4  UNL     1      27.726   0.595  54.896  1.00  0.00    -0.228 NA
HETATM   16  C16 UNL     1      28.361   1.470  54.150  1.00  0.00     0.205 C 
HETATM   17  N5  UNL     1      27.684   1.893  52.974  1.00  0.00    -0.374 N 
HETATM   18  H16 UNL     1      20.167  -1.367  54.243  1.00  0.00     0.186 HD
HETATM   19  H21 UNL     1      28.056   2.677  52.378  1.00  0.00     0.161 HD
ENDROOT
BRANCH   1  20
HETATM   20  C4  UNL     1      25.425   2.481  52.160  1.00  0.00     0.068 C 
BRANCH  20  21
HETATM   21  C3  UNL     1      25.126   3.053  50.772  1.00  0.00     0.225 C 
BRANCH  21  22
HETATM   22  C2  UNL     1      26.307   3.680  50.162  1.00  0.00     0.031 C 
HETATM   23  C1  UNL     1      26.132   4.927  49.334  1.00  0.00     0.007 C 
ENDBRANCH  21  22
BRANCH  21  24
HETATM   24  N6  UNL     1      23.899   3.798  50.857  1.00  0.00     0.096 N 
HETATM   25  C17 UNL     1      22.888   3.513  49.937  1.00  0.00     0.303 C 
HETATM   26  C18 UNL     1      22.188   2.176  50.239  1.00  0.00     0.302 C 
HETATM   27  N7  UNL     1      21.265   2.396  51.345  1.00  0.00     0.087 N 
HETATM   28  C19 UNL     1      19.978   2.740  50.818  1.00  0.00     0.310 C 
HETATM   29  C20 UNL     1      21.822   3.439  52.177  1.00  0.00     0.302 C 
HETATM   30  C21 UNL     1      23.330   3.470  52.192  1.00  0.00     0.303 C 
ENDBRANCH  21  24
ENDBRANCH  20  21
ENDBRANCH   1  20
BRANCH  12  31
HETATM   31  N2  UNL     1      25.293  -1.458  56.720  1.00  0.00    -0.287 NA
HETATM   32  H18 UNL     1      25.878  -2.154  57.257  1.00  0.00     0.125 HD
HETATM   33  H19 UNL     1      25.878  -2.188  57.218  1.00  0.00     0.125 HD
ENDBRANCH  12  31
TORSDOF 5
ENDMDL
MODEL 2
REMARK VINA RESULT:      -8.6      1.877      7.077
REMARK  5 active torsions:
REMARK  status: ('A' for Active; 'I' for Inactive)
REMARK    1  A    between atoms: C2_2  and  C3_3 
REMARK    2  A    between atoms: C3_3  and  C4_4 
REMARK    3  A    between atoms: C3_3  and  N6_23 
REMARK    4  A    between atoms: C4_4  and  C5_5 
REMARK    5  A    between atoms: C14_16  and  N2_17 
ROOT
HETATM    1  C5  UNL     1      22.577   2.130  51.658  1.00  0.00     0.054 C 
HETATM    2  C6  UNL     1      22.136   1.168  50.591  1.00  0.00     0.034 C 
HETATM    3  C7  UNL     1      22.074   2.372  49.631  1.00  0.00     0.030 C 
HETATM    4  C8  UNL     1      23.034   3.063  50.613  1.00  0.00     0.101 C 
HETATM    5  C9  UNL     1      24.383   3.028  50.064  1.00  0.00     0.109 C 
HETATM    6  F1  UNL     1      24.689   3.588  51.301  1.00  0.00    -0.210 F 
HETATM    7  C10 UNL     1      25.532   2.900  49.422  1.00  0.00     0.018 C 
HETATM    8  C11 UNL     1      26.718   3.542  50.110  1.00  0.00     0.088 C 
HETATM    9  C12 UNL     1      26.934   4.865  49.407  1.00  0.00     0.032 C 
HETATM   10  N1  UNL     1      28.071   5.125  48.884  1.00  0.00    -0.304 NA
HETATM   11  C13 UNL     1      25.728   5.671  49.442  1.00  0.00     0.070 C 
HETATM   12  C14 UNL     1      24.479   5.746  49.847  1.00  0.00     0.104 C 
HETATM   13  N3  UNL     1      23.278   5.480  50.409  1.00  0.00    -0.220 NA
HETATM   14  C15 UNL     1      22.579   4.495  50.768  1.00  0.00     0.147 C 
HETATM   15  N4  UNL     1      21.333   4.845  51.329  1.00  0.00    -0.228 NA
HETATM   16  C16 UNL     1      20.710   3.972  52.086  1.00  0.00     0.205 C 
HETATM   17  N5  UNL     1      21.368   2.726  52.270  1.00  0.00    -0.374 N 
HETATM   18  H16 UNL     1      28.796   4.385  48.979  1.00  0.00     0.186 HD
HETATM   19  H21 UNL     1      21.009   2.010  52.954  1.00  0.00     0.161 HD
ENDROOT
BRANCH   1  20
HETATM   20  C4  UNL     1      23.624   1.774  52.617  1.00  0.00     0.068 C 
BRANCH  20  21
HETATM   21  C3  UNL     1      24.214   0.361  52.612  1.00  0.00     0.225 C 
BRANCH  21  22
HETATM   22  C2  UNL     1      23.775  -0.429  53.771  1.00  0.00     0.031 C 
HETATM   23  C1  UNL     1      22.369  -0.971  53.800  1.00  0.00     0.007 C 
ENDBRANCH  21  22
BRANCH  21  24
HETATM   24  N6  UNL     1      25.619   0.472  52.326  1.00  0.00     0.096 N 
HETATM   25  C17 UNL     1      26.365   1.415  53.035  1.00  0.00     0.303 C 
HETATM   26  C18 UNL     1      26.617   0.981  54.490  1.00  0.00     0.302 C 
HETATM   27  N7  UNL     1      27.684  -0.012  54.480  1.00  0.00     0.087 N 
HETATM   28  C19 UNL     1      28.942   0.650  54.654  1.00  0.00     0.310 C 
HETATM   29  C20 UNL     1      27.601  -0.728  53.226  1.00  0.00     0.302 C 
HETATM   30  C21 UNL     1      26.200  -0.850  52.683  1.00  0.00     0.303 C 
ENDBRANCH  21  24
ENDBRANCH  20  21
ENDBRANCH   1  20
BRANCH  12  31
HETATM   31  N2  UNL     1      23.740   6.947  49.526  1.00  0.00    -0.287 NA
HETATM   32  H18 UNL     1      23.444   7.960  49.579  1.00  0.00     0.125 HD
HETATM   33  H19 UNL     1      23.478   7.970  49.616  1.00  0.00     0.125 HD
ENDBRANCH  12  31
TORSDOF 5
ENDMDL
MODEL 3
REMARK VINA RESULT:      -8.0      1.871      4.331
REMARK  5 active torsions:
REMARK  status: ('A' for Active; 'I' for Inactive)
REMARK    1  A    between atoms: C2_2  and  C3_3 
REMARK    2  A    between atoms: C3_3  and  C4_4 
REMARK    3  A    between atoms: C3_3  and  N6_23 
REMARK    4  A    between atoms: C4_4  and  C5_5 
REMARK    5  A    between atoms: C14_16  and  N2_17 
ROOT
HETATM    1  C5  UNL     1      24.160   1.666  51.996  1.00  0.00     0.054 C 
HETATM    2  C6  UNL     1      24.521   2.129  50.613  1.00  0.00     0.034 C 
HETATM    3  C7  UNL     1      25.941   2.396  51.149  1.00  0.00     0.030 C 
HETATM    4  C8  UNL     1      25.584   1.404  52.269  1.00  0.00     0.101 C 
HETATM    5  C9  UNL     1      26.215   0.122  51.987  1.00  0.00     0.109 C 
HETATM    6  F1  UNL     1      25.487  -0.260  53.110  1.00  0.00    -0.210 F 
HETATM    7  C10 UNL     1      26.852  -0.961  51.573  1.00  0.00     0.018 C 
HETATM    8  C11 UNL     1      26.751  -2.151  52.504  1.00  0.00     0.088 C 
HETATM    9  C12 UNL     1      28.050  -2.174  53.281  1.00  0.00     0.032 C 
HETATM   10  N1  UNL     1      28.780  -3.223  53.261  1.00  0.00    -0.304 NA
HETATM   11  C13 UNL     1      28.267  -0.912  53.963  1.00  0.00     0.070 C 
HETATM   12  C14 UNL     1      27.792   0.290  54.207  1.00  0.00     0.104 C 
HETATM   13  N3  UNL     1      27.017   1.398  54.241  1.00  0.00    -0.220 NA
HETATM   14  C15 UNL     1      26.118   1.966  53.566  1.00  0.00     0.147 C 
HETATM   15  N4  UNL     1      25.651   3.173  54.126  1.00  0.00    -0.228 NA
HETATM   16  C16 UNL     1      24.479   3.635  53.753  1.00  0.00     0.205 C 
HETATM   17  N5  UNL     1      23.779   2.853  52.795  1.00  0.00    -0.374 N 
HETATM   18  H16 UNL     1      28.421  -4.017  52.692  1.00  0.00     0.186 HD
HETATM   19  H21 UNL     1      22.785   3.075  52.525  1.00  0.00     0.161 HD
ENDROOT
BRANCH   1  20
HETATM   20  C4  UNL     1      23.304   0.499  52.209  1.00  0.00     0.068 C 
BRANCH  20  21
HETATM   21  C3  UNL     1      22.158   0.569  53.222  1.00  0.00     0.225 C 
BRANCH  21  22
HETATM   22  C2  UNL     1      22.378  -0.319  54.372  1.00  0.00     0.031 C 
HETATM   23  C1  UNL     1      21.554  -1.575  54.499  1.00  0.00     0.007 C 
ENDBRANCH  21  22
BRANCH  21  24
HETATM   24  N6  UNL     1      20.921   0.485  52.493  1.00  0.00     0.096 N 
HETATM   25  C17 UNL     1      20.052   1.577  52.541  1.00  0.00     0.303 C 
HETATM   26  C18 UNL     1      20.559   2.759  51.695  1.00  0.00     0.302 C 
HETATM   27  N7  UNL     1      20.277   2.460  50.297  1.00  0.00     0.087 N 
HETATM   28  C19 UNL     1      18.997   3.001  49.951  1.00  0.00     0.310 C 
HETATM   29  C20 UNL     1      20.336   1.024  50.138  1.00  0.00     0.302 C 
HETATM   30  C21 UNL     1      21.312   0.345  51.065  1.00  0.00     0.303 C 
ENDBRANCH  21  24
ENDBRANCH  20  21
ENDBRANCH   1  20
BRANCH  12  31
HETATM   31  N2  UNL     1      28.575   1.162  55.055  1.00  0.00    -0.287 NA
HETATM   32  H18 UNL     1      28.878   2.057  55.528  1.00  0.00     0.125 HD
HETATM   33  H19 UNL     1      28.840   2.084  55.505  1.00  0.00     0.125 HD
ENDBRANCH  12  31
TORSDOF 5
ENDMDL
MODEL 4
REMARK VINA RESULT:      -7.7      2.319      5.707
REMARK  5 active torsions:
REMARK  status: ('A' for Active; 'I' for Inactive)
REMARK    1  A    between atoms: C2_2  and  C3_3 
REMARK    2  A    between atoms: C3_3  and  C4_4 
REMARK    3  A    between atoms: C3_3  and  N6_23 
REMARK    4  A    between atoms: C4_4  and  C5_5 
REMARK    5  A    between atoms: C14_16  and  N2_17 
ROOT
HETATM    1  C5  UNL     1      24.348   1.392  52.243  1.00  0.00     0.054 C 
HETATM    2  C6  UNL     1      24.024   1.991  53.582  1.00  0.00     0.034 C 
HETATM    3  C7  UNL     1      25.147   3.013  53.317  1.00  0.00     0.030 C 
HETATM    4  C8  UNL     1      24.958   2.668  51.831  1.00  0.00     0.101 C 
HETATM    5  C9  UNL     1      24.197   3.731  51.188  1.00  0.00     0.109 C 
HETATM    6  F1  UNL     1      24.264   2.857  50.108  1.00  0.00    -0.210 F 
HETATM    7  C10 UNL     1      23.499   4.776  50.776  1.00  0.00     0.018 C 
HETATM    8  C11 UNL     1      23.179   4.782  49.296  1.00  0.00     0.088 C 
HETATM    9  C12 UNL     1      24.189   5.714  48.662  1.00  0.00     0.032 C 
HETATM   10  N1  UNL     1      23.783   6.711  47.972  1.00  0.00    -0.304 NA
HETATM   11  C13 UNL     1      25.543   5.294  48.968  1.00  0.00     0.070 C 
HETATM   12  C14 UNL     1      26.297   4.408  49.583  1.00  0.00     0.104 C 
HETATM   13  N3  UNL     1      26.731   3.348  50.302  1.00  0.00    -0.220 NA
HETATM   14  C15 UNL     1      26.330   2.568  51.206  1.00  0.00     0.147 C 
HETATM   15  N4  UNL     1      27.274   1.590  51.585  1.00  0.00    -0.228 NA
HETATM   16  C16 UNL     1      26.854   0.507  52.197  1.00  0.00     0.205 C 
HETATM   17  N5  UNL     1      25.453   0.424  52.426  1.00  0.00    -0.374 N 
HETATM   18  H16 UNL     1      22.752   6.818  47.891  1.00  0.00     0.186 HD
HETATM   19  H21 UNL     1      25.008  -0.454  52.800  1.00  0.00     0.161 HD
ENDROOT
BRANCH   1  20
HETATM   20  C4  UNL     1      23.293   0.934  51.339  1.00  0.00     0.068 C 
BRANCH  20  21
HETATM   21  C3  UNL     1      21.950   0.469  51.908  1.00  0.00     0.225 C 
BRANCH  21  22
HETATM   22  C2  UNL     1      22.097  -0.676  52.818  1.00  0.00     0.031 C 
HETATM   23  C1  UNL     1      21.100  -0.861  53.933  1.00  0.00     0.007 C 
ENDBRANCH  21  22
BRANCH  21  24
HETATM   24  N6  UNL     1      21.014   0.388  50.819  1.00  0.00     0.096 N 
HETATM   25  C17 UNL     1      19.795   1.057  50.945  1.00  0.00     0.303 C 
HETATM   26  C18 UNL     1      19.952   2.582  50.798  1.00  0.00     0.302 C 
HETATM   27  N7  UNL     1      20.091   2.880  49.378  1.00  0.00     0.087 N 
HETATM   28  C19 UNL     1      18.795   3.145  48.827  1.00  0.00     0.310 C 
HETATM   29  C20 UNL     1      20.738   1.747  48.755  1.00  0.00     0.302 C 
HETATM   30  C21 UNL     1      21.700   1.019  49.661  1.00  0.00     0.303 C 
ENDBRANCH  21  24
ENDBRANCH  20  21
ENDBRANCH   1  20
BRANCH  12  31
HETATM   31  N2  UNL     1      27.732   4.570  49.495  1.00  0.00    -0.287 NA
HETATM   32  H18 UNL     1      28.693   4.571  49.057  1.00  0.00     0.125 HD
HETATM   33  H19 UNL     1      28.675   4.556  49.011  1.00  0.00     0.125 HD
ENDBRANCH  12  31
TORSDOF 5
ENDMDL
MODEL 5
REMARK VINA RESULT:      -7.7      3.163      7.610
REMARK  5 active torsions:
REMARK  status: ('A' for Active; 'I' for Inactive)
REMARK    1  A    between atoms: C2_2  and  C3_3 
REMARK    2  A    between atoms: C3_3  and  C4_4 
REMARK    3  A    between atoms: C3_3  and  N6_23 
REMARK    4  A    between atoms: C4_4  and  C5_5 
REMARK    5  A    between atoms: C14_16  and  N2_17 
ROOT
HETATM    1  C5  UNL     1      23.197   4.516  50.886  1.00  0.00     0.054 C 
HETATM    2  C6  UNL     1      21.887   4.571  51.620  1.00  0.00     0.034 C 
HETATM    3  C7  UNL     1      21.494   5.733  50.687  1.00  0.00     0.030 C 
HETATM    4  C8  UNL     1      22.567   5.183  49.733  1.00  0.00     0.101 C 
HETATM    5  C9  UNL     1      21.916   4.446  48.658  1.00  0.00     0.109 C 
HETATM    6  F1  UNL     1      23.236   4.162  48.320  1.00  0.00    -0.210 F 
HETATM    7  C10 UNL     1      21.162   3.817  47.772  1.00  0.00     0.018 C 
HETATM    8  C11 UNL     1      21.925   3.188  46.625  1.00  0.00     0.088 C 
HETATM    9  C12 UNL     1      21.785   4.148  45.464  1.00  0.00     0.032 C 
HETATM   10  N1  UNL     1      21.296   3.736  44.357  1.00  0.00    -0.304 NA
HETATM   11  C13 UNL     1      22.259   5.470  45.827  1.00  0.00     0.070 C 
HETATM   12  C14 UNL     1      22.785   6.217  46.774  1.00  0.00     0.104 C 
HETATM   13  N3  UNL     1      23.314   6.655  47.939  1.00  0.00    -0.220 NA
HETATM   14  C15 UNL     1      23.322   6.362  49.164  1.00  0.00     0.147 C 
HETATM   15  N4  UNL     1      24.099   7.229  49.960  1.00  0.00    -0.228 NA
HETATM   16  C16 UNL     1      24.506   6.815  51.138  1.00  0.00     0.205 C 
HETATM   17  N5  UNL     1      24.114   5.499  51.506  1.00  0.00    -0.374 N 
HETATM   18  H16 UNL     1      21.016   2.734  44.329  1.00  0.00     0.186 HD
HETATM   19  H21 UNL     1      24.491   5.035  52.372  1.00  0.00     0.161 HD
ENDROOT
BRANCH   1  20
HETATM   20  C4  UNL     1      23.825   3.240  50.546  1.00  0.00     0.068 C 
BRANCH  20  21
HETATM   21  C3  UNL     1      25.322   3.036  50.797  1.00  0.00     0.225 C 
BRANCH  21  22
HETATM   22  C2  UNL     1      26.117   3.185  49.570  1.00  0.00     0.031 C 
HETATM   23  C1  UNL     1      26.698   4.534  49.230  1.00  0.00     0.007 C 
ENDBRANCH  21  22
BRANCH  21  24
HETATM   24  N6  UNL     1      25.477   1.852  51.598  1.00  0.00     0.096 N 
HETATM   25  C17 UNL     1      26.743   1.267  51.673  1.00  0.00     0.303 C 
HETATM   26  C18 UNL     1      27.708   2.082  52.552  1.00  0.00     0.302 C 
HETATM   27  N7  UNL     1      27.382   1.807  53.946  1.00  0.00     0.087 N 
HETATM   28  C19 UNL     1      28.181   0.710  54.406  1.00  0.00     0.310 C 
HETATM   29  C20 UNL     1      25.964   1.529  54.015  1.00  0.00     0.302 C 
HETATM   30  C21 UNL     1      25.145   2.269  52.987  1.00  0.00     0.303 C 
ENDBRANCH  21  24
ENDBRANCH  20  21
ENDBRANCH   1  20
BRANCH  12  31
HETATM   31  N2  UNL     1      23.043   7.607  46.467  1.00  0.00    -0.287 NA
HETATM   32  H18 UNL     1      23.179   8.640  46.640  1.00  0.00     0.125 HD
HETATM   33  H19 UNL     1      23.171   8.635  46.691  1.00  0.00     0.125 HD
ENDBRANCH  12  31
TORSDOF 5
ENDMDL
MODEL 6
REMARK VINA RESULT:      -7.6      1.712      5.726
REMARK  5 active torsions:
REMARK  status: ('A' for Active; 'I' for Inactive)
REMARK    1  A    between atoms: C2_2  and  C3_3 
REMARK    2  A    between atoms: C3_3  and  C4_4 
REMARK    3  A    between atoms: C3_3  and  N6_23 
REMARK    4  A    between atoms: C4_4  and  C5_5 
REMARK    5  A    between atoms: C14_16  and  N2_17 
ROOT
HETATM    1  C5  UNL     1      23.072   3.387  50.968  1.00  0.00     0.054 C 
HETATM    2  C6  UNL     1      23.169   4.442  52.033  1.00  0.00     0.034 C 
HETATM    3  C7  UNL     1      21.638   4.339  52.175  1.00  0.00     0.030 C 
HETATM    4  C8  UNL     1      21.784   2.949  51.533  1.00  0.00     0.101 C 
HETATM    5  C9  UNL     1      21.685   1.932  52.571  1.00  0.00     0.109 C 
HETATM    6  F1  UNL     1      21.991   1.094  51.503  1.00  0.00    -0.210 F 
HETATM    7  C10 UNL     1      21.580   1.154  53.635  1.00  0.00     0.018 C 
HETATM    8  C11 UNL     1      21.627  -0.331  53.341  1.00  0.00     0.088 C 
HETATM    9  C12 UNL     1      20.187  -0.797  53.356  1.00  0.00     0.032 C 
HETATM   10  N1  UNL     1      19.837  -1.743  54.142  1.00  0.00    -0.304 NA
HETATM   11  C13 UNL     1      19.389  -0.038  52.412  1.00  0.00     0.070 C 
HETATM   12  C14 UNL     1      19.386   0.919  51.509  1.00  0.00     0.104 C 
HETATM   13  N3  UNL     1      19.754   1.911  50.668  1.00  0.00    -0.220 NA
HETATM   14  C15 UNL     1      20.655   2.783  50.542  1.00  0.00     0.147 C 
HETATM   15  N4  UNL     1      20.521   3.590  49.393  1.00  0.00    -0.228 NA
HETATM   16  C16 UNL     1      21.573   4.236  48.945  1.00  0.00     0.205 C 
HETATM   17  N5  UNL     1      22.775   4.056  49.681  1.00  0.00    -0.374 N 
HETATM   18  H16 UNL     1      20.590  -2.140  54.739  1.00  0.00     0.186 HD
HETATM   19  H21 UNL     1      23.694   4.433  49.334  1.00  0.00     0.161 HD
ENDROOT
BRANCH   1  20
HETATM   20  C4  UNL     1      24.058   2.310  50.871  1.00  0.00     0.068 C 
BRANCH  20  21
HETATM   21  C3  UNL     1      25.390   2.427  51.618  1.00  0.00     0.225 C 
BRANCH  21  22
HETATM   22  C2  UNL     1      26.396   3.172  50.849  1.00  0.00     0.031 C 
HETATM   23  C1  UNL     1      26.274   3.234  49.347  1.00  0.00     0.007 C 
ENDBRANCH  21  22
BRANCH  21  24
HETATM   24  N6  UNL     1      25.719   1.127  52.137  1.00  0.00     0.096 N 
HETATM   25  C17 UNL     1      27.054   0.717  52.093  1.00  0.00     0.303 C 
HETATM   26  C18 UNL     1      27.917   1.440  53.143  1.00  0.00     0.302 C 
HETATM   27  N7  UNL     1      27.658   0.820  54.436  1.00  0.00     0.087 N 
HETATM   28  C19 UNL     1      28.607  -0.232  54.649  1.00  0.00     0.310 C 
HETATM   29  C20 UNL     1      26.293   0.344  54.426  1.00  0.00     0.302 C 
HETATM   30  C21 UNL     1      25.361   1.175  53.580  1.00  0.00     0.303 C 
ENDBRANCH  21  24
ENDBRANCH  20  21
ENDBRANCH   1  20
BRANCH  12  31
HETATM   31  N2  UNL     1      18.129   1.227  50.862  1.00  0.00    -0.287 NA
HETATM   32  H18 UNL     1      17.462   1.454  50.076  1.00  0.00     0.125 HD
HETATM   33  H19 UNL     1      17.499   1.453  50.040  1.00  0.00     0.125 HD
ENDBRANCH  12  31
TORSDOF 5
ENDMDL
MODEL 7
REMARK VINA RESULT:      -7.6      2.063      5.270
REMARK  5 active torsions:
REMARK  status: ('A' for Active; 'I' for Inactive)
REMARK    1  A    between atoms: C2_2  and  C3_3 
REMARK    2  A    between atoms: C3_3  and  C4_4 
REMARK    3  A    between atoms: C3_3  and  N6_23 
REMARK    4  A    between atoms: C4_4  and  C5_5 
REMARK    5  A    between atoms: C14_16  and  N2_17 
ROOT
HETATM    1  C5  UNL     1      21.165   2.649  50.539  1.00  0.00     0.054 C 
HETATM    2  C6  UNL     1      20.778   3.870  51.323  1.00  0.00     0.034 C 
HETATM    3  C7  UNL     1      20.644   2.950  52.553  1.00  0.00     0.030 C 
HETATM    4  C8  UNL     1      21.565   1.983  51.790  1.00  0.00     0.101 C 
HETATM    5  C9  UNL     1      22.912   2.079  52.336  1.00  0.00     0.109 C 
HETATM    6  F1  UNL     1      23.188   1.212  51.283  1.00  0.00    -0.210 F 
HETATM    7  C10 UNL     1      24.064   2.300  52.946  1.00  0.00     0.018 C 
HETATM    8  C11 UNL     1      25.213   1.441  52.460  1.00  0.00     0.088 C 
HETATM    9  C12 UNL     1      25.350   0.327  53.475  1.00  0.00     0.032 C 
HETATM   10  N1  UNL     1      26.468   0.143  54.066  1.00  0.00    -0.304 NA
HETATM   11  C13 UNL     1      24.100  -0.395  53.621  1.00  0.00     0.070 C 
HETATM   12  C14 UNL     1      22.849  -0.499  53.226  1.00  0.00     0.104 C 
HETATM   13  N3  UNL     1      21.667  -0.316  52.596  1.00  0.00    -0.220 NA
HETATM   14  C15 UNL     1      21.027   0.585  51.990  1.00  0.00     0.147 C 
HETATM   15  N4  UNL     1      19.765   0.175  51.514  1.00  0.00    -0.228 NA
HETATM   16  C16 UNL     1      19.195   0.865  50.552  1.00  0.00     0.205 C 
HETATM   17  N5  UNL     1      19.925   1.987  50.073  1.00  0.00    -0.374 N 
HETATM   18  H16 UNL     1      27.235   0.794  53.801  1.00  0.00     0.186 HD
HETATM   19  H21 UNL     1      19.610   2.527  49.227  1.00  0.00     0.161 HD
ENDROOT
BRANCH   1  20
HETATM   20  C4  UNL     1      22.233   2.694  49.539  1.00  0.00     0.068 C 
BRANCH  20  21
HETATM   21  C3  UNL     1      22.162   3.709  48.395  1.00  0.00     0.225 C 
BRANCH  21  22
HETATM   22  C2  UNL     1      21.531   3.149  47.192  1.00  0.00     0.031 C 
HETATM   23  C1  UNL     1      21.883   3.722  45.843  1.00  0.00     0.007 C 
ENDBRANCH  21  22
BRANCH  21  24
HETATM   24  N6  UNL     1      23.450   4.339  48.285  1.00  0.00     0.096 N 
HETATM   25  C17 UNL     1      23.519   5.728  48.416  1.00  0.00     0.303 C 
HETATM   26  C18 UNL     1      23.334   6.183  49.875  1.00  0.00     0.302 C 
HETATM   27  N7  UNL     1      24.590   5.949  50.577  1.00  0.00     0.087 N 
HETATM   28  C19 UNL     1      25.395   7.131  50.504  1.00  0.00     0.310 C 
HETATM   29  C20 UNL     1      25.225   4.804  49.964  1.00  0.00     0.302 C 
HETATM   30  C21 UNL     1      24.256   3.791  49.409  1.00  0.00     0.303 C 
ENDBRANCH  21  24
ENDBRANCH  20  21
ENDBRANCH   1  20
BRANCH  12  31
HETATM   31  N2  UNL     1      22.041  -1.539  53.825  1.00  0.00    -0.287 NA
HETATM   32  H18 UNL     1      21.704  -2.217  54.561  1.00  0.00     0.125 HD
HETATM   33  H19 UNL     1      21.739  -2.202  54.595  1.00  0.00     0.125 HD
ENDBRANCH  12  31
TORSDOF 5
ENDMDL
MODEL 8
REMARK VINA RESULT:      -7.6      1.894      6.186
REMARK  5 active torsions:
REMARK  status: ('A' for Active; 'I' for Inactive)
REMARK    1  A    between atoms: C2_2  and  C3_3 
REMARK    2  A    between atoms: C3_3  and  C4_4 
REMARK    3  A    between atoms: C3_3  and  N6_23 
REMARK    4  A    between atoms: C4_4  and  C5_5 
REMARK    5  A    between atoms: C14_16  and  N2_17 
ROOT
HETATM    1  C5  UNL     1      23.544   3.390  52.069  1.00  0.00     0.054 C 
HETATM    2  C6  UNL     1      23.133   4.703  52.671  1.00  0.00     0.034 C 
HETATM    3  C7  UNL     1      22.179   4.873  51.473  1.00  0.00     0.030 C 
HETATM    4  C8  UNL     1      22.275   3.346  51.323  1.00  0.00     0.101 C 
HETATM    5  C9  UNL     1      21.066   2.738  51.864  1.00  0.00     0.109 C 
HETATM    6  F1  UNL     1      21.767   1.568  51.585  1.00  0.00    -0.210 F 
HETATM    7  C10 UNL     1      19.917   2.362  52.399  1.00  0.00     0.018 C 
HETATM    8  C11 UNL     1      19.658   0.870  52.362  1.00  0.00     0.088 C 
HETATM    9  C12 UNL     1      18.725   0.646  51.192  1.00  0.00     0.032 C 
HETATM   10  N1  UNL     1      17.604   0.060  51.379  1.00  0.00    -0.304 NA
HETATM   11  C13 UNL     1      19.297   1.172  49.967  1.00  0.00     0.070 C 
HETATM   12  C14 UNL     1      20.326   1.782  49.418  1.00  0.00     0.104 C 
HETATM   13  N3  UNL     1      21.516   2.390  49.212  1.00  0.00    -0.220 NA
HETATM   14  C15 UNL     1      22.390   3.037  49.849  1.00  0.00     0.147 C 
HETATM   15  N4  UNL     1      23.489   3.447  49.065  1.00  0.00    -0.228 NA
HETATM   16  C16 UNL     1      24.615   3.759  49.665  1.00  0.00     0.205 C 
HETATM   17  N5  UNL     1      24.616   3.651  51.082  1.00  0.00    -0.374 N 
HETATM   18  H16 UNL     1      17.401  -0.231  52.357  1.00  0.00     0.186 HD
HETATM   19  H21 UNL     1      25.502   3.761  51.641  1.00  0.00     0.161 HD
ENDROOT
BRANCH   1  20
HETATM   20  C4  UNL     1      23.770   2.208  52.902  1.00  0.00     0.068 C 
BRANCH  20  21
HETATM   21  C3  UNL     1      24.489   0.990  52.317  1.00  0.00     0.225 C 
BRANCH  21  22
HETATM   22  C2  UNL     1      23.976  -0.275  52.864  1.00  0.00     0.031 C 
HETATM   23  C1  UNL     1      22.889  -0.237  53.907  1.00  0.00     0.007 C 
ENDBRANCH  21  22
BRANCH  21  24
HETATM   24  N6  UNL     1      25.902   1.252  52.355  1.00  0.00     0.096 N 
HETATM   25  C17 UNL     1      26.455   1.718  53.550  1.00  0.00     0.303 C 
HETATM   26  C18 UNL     1      26.554   0.610  54.615  1.00  0.00     0.302 C 
HETATM   27  N7  UNL     1      27.702  -0.224  54.285  1.00  0.00     0.087 N 
HETATM   28  C19 UNL     1      28.857   0.279  54.966  1.00  0.00     0.310 C 
HETATM   29  C20 UNL     1      27.854  -0.208  52.847  1.00  0.00     0.302 C 
HETATM   30  C21 UNL     1      26.555  -0.059  52.096  1.00  0.00     0.303 C 
ENDBRANCH  21  24
ENDBRANCH  20  21
ENDBRANCH   1  20
BRANCH  12  31
HETATM   31  N2  UNL     1      20.271   2.046  47.997  1.00  0.00    -0.287 NA
HETATM   32  H18 UNL     1      19.840   2.212  47.047  1.00  0.00     0.125 HD
HETATM   33  H19 UNL     1      19.792   2.207  47.065  1.00  0.00     0.125 HD
ENDBRANCH  12  31
TORSDOF 5
ENDMDL
MODEL 9
REMARK VINA RESULT:      -7.6      2.371      4.812
REMARK  5 active torsions:
REMARK  status: ('A' for Active; 'I' for Inactive)
REMARK    1  A    between atoms: C2_2  and  C3_3 
REMARK    2  A    between atoms: C3_3  and  C4_4 
REMARK    3  A    between atoms: C3_3  and  N6_23 
REMARK    4  A    between atoms: C4_4  and  C5_5 
REMARK    5  A    between atoms: C14_16  and  N2_17 
ROOT
HETATM    1  C5  UNL     1      23.217   3.666  51.223  1.00  0.00     0.054 C 
HETATM    2  C6  UNL     1      23.690   4.840  52.032  1.00  0.00     0.034 C 
HETATM    3  C7  UNL     1      23.476   3.971  53.287  1.00  0.00     0.030 C 
HETATM    4  C8  UNL     1      23.576   2.768  52.334  1.00  0.00     0.101 C 
HETATM    5  C9  UNL     1      24.897   2.167  52.463  1.00  0.00     0.109 C 
HETATM    6  F1  UNL     1      24.426   1.383  51.414  1.00  0.00    -0.210 F 
HETATM    7  C10 UNL     1      26.132   1.761  52.704  1.00  0.00     0.018 C 
HETATM    8  C11 UNL     1      26.550   0.519  51.946  1.00  0.00     0.088 C 
HETATM    9  C12 UNL     1      26.411  -0.626  52.925  1.00  0.00     0.032 C 
HETATM   10  N1  UNL     1      27.420  -1.371  53.176  1.00  0.00    -0.304 NA
HETATM   11  C13 UNL     1      25.063  -0.690  53.457  1.00  0.00     0.070 C 
HETATM   12  C14 UNL     1      23.860  -0.157  53.445  1.00  0.00     0.104 C 
HETATM   13  N3  UNL     1      22.787   0.620  53.175  1.00  0.00    -0.220 NA
HETATM   14  C15 UNL     1      22.516   1.771  52.741  1.00  0.00     0.147 C 
HETATM   15  N4  UNL     1      21.136   2.050  52.667  1.00  0.00    -0.228 NA
HETATM   16  C16 UNL     1      20.725   3.019  51.882  1.00  0.00     0.205 C 
HETATM   17  N5  UNL     1      21.739   3.711  51.165  1.00  0.00    -0.374 N 
HETATM   18  H16 UNL     1      28.298  -1.131  52.673  1.00  0.00     0.186 HD
HETATM   19  H21 UNL     1      21.501   4.419  50.422  1.00  0.00     0.161 HD
ENDROOT
BRANCH   1  20
HETATM   20  C4  UNL     1      23.857   3.308  49.957  1.00  0.00     0.068 C 
BRANCH  20  21
HETATM   21  C3  UNL     1      24.408   4.407  49.044  1.00  0.00     0.225 C 
BRANCH  21  22
HETATM   22  C2  UNL     1      25.810   4.730  49.345  1.00  0.00     0.031 C 
HETATM   23  C1  UNL     1      26.793   3.608  49.562  1.00  0.00     0.007 C 
ENDBRANCH  21  22
BRANCH  21  24
HETATM   24  N6  UNL     1      23.436   5.466  48.993  1.00  0.00     0.096 N 
HETATM   25  C17 UNL     1      23.896   6.779  48.873  1.00  0.00     0.303 C 
HETATM   26  C18 UNL     1      24.416   7.084  47.457  1.00  0.00     0.302 C 
HETATM   27  N7  UNL     1      23.261   7.297  46.594  1.00  0.00     0.087 N 
HETATM   28  C19 UNL     1      22.940   8.693  46.578  1.00  0.00     0.310 C 
HETATM   29  C20 UNL     1      22.180   6.484  47.104  1.00  0.00     0.302 C 
HETATM   30  C21 UNL     1      22.635   5.208  47.767  1.00  0.00     0.303 C 
ENDBRANCH  21  24
ENDBRANCH  20  21
ENDBRANCH   1  20
BRANCH  12  31
HETATM   31  N2  UNL     1      22.853  -0.753  54.296  1.00  0.00    -0.287 NA
HETATM   32  H18 UNL     1      22.352  -1.010  55.189  1.00  0.00     0.125 HD
HETATM   33  H19 UNL     1      22.386  -0.985  55.218  1.00  0.00     0.125 HD
ENDBRANCH  12  31
TORSDOF 5
ENDMDL
