MODEL 1
REMARK VINA RESULT:      -8.7      0.000      0.000
REMARK  4 active torsions:
REMARK  status: ('A' for Active; 'I' for Inactive)
REMARK    1  A    between atoms: N1_1  and  C1_2 
REMARK    2  A    between atoms: C4_5  and  N2_6 
REMARK    3  A    between atoms: N2_6  and  C5_7 
REMARK    4  A    between atoms: C8_14  and  C9_15 
ROOT
HETATM    1  C5  UNL     1      26.610  -0.804  52.999  1.00  0.00     0.190 A 
HETATM    2  O1  UNL     1      27.291  -1.881  53.216  1.00  0.00    -0.192 OA
HETATM    3  N3  UNL     1      28.443  -1.629  53.733  1.00  0.00    -0.105 NA
HETATM    4  C6  UNL     1      28.574  -0.316  53.885  1.00  0.00     0.195 A 
HETATM    5  N4  UNL     1      29.529   0.508  54.343  1.00  0.00    -0.220 NA
HETATM    6  C7  UNL     1      29.308   1.830  54.331  1.00  0.00     0.236 A 
HETATM    7  N5  UNL     1      28.157   2.352  53.875  1.00  0.00    -0.240 NA
HETATM    8  C8  UNL     1      27.168   1.563  53.406  1.00  0.00     0.087 A 
HETATM    9  C15 UNL     1      27.394   0.222  53.414  1.00  0.00     0.097 A 
ENDROOT
BRANCH   1  10
HETATM   10  N2  UNL     1      25.320  -0.760  52.438  1.00  0.00    -0.334 N 
HETATM   11  H5  UNL     1      24.905  -0.836  51.528  1.00  0.00     0.168 HD
BRANCH  10  12
HETATM   12  C4  UNL     1      24.116  -0.597  53.167  1.00  0.00     0.034 A 
HETATM   13  C3  UNL     1      23.754  -0.948  54.471  1.00  0.00     0.032 A 
HETATM   14  C2  UNL     1      22.543  -0.706  55.063  1.00  0.00     0.031 A 
HETATM   15  C1  UNL     1      21.602  -0.058  54.299  1.00  0.00     0.025 A 
HETATM   16  C17 UNL     1      21.901   0.315  53.002  1.00  0.00     0.031 A 
HETATM   17  C16 UNL     1      23.128   0.060  52.429  1.00  0.00     0.032 A 
BRANCH  15  18
HETATM   18  N1  UNL     1      20.359   0.168  54.962  1.00  0.00    -0.399 N 
HETATM   19  H1  UNL     1      19.725   0.768  54.396  1.00  0.00     0.156 HD
HETATM   20  H2  UNL     1      20.159  -0.236  55.897  1.00  0.00     0.156 HD
ENDBRANCH  15  18
ENDBRANCH  10  12
ENDBRANCH   1  10
BRANCH   8  21
HETATM   21  C9  UNL     1      26.015   2.324  52.975  1.00  0.00    -0.005 A 
HETATM   22  C10 UNL     1      24.914   2.880  53.592  1.00  0.00     0.014 A 
HETATM   23  C11 UNL     1      23.904   3.571  52.975  1.00  0.00     0.003 A 
HETATM   24  C12 UNL     1      23.950   3.753  51.612  1.00  0.00     0.024 A 
HETATM   25  C13 UNL     1      25.009   3.237  50.895  1.00  0.00     0.035 A 
HETATM   26 CL1  UNL     1      25.038   3.484  49.172  1.00  0.00    -0.084 Cl
HETATM   27  C14 UNL     1      25.980   2.558  51.587  1.00  0.00     0.037 A 
ENDBRANCH   8  21
TORSDOF 4
ENDMDL
MODEL 2
REMARK VINA RESULT:      -8.4      1.656      1.934
REMARK  4 active torsions:
REMARK  status: ('A' for Active; 'I' for Inactive)
REMARK    1  A    between atoms: N1_1  and  C1_2 
REMARK    2  A    between atoms: C4_5  and  N2_6 
REMARK    3  A    between atoms: N2_6  and  C5_7 
REMARK    4  A    between atoms: C8_14  and  C9_15 
ROOT
HETATM    1  C5  UNL     1      25.168   0.136  53.617  1.00  0.00     0.190 A 
HETATM    2  O1  UNL     1      25.318  -0.674  54.614  1.00  0.00    -0.192 OA
HETATM    3  N3  UNL     1      26.466  -0.536  55.180  1.00  0.00    -0.105 NA
HETATM    4  C6  UNL     1      27.150   0.413  54.550  1.00  0.00     0.195 A 
HETATM    5  N4  UNL     1      28.367   0.965  54.676  1.00  0.00    -0.220 NA
HETATM    6  C7  UNL     1      28.738   1.925  53.818  1.00  0.00     0.236 A 
HETATM    7  N5  UNL     1      27.925   2.352  52.838  1.00  0.00    -0.240 NA
HETATM    8  C8  UNL     1      26.692   1.829  52.674  1.00  0.00     0.087 A 
HETATM    9  C15 UNL     1      26.317   0.851  53.541  1.00  0.00     0.097 A 
ENDROOT
BRANCH   1  10
HETATM   10  N2  UNL     1      24.023   0.215  52.802  1.00  0.00    -0.334 N 
HETATM   11  H5  UNL     1      23.788   0.541  51.883  1.00  0.00     0.168 HD
BRANCH  10  12
HETATM   12  C4  UNL     1      22.734  -0.257  53.154  1.00  0.00     0.034 A 
HETATM   13  C3  UNL     1      22.304  -1.199  54.094  1.00  0.00     0.032 A 
HETATM   14  C2  UNL     1      21.004  -1.547  54.349  1.00  0.00     0.031 A 
HETATM   15  C1  UNL     1      20.039  -0.907  53.608  1.00  0.00     0.025 A 
HETATM   16  C17 UNL     1      20.401   0.034  52.664  1.00  0.00     0.031 A 
HETATM   17  C16 UNL     1      21.717   0.367  52.426  1.00  0.00     0.032 A 
BRANCH  15  18
HETATM   18  N1  UNL     1      18.703  -1.307  53.912  1.00  0.00    -0.399 N 
HETATM   19  H1  UNL     1      18.325  -1.959  53.196  1.00  0.00     0.156 HD
HETATM   20  H2  UNL     1      18.210  -0.960  54.757  1.00  0.00     0.156 HD
ENDBRANCH  15  18
ENDBRANCH  10  12
ENDBRANCH   1  10
BRANCH   8  21
HETATM   21  C9  UNL     1      25.980   2.436  51.570  1.00  0.00    -0.005 A 
HETATM   22  C10 UNL     1      24.672   2.455  51.131  1.00  0.00     0.014 A 
HETATM   23  C11 UNL     1      24.201   3.102  50.020  1.00  0.00     0.003 A 
HETATM   24  C12 UNL     1      25.079   3.815  49.236  1.00  0.00     0.024 A 
HETATM   25  C13 UNL     1      26.412   3.863  49.583  1.00  0.00     0.035 A 
HETATM   26 CL1  UNL     1      27.497   4.773  48.570  1.00  0.00    -0.084 Cl
HETATM   27  C14 UNL     1      26.804   3.188  50.711  1.00  0.00     0.037 A 
ENDBRANCH   8  21
TORSDOF 4
ENDMDL
MODEL 3
REMARK VINA RESULT:      -8.2      2.845      5.433
REMARK  4 active torsions:
REMARK  status: ('A' for Active; 'I' for Inactive)
REMARK    1  A    between atoms: N1_1  and  C1_2 
REMARK    2  A    between atoms: C4_5  and  N2_6 
REMARK    3  A    between atoms: N2_6  and  C5_7 
REMARK    4  A    between atoms: C8_14  and  C9_15 
ROOT
HETATM    1  C5  UNL     1      23.430   0.554  52.372  1.00  0.00     0.190 A 
HETATM    2  O1  UNL     1      22.187   0.301  52.123  1.00  0.00    -0.192 OA
HETATM    3  N3  UNL     1      21.665  -0.475  53.007  1.00  0.00    -0.105 NA
HETATM    4  C6  UNL     1      22.585  -0.779  53.916  1.00  0.00     0.195 A 
HETATM    5  N4  UNL     1      22.627  -1.534  55.025  1.00  0.00    -0.220 NA
HETATM    6  C7  UNL     1      23.777  -1.622  55.709  1.00  0.00     0.236 A 
HETATM    7  N5  UNL     1      24.886  -0.974  55.315  1.00  0.00    -0.240 NA
HETATM    8  C8  UNL     1      24.891  -0.203  54.208  1.00  0.00     0.087 A 
HETATM    9  C15 UNL     1      23.726  -0.117  53.512  1.00  0.00     0.097 A 
ENDROOT
BRANCH   1  10
HETATM   10  N2  UNL     1      24.266   1.366  51.582  1.00  0.00    -0.334 N 
HETATM   11  H5  UNL     1      25.031   1.244  50.946  1.00  0.00     0.168 HD
BRANCH  10  12
HETATM   12  C4  UNL     1      24.174   2.776  51.476  1.00  0.00     0.034 A 
HETATM   13  C3  UNL     1      24.522   3.664  50.452  1.00  0.00     0.032 A 
HETATM   14  C2  UNL     1      24.355   5.023  50.475  1.00  0.00     0.031 A 
HETATM   15  C1  UNL     1      23.792   5.556  51.611  1.00  0.00     0.025 A 
HETATM   16  C17 UNL     1      23.427   4.729  52.656  1.00  0.00     0.031 A 
HETATM   17  C16 UNL     1      23.606   3.363  52.609  1.00  0.00     0.032 A 
BRANCH  15  18
HETATM   18  N1  UNL     1      23.641   6.975  51.582  1.00  0.00    -0.399 N 
HETATM   19  H1  UNL     1      23.699   7.348  50.613  1.00  0.00     0.156 HD
HETATM   20  H2  UNL     1      23.495   7.524  52.450  1.00  0.00     0.156 HD
ENDBRANCH  15  18
ENDBRANCH  10  12
ENDBRANCH   1  10
BRANCH   8  21
HETATM   21  C9  UNL     1      26.180   0.410  53.971  1.00  0.00    -0.005 A 
HETATM   22  C10 UNL     1      26.648   1.700  53.832  1.00  0.00     0.014 A 
HETATM   23  C11 UNL     1      27.945   2.069  53.591  1.00  0.00     0.003 A 
HETATM   24  C12 UNL     1      28.909   1.094  53.470  1.00  0.00     0.024 A 
HETATM   25  C13 UNL     1      28.551  -0.232  53.593  1.00  0.00     0.035 A 
HETATM   26 CL1  UNL     1      29.792  -1.441  53.435  1.00  0.00    -0.084 Cl
HETATM   27  C14 UNL     1      27.230  -0.518  53.833  1.00  0.00     0.037 A 
ENDBRANCH   8  21
TORSDOF 4
ENDMDL
MODEL 4
REMARK VINA RESULT:      -8.1      2.041      5.645
REMARK  4 active torsions:
REMARK  status: ('A' for Active; 'I' for Inactive)
REMARK    1  A    between atoms: N1_1  and  C1_2 
REMARK    2  A    between atoms: C4_5  and  N2_6 
REMARK    3  A    between atoms: N2_6  and  C5_7 
REMARK    4  A    between atoms: C8_14  and  C9_15 
ROOT
HETATM    1  C5  UNL     1      23.564  -0.374  54.130  1.00  0.00     0.190 A 
HETATM    2  O1  UNL     1      23.596  -1.294  55.038  1.00  0.00    -0.192 OA
HETATM    3  N3  UNL     1      22.437  -1.819  55.234  1.00  0.00    -0.105 NA
HETATM    4  C6  UNL     1      21.555  -1.241  54.426  1.00  0.00     0.195 A 
HETATM    5  N4  UNL     1      20.237  -1.359  54.200  1.00  0.00    -0.220 NA
HETATM    6  C7  UNL     1      19.661  -0.567  53.284  1.00  0.00     0.236 A 
HETATM    7  N5  UNL     1      20.366   0.339  52.587  1.00  0.00    -0.240 NA
HETATM    8  C8  UNL     1      21.693   0.493  52.779  1.00  0.00     0.087 A 
HETATM    9  C15 UNL     1      22.276  -0.308  53.711  1.00  0.00     0.097 A 
ENDROOT
BRANCH   1  10
HETATM   10  N2  UNL     1      24.673   0.382  53.704  1.00  0.00    -0.334 N 
HETATM   11  H5  UNL     1      24.855   1.316  53.386  1.00  0.00     0.168 HD
BRANCH  10  12
HETATM   12  C4  UNL     1      26.009  -0.086  53.647  1.00  0.00     0.034 A 
HETATM   13  C3  UNL     1      26.633  -1.047  52.846  1.00  0.00     0.032 A 
HETATM   14  C2  UNL     1      27.959  -1.389  52.883  1.00  0.00     0.031 A 
HETATM   15  C1  UNL     1      28.742  -0.720  53.794  1.00  0.00     0.025 A 
HETATM   16  C17 UNL     1      28.182   0.242  54.613  1.00  0.00     0.031 A 
HETATM   17  C16 UNL     1      26.844   0.568  54.557  1.00  0.00     0.032 A 
BRANCH  15  18
HETATM   18  N1  UNL     1      30.113  -1.113  53.792  1.00  0.00    -0.399 N 
HETATM   19  H1  UNL     1      30.255  -2.010  53.283  1.00  0.00     0.156 HD
HETATM   20  H2  UNL     1      30.844  -0.543  54.258  1.00  0.00     0.156 HD
ENDBRANCH  15  18
ENDBRANCH  10  12
ENDBRANCH   1  10
BRANCH   8  21
HETATM   21  C9  UNL     1      22.258   1.512  51.922  1.00  0.00    -0.005 A 
HETATM   22  C10 UNL     1      22.930   2.701  52.114  1.00  0.00     0.014 A 
HETATM   23  C11 UNL     1      23.380   3.544  51.133  1.00  0.00     0.003 A 
HETATM   24  C12 UNL     1      23.165   3.214  49.814  1.00  0.00     0.024 A 
HETATM   25  C13 UNL     1      22.502   2.045  49.507  1.00  0.00     0.035 A 
HETATM   26 CL1  UNL     1      22.246   1.656  47.830  1.00  0.00    -0.084 Cl
HETATM   27  C14 UNL     1      22.083   1.255  50.548  1.00  0.00     0.037 A 
ENDBRANCH   8  21
TORSDOF 4
ENDMDL
MODEL 5
REMARK VINA RESULT:      -8.1      3.031      4.684
REMARK  4 active torsions:
REMARK  status: ('A' for Active; 'I' for Inactive)
REMARK    1  A    between atoms: N1_1  and  C1_2 
REMARK    2  A    between atoms: C4_5  and  N2_6 
REMARK    3  A    between atoms: N2_6  and  C5_7 
REMARK    4  A    between atoms: C8_14  and  C9_15 
ROOT
HETATM    1  C5  UNL     1      23.787   2.788  51.798  1.00  0.00     0.190 A 
HETATM    2  O1  UNL     1      22.794   3.412  51.257  1.00  0.00    -0.192 OA
HETATM    3  N3  UNL     1      23.158   4.107  50.237  1.00  0.00    -0.105 NA
HETATM    4  C6  UNL     1      24.466   3.963  50.056  1.00  0.00     0.195 A 
HETATM    5  N4  UNL     1      25.376   4.440  49.193  1.00  0.00    -0.220 NA
HETATM    6  C7  UNL     1      26.658   4.075  49.331  1.00  0.00     0.236 A 
HETATM    7  N5  UNL     1      27.057   3.244  50.308  1.00  0.00    -0.240 NA
HETATM    8  C8  UNL     1      26.179   2.738  51.198  1.00  0.00     0.087 A 
HETATM    9  C15 UNL     1      24.878   3.112  51.061  1.00  0.00     0.097 A 
ENDROOT
BRANCH   1  10
HETATM   10  N2  UNL     1      23.702   1.955  52.930  1.00  0.00    -0.334 N 
HETATM   11  H5  UNL     1      24.249   1.757  53.748  1.00  0.00     0.168 HD
BRANCH  10  12
HETATM   12  C4  UNL     1      22.623   1.084  53.226  1.00  0.00     0.034 A 
HETATM   13  C3  UNL     1      21.236   1.255  53.165  1.00  0.00     0.032 A 
HETATM   14  C2  UNL     1      20.295   0.306  53.464  1.00  0.00     0.031 A 
HETATM   15  C1  UNL     1      20.764  -0.924  53.860  1.00  0.00     0.025 A 
HETATM   16  C17 UNL     1      22.124  -1.153  53.940  1.00  0.00     0.031 A 
HETATM   17  C16 UNL     1      23.053  -0.181  53.633  1.00  0.00     0.032 A 
BRANCH  15  18
HETATM   18  N1  UNL     1      19.743  -1.874  54.159  1.00  0.00    -0.399 N 
HETATM   19  H1  UNL     1      19.036  -1.484  54.815  1.00  0.00     0.156 HD
HETATM   20  H2  UNL     1      19.749  -2.828  53.750  1.00  0.00     0.156 HD
ENDBRANCH  15  18
ENDBRANCH  10  12
ENDBRANCH   1  10
BRANCH   8  21
HETATM   21  C9  UNL     1      26.812   1.860  52.158  1.00  0.00    -0.005 A 
HETATM   22  C10 UNL     1      27.587   2.027  53.287  1.00  0.00     0.014 A 
HETATM   23  C11 UNL     1      28.110   1.028  54.065  1.00  0.00     0.003 A 
HETATM   24  C12 UNL     1      27.866  -0.284  53.726  1.00  0.00     0.024 A 
HETATM   25  C13 UNL     1      27.102  -0.566  52.614  1.00  0.00     0.035 A 
HETATM   26 CL1  UNL     1      26.811  -2.235  52.213  1.00  0.00    -0.084 Cl
HETATM   27  C14 UNL     1      26.614   0.492  51.888  1.00  0.00     0.037 A 
ENDBRANCH   8  21
TORSDOF 4
ENDMDL
MODEL 6
REMARK VINA RESULT:      -7.8      3.374      5.606
REMARK  4 active torsions:
REMARK  status: ('A' for Active; 'I' for Inactive)
REMARK    1  A    between atoms: N1_1  and  C1_2 
REMARK    2  A    between atoms: C4_5  and  N2_6 
REMARK    3  A    between atoms: N2_6  and  C5_7 
REMARK    4  A    between atoms: C8_14  and  C9_15 
ROOT
HETATM    1  C5  UNL     1      26.542   3.637  49.749  1.00  0.00     0.190 A 
HETATM    2  O1  UNL     1      27.478   4.233  49.085  1.00  0.00    -0.192 OA
HETATM    3  N3  UNL     1      27.216   5.478  48.893  1.00  0.00    -0.105 NA
HETATM    4  C6  UNL     1      26.043   5.767  49.446  1.00  0.00     0.195 A 
HETATM    5  N4  UNL     1      25.273   6.861  49.552  1.00  0.00    -0.220 NA
HETATM    6  C7  UNL     1      24.099   6.771  50.193  1.00  0.00     0.236 A 
HETATM    7  N5  UNL     1      23.674   5.618  50.735  1.00  0.00    -0.240 NA
HETATM    8  C8  UNL     1      24.415   4.493  50.656  1.00  0.00     0.087 A 
HETATM    9  C15 UNL     1      25.603   4.583  50.001  1.00  0.00     0.097 A 
ENDROOT
BRANCH   1  10
HETATM   10  N2  UNL     1      26.543   2.276  50.106  1.00  0.00    -0.334 N 
HETATM   11  H5  UNL     1      26.381   1.392  49.660  1.00  0.00     0.168 HD
BRANCH  10  12
HETATM   12  C4  UNL     1      26.855   1.767  51.392  1.00  0.00     0.034 A 
HETATM   13  C3  UNL     1      27.495   2.339  52.496  1.00  0.00     0.032 A 
HETATM   14  C2  UNL     1      27.714   1.730  53.703  1.00  0.00     0.031 A 
HETATM   15  C1  UNL     1      27.260   0.439  53.834  1.00  0.00     0.025 A 
HETATM   16  C17 UNL     1      26.619  -0.179  52.777  1.00  0.00     0.031 A 
HETATM   17  C16 UNL     1      26.411   0.455  51.571  1.00  0.00     0.032 A 
BRANCH  15  18
HETATM   18  N1  UNL     1      27.513  -0.148  55.109  1.00  0.00    -0.399 N 
HETATM   19  H1  UNL     1      28.187   0.418  55.665  1.00  0.00     0.156 HD
HETATM   20  H2  UNL     1      27.058  -1.033  55.402  1.00  0.00     0.156 HD
ENDBRANCH  15  18
ENDBRANCH  10  12
ENDBRANCH   1  10
BRANCH   8  21
HETATM   21  C9  UNL     1      23.780   3.370  51.311  1.00  0.00    -0.005 A 
HETATM   22  C10 UNL     1      23.761   2.858  52.592  1.00  0.00     0.014 A 
HETATM   23  C11 UNL     1      23.083   1.742  53.007  1.00  0.00     0.003 A 
HETATM   24  C12 UNL     1      22.335   1.032  52.094  1.00  0.00     0.024 A 
HETATM   25  C13 UNL     1      22.284   1.457  50.784  1.00  0.00     0.035 A 
HETATM   26 CL1  UNL     1      21.331   0.538  49.654  1.00  0.00    -0.084 Cl
HETATM   27  C14 UNL     1      22.992   2.584  50.449  1.00  0.00     0.037 A 
ENDBRANCH   8  21
TORSDOF 4
ENDMDL
MODEL 7
REMARK VINA RESULT:      -7.7      3.180      5.602
REMARK  4 active torsions:
REMARK  status: ('A' for Active; 'I' for Inactive)
REMARK    1  A    between atoms: N1_1  and  C1_2 
REMARK    2  A    between atoms: C4_5  and  N2_6 
REMARK    3  A    between atoms: N2_6  and  C5_7 
REMARK    4  A    between atoms: C8_14  and  C9_15 
ROOT
HETATM    1  C5  UNL     1      26.757   2.216  51.972  1.00  0.00     0.190 A 
HETATM    2  O1  UNL     1      27.989   2.587  52.097  1.00  0.00    -0.192 OA
HETATM    3  N3  UNL     1      28.542   2.079  53.142  1.00  0.00    -0.105 NA
HETATM    4  C6  UNL     1      27.658   1.319  53.778  1.00  0.00     0.195 A 
HETATM    5  N4  UNL     1      27.656   0.574  54.894  1.00  0.00    -0.220 NA
HETATM    6  C7  UNL     1      26.533  -0.067  55.246  1.00  0.00     0.236 A 
HETATM    7  N5  UNL     1      25.411   0.013  54.512  1.00  0.00    -0.240 NA
HETATM    8  C8  UNL     1      25.365   0.748  53.381  1.00  0.00     0.087 A 
HETATM    9  C15 UNL     1      26.504   1.402  53.026  1.00  0.00     0.097 A 
ENDROOT
BRANCH   1  10
HETATM   10  N2  UNL     1      25.893   2.611  50.933  1.00  0.00    -0.334 N 
HETATM   11  H5  UNL     1      25.058   2.272  50.494  1.00  0.00     0.168 HD
BRANCH  10  12
HETATM   12  C4  UNL     1      26.024   3.796  50.165  1.00  0.00     0.034 A 
HETATM   13  C3  UNL     1      27.013   4.234  49.278  1.00  0.00     0.032 A 
HETATM   14  C2  UNL     1      27.000   5.411  48.577  1.00  0.00     0.031 A 
HETATM   15  C1  UNL     1      25.913   6.231  48.769  1.00  0.00     0.025 A 
HETATM   16  C17 UNL     1      24.904   5.852  49.633  1.00  0.00     0.031 A 
HETATM   17  C16 UNL     1      24.940   4.662  50.328  1.00  0.00     0.032 A 
BRANCH  15  18
HETATM   18  N1  UNL     1      25.951   7.442  48.016  1.00  0.00    -0.399 N 
HETATM   19  H1  UNL     1      25.594   8.249  48.569  1.00  0.00     0.156 HD
HETATM   20  H2  UNL     1      26.298   7.466  47.039  1.00  0.00     0.156 HD
ENDBRANCH  15  18
ENDBRANCH  10  12
ENDBRANCH   1  10
BRANCH   8  21
HETATM   21  C9  UNL     1      24.070   0.690  52.739  1.00  0.00    -0.005 A 
HETATM   22  C10 UNL     1      23.496   1.263  51.624  1.00  0.00     0.014 A 
HETATM   23  C11 UNL     1      22.209   1.077  51.190  1.00  0.00     0.003 A 
HETATM   24  C12 UNL     1      21.374   0.248  51.903  1.00  0.00     0.024 A 
HETATM   25  C13 UNL     1      21.846  -0.378  53.037  1.00  0.00     0.035 A 
HETATM   26 CL1  UNL     1      20.764  -1.420  53.917  1.00  0.00    -0.084 Cl
HETATM   27  C14 UNL     1      23.146  -0.139  53.405  1.00  0.00     0.037 A 
ENDBRANCH   8  21
TORSDOF 4
ENDMDL
MODEL 8
REMARK VINA RESULT:      -7.7      2.183      4.173
REMARK  4 active torsions:
REMARK  status: ('A' for Active; 'I' for Inactive)
REMARK    1  A    between atoms: N1_1  and  C1_2 
REMARK    2  A    between atoms: C4_5  and  N2_6 
REMARK    3  A    between atoms: N2_6  and  C5_7 
REMARK    4  A    between atoms: C8_14  and  C9_15 
ROOT
HETATM    1  C5  UNL     1      26.780   1.939  53.564  1.00  0.00     0.190 A 
HETATM    2  O1  UNL     1      27.899   2.552  53.358  1.00  0.00    -0.192 OA
HETATM    3  N3  UNL     1      28.871   1.731  53.164  1.00  0.00    -0.105 NA
HETATM    4  C6  UNL     1      28.412   0.486  53.238  1.00  0.00     0.195 A 
HETATM    5  N4  UNL     1      28.943  -0.742  53.137  1.00  0.00    -0.220 NA
HETATM    6  C7  UNL     1      28.146  -1.809  53.289  1.00  0.00     0.236 A 
HETATM    7  N5  UNL     1      26.832  -1.683  53.537  1.00  0.00    -0.240 NA
HETATM    8  C8  UNL     1      26.253  -0.469  53.645  1.00  0.00     0.087 A 
HETATM    9  C15 UNL     1      27.062   0.614  53.495  1.00  0.00     0.097 A 
ENDROOT
BRANCH   1  10
HETATM   10  N2  UNL     1      25.545   2.567  53.811  1.00  0.00    -0.334 N 
HETATM   11  H5  UNL     1      25.022   2.887  54.605  1.00  0.00     0.168 HD
BRANCH  10  12
HETATM   12  C4  UNL     1      24.624   2.982  52.817  1.00  0.00     0.034 A 
HETATM   13  C3  UNL     1      23.324   3.492  52.897  1.00  0.00     0.032 A 
HETATM   14  C2  UNL     1      22.545   3.878  51.839  1.00  0.00     0.031 A 
HETATM   15  C1  UNL     1      23.098   3.749  50.587  1.00  0.00     0.025 A 
HETATM   16  C17 UNL     1      24.378   3.251  50.444  1.00  0.00     0.031 A 
HETATM   17  C16 UNL     1      25.143   2.869  51.525  1.00  0.00     0.032 A 
BRANCH  15  18
HETATM   18  N1  UNL     1      22.244   4.165  49.522  1.00  0.00    -0.399 N 
HETATM   19  H1  UNL     1      22.777   4.324  48.643  1.00  0.00     0.156 HD
HETATM   20  H2  UNL     1      21.222   4.282  49.657  1.00  0.00     0.156 HD
ENDBRANCH  15  18
ENDBRANCH  10  12
ENDBRANCH   1  10
BRANCH   8  21
HETATM   21  C9  UNL     1      24.832  -0.558  53.902  1.00  0.00    -0.005 A 
HETATM   22  C10 UNL     1      24.045  -0.919  54.975  1.00  0.00     0.014 A 
HETATM   23  C11 UNL     1      22.675  -0.945  55.002  1.00  0.00     0.003 A 
HETATM   24  C12 UNL     1      21.975  -0.582  53.874  1.00  0.00     0.024 A 
HETATM   25  C13 UNL     1      22.663  -0.202  52.742  1.00  0.00     0.035 A 
HETATM   26 CL1  UNL     1      21.749   0.251  51.332  1.00  0.00    -0.084 Cl
HETATM   27  C14 UNL     1      24.035  -0.204  52.797  1.00  0.00     0.037 A 
ENDBRANCH   8  21
TORSDOF 4
ENDMDL
MODEL 9
REMARK VINA RESULT:      -7.5      2.846      6.138
REMARK  4 active torsions:
REMARK  status: ('A' for Active; 'I' for Inactive)
REMARK    1  A    between atoms: N1_1  and  C1_2 
REMARK    2  A    between atoms: C4_5  and  N2_6 
REMARK    3  A    between atoms: N2_6  and  C5_7 
REMARK    4  A    between atoms: C8_14  and  C9_15 
ROOT
HETATM    1  C5  UNL     1      23.437   1.396  51.768  1.00  0.00     0.190 A 
HETATM    2  O1  UNL     1      22.264   1.865  51.493  1.00  0.00    -0.192 OA
HETATM    3  N3  UNL     1      21.370   1.439  52.315  1.00  0.00    -0.105 NA
HETATM    4  C6  UNL     1      21.942   0.635  53.204  1.00  0.00     0.195 A 
HETATM    5  N4  UNL     1      21.525  -0.089  54.255  1.00  0.00    -0.220 NA
HETATM    6  C7  UNL     1      22.418  -0.820  54.936  1.00  0.00     0.236 A 
HETATM    7  N5  UNL     1      23.717  -0.848  54.598  1.00  0.00    -0.240 NA
HETATM    8  C8  UNL     1      24.183  -0.135  53.551  1.00  0.00     0.087 A 
HETATM    9  C15 UNL     1      23.277   0.604  52.857  1.00  0.00     0.097 A 
ENDROOT
BRANCH   1  10
HETATM   10  N2  UNL     1      24.612   1.677  51.045  1.00  0.00    -0.334 N 
HETATM   11  H5  UNL     1      25.373   1.164  50.638  1.00  0.00     0.168 HD
BRANCH  10  12
HETATM   12  C4  UNL     1      25.035   2.968  50.640  1.00  0.00     0.034 A 
HETATM   13  C3  UNL     1      24.488   4.239  50.841  1.00  0.00     0.032 A 
HETATM   14  C2  UNL     1      25.023   5.422  50.406  1.00  0.00     0.031 A 
HETATM   15  C1  UNL     1      26.205   5.345  49.708  1.00  0.00     0.025 A 
HETATM   16  C17 UNL     1      26.794   4.117  49.478  1.00  0.00     0.031 A 
HETATM   17  C16 UNL     1      26.236   2.939  49.927  1.00  0.00     0.032 A 
BRANCH  15  18
HETATM   18  N1  UNL     1      26.718   6.605  49.278  1.00  0.00    -0.399 N 
HETATM   19  H1  UNL     1      27.708   6.736  49.568  1.00  0.00     0.156 HD
HETATM   20  H2  UNL     1      26.134   7.277  48.744  1.00  0.00     0.156 HD
ENDBRANCH  15  18
ENDBRANCH  10  12
ENDBRANCH   1  10
BRANCH   8  21
HETATM   21  C9  UNL     1      25.609  -0.297  53.367  1.00  0.00    -0.005 A 
HETATM   22  C10 UNL     1      26.447  -1.338  53.023  1.00  0.00     0.014 A 
HETATM   23  C11 UNL     1      27.812  -1.275  52.915  1.00  0.00     0.003 A 
HETATM   24  C12 UNL     1      28.451  -0.082  53.162  1.00  0.00     0.024 A 
HETATM   25  C13 UNL     1      27.708   1.025  53.513  1.00  0.00     0.035 A 
HETATM   26 CL1  UNL     1      28.546   2.520  53.819  1.00  0.00    -0.084 Cl
HETATM   27  C14 UNL     1      26.346   0.880  53.600  1.00  0.00     0.037 A 
ENDBRANCH   8  21
TORSDOF 4
ENDMDL
