MODEL 1
REMARK VINA RESULT:      -8.3      0.000      0.000
REMARK  3 active torsions:
REMARK  status: ('A' for Active; 'I' for Inactive)
REMARK    1  A    between atoms: C3_3  and  C4_4 
REMARK    2  A    between atoms: C6_7  and  N1_8 
REMARK    3  A    between atoms: N1_8  and  C7_9 
ROOT
HETATM    1  C4  UNL     1      26.060   1.564  52.352  1.00  0.00     0.076 A 
HETATM    2  C5  UNL     1      24.967   2.260  53.038  1.00  0.00     0.085 A 
HETATM    3  S1  UNL     1      24.488   3.525  51.795  1.00  0.00    -0.061 SA
HETATM    4  C6  UNL     1      25.803   2.925  50.590  1.00  0.00     0.171 A 
HETATM    5  N2  UNL     1      26.303   2.051  51.166  1.00  0.00    -0.223 NA
ENDROOT
BRANCH   1   6
HETATM    6  C3  UNL     1      26.804   0.444  52.899  1.00  0.00    -0.005 C 
HETATM    7  C2  UNL     1      27.784   0.831  53.897  1.00  0.00     0.015 C 
HETATM    8  C1  UNL     1      28.955   0.294  54.290  1.00  0.00     0.022 C 
HETATM    9  C15 UNL     1      29.720  -0.902  53.875  1.00  0.00     0.141 C 
HETATM   10  N4  UNL     1      29.312  -2.037  53.375  1.00  0.00    -0.163 NA
HETATM   11  N3  UNL     1      28.082  -2.611  53.027  1.00  0.00    -0.163 NA
HETATM   12  C14 UNL     1      26.927  -2.126  52.643  1.00  0.00     0.142 C 
HETATM   13  C13 UNL     1      26.500  -0.756  52.433  1.00  0.00     0.034 C 
ENDBRANCH   1   6
BRANCH   4  14
HETATM   14  N1  UNL     1      25.960   3.557  49.320  1.00  0.00    -0.335 N 
HETATM   15  H4  UNL     1      25.595   2.970  48.565  1.00  0.00     0.168 HD
BRANCH  14  16
HETATM   16  C7  UNL     1      26.523   4.814  49.041  1.00  0.00     0.034 A 
HETATM   17  C8  UNL     1      27.849   4.780  48.607  1.00  0.00     0.029 A 
HETATM   18  C9  UNL     1      28.551   5.917  48.283  1.00  0.00     0.002 A 
HETATM   19  C10 UNL     1      28.000   7.164  48.363  1.00  0.00     0.000 A 
HETATM   20  C11 UNL     1      26.696   7.212  48.789  1.00  0.00     0.002 A 
HETATM   21  C12 UNL     1      26.007   6.080  49.107  1.00  0.00     0.029 A 
ENDBRANCH  14  16
ENDBRANCH   4  14
TORSDOF 3
ENDMDL
MODEL 2
REMARK VINA RESULT:      -8.2      1.306      1.792
REMARK  3 active torsions:
REMARK  status: ('A' for Active; 'I' for Inactive)
REMARK    1  A    between atoms: C3_3  and  C4_4 
REMARK    2  A    between atoms: C6_7  and  N1_8 
REMARK    3  A    between atoms: N1_8  and  C7_9 
ROOT
HETATM    1  C4  UNL     1      25.070   0.751  52.906  1.00  0.00     0.076 A 
HETATM    2  C5  UNL     1      23.644   0.436  53.043  1.00  0.00     0.085 A 
HETATM    3  S1  UNL     1      22.858   1.939  52.337  1.00  0.00    -0.061 SA
HETATM    4  C6  UNL     1      24.533   2.722  51.985  1.00  0.00     0.171 A 
HETATM    5  N2  UNL     1      25.279   1.919  52.363  1.00  0.00    -0.223 NA
ENDROOT
BRANCH   1   6
HETATM    6  C3  UNL     1      26.156  -0.124  53.310  1.00  0.00    -0.005 C 
HETATM    7  C2  UNL     1      26.938   0.397  54.416  1.00  0.00     0.015 C 
HETATM    8  C1  UNL     1      28.222   0.233  54.789  1.00  0.00     0.022 C 
HETATM    9  C15 UNL     1      29.356  -0.538  54.234  1.00  0.00     0.141 C 
HETATM   10  N4  UNL     1      29.369  -1.640  53.533  1.00  0.00    -0.163 NA
HETATM   11  N3  UNL     1      28.415  -2.531  53.022  1.00  0.00    -0.163 NA
HETATM   12  C14 UNL     1      27.164  -2.412  52.651  1.00  0.00     0.142 C 
HETATM   13  C13 UNL     1      26.288  -1.256  52.639  1.00  0.00     0.034 C 
ENDBRANCH   1   6
BRANCH   4  14
HETATM   14  N1  UNL     1      24.613   4.015  51.386  1.00  0.00    -0.335 N 
HETATM   15  H4  UNL     1      23.890   4.640  51.751  1.00  0.00     0.168 HD
BRANCH  14  16
HETATM   16  C7  UNL     1      25.528   4.468  50.420  1.00  0.00     0.034 A 
HETATM   17  C8  UNL     1      25.395   5.813  50.071  1.00  0.00     0.029 A 
HETATM   18  C9  UNL     1      26.211   6.422  49.148  1.00  0.00     0.002 A 
HETATM   19  C10 UNL     1      27.213   5.754  48.504  1.00  0.00     0.000 A 
HETATM   20  C11 UNL     1      27.355   4.429  48.838  1.00  0.00     0.002 A 
HETATM   21  C12 UNL     1      26.542   3.834  49.755  1.00  0.00     0.029 A 
ENDBRANCH  14  16
ENDBRANCH   4  14
TORSDOF 3
ENDMDL
MODEL 3
REMARK VINA RESULT:      -7.9      3.022      5.593
REMARK  3 active torsions:
REMARK  status: ('A' for Active; 'I' for Inactive)
REMARK    1  A    between atoms: C3_3  and  C4_4 
REMARK    2  A    between atoms: C6_7  and  N1_8 
REMARK    3  A    between atoms: N1_8  and  C7_9 
ROOT
HETATM    1  C4  UNL     1      26.015   1.179  52.001  1.00  0.00     0.076 A 
HETATM    2  C5  UNL     1      26.556   2.381  51.358  1.00  0.00     0.085 A 
HETATM    3  S1  UNL     1      25.029   3.198  50.744  1.00  0.00    -0.061 SA
HETATM    4  C6  UNL     1      23.945   1.825  51.435  1.00  0.00     0.171 A 
HETATM    5  N2  UNL     1      24.714   1.107  51.922  1.00  0.00    -0.223 NA
ENDROOT
BRANCH   1   6
HETATM    6  C3  UNL     1      26.810   0.167  52.671  1.00  0.00    -0.005 C 
HETATM    7  C2  UNL     1      27.699   0.706  53.686  1.00  0.00     0.015 C 
HETATM    8  C1  UNL     1      28.882   0.297  54.179  1.00  0.00     0.022 C 
HETATM    9  C15 UNL     1      29.761  -0.860  53.899  1.00  0.00     0.141 C 
HETATM   10  N4  UNL     1      29.472  -2.058  53.469  1.00  0.00    -0.163 NA
HETATM   11  N3  UNL     1      28.312  -2.755  53.104  1.00  0.00    -0.163 NA
HETATM   12  C14 UNL     1      27.147  -2.396  52.624  1.00  0.00     0.142 C 
HETATM   13  C13 UNL     1      26.628  -1.084  52.286  1.00  0.00     0.034 C 
ENDBRANCH   1   6
BRANCH   4  14
HETATM   14  N1  UNL     1      22.528   1.874  51.272  1.00  0.00    -0.335 N 
HETATM   15  H4  UNL     1      22.260   2.536  50.539  1.00  0.00     0.168 HD
BRANCH  14  16
HETATM   16  C7  UNL     1      21.549   1.147  51.971  1.00  0.00     0.034 A 
HETATM   17  C8  UNL     1      20.438   0.776  51.211  1.00  0.00     0.029 A 
HETATM   18  C9  UNL     1      19.390   0.056  51.733  1.00  0.00     0.002 A 
HETATM   19  C10 UNL     1      19.361  -0.350  53.037  1.00  0.00     0.000 A 
HETATM   20  C11 UNL     1      20.447   0.008  53.797  1.00  0.00     0.002 A 
HETATM   21  C12 UNL     1      21.482   0.721  53.270  1.00  0.00     0.029 A 
ENDBRANCH  14  16
ENDBRANCH   4  14
TORSDOF 3
ENDMDL
MODEL 4
REMARK VINA RESULT:      -7.5      1.959      6.932
REMARK  3 active torsions:
REMARK  status: ('A' for Active; 'I' for Inactive)
REMARK    1  A    between atoms: C3_3  and  C4_4 
REMARK    2  A    between atoms: C6_7  and  N1_8 
REMARK    3  A    between atoms: N1_8  and  C7_9 
ROOT
HETATM    1  C4  UNL     1      24.186   2.350  50.903  1.00  0.00     0.076 A 
HETATM    2  C5  UNL     1      22.792   1.966  51.148  1.00  0.00     0.085 A 
HETATM    3  S1  UNL     1      22.978   0.700  52.467  1.00  0.00    -0.061 SA
HETATM    4  C6  UNL     1      24.850   0.892  52.471  1.00  0.00     0.171 A 
HETATM    5  N2  UNL     1      25.029   1.702  51.660  1.00  0.00    -0.223 NA
ENDROOT
BRANCH   1   6
HETATM    6  C3  UNL     1      24.614   3.349  49.940  1.00  0.00    -0.005 C 
HETATM    7  C2  UNL     1      26.023   3.257  49.600  1.00  0.00     0.015 C 
HETATM    8  C1  UNL     1      26.929   4.166  49.193  1.00  0.00     0.022 C 
HETATM    9  C15 UNL     1      26.868   5.620  48.927  1.00  0.00     0.141 C 
HETATM   10  N4  UNL     1      25.872   6.369  48.538  1.00  0.00    -0.163 NA
HETATM   11  N3  UNL     1      24.521   6.177  48.217  1.00  0.00    -0.163 NA
HETATM   12  C14 UNL     1      23.611   5.310  48.587  1.00  0.00     0.142 C 
HETATM   13  C13 UNL     1      23.692   4.190  49.506  1.00  0.00     0.034 C 
ENDBRANCH   1   6
BRANCH   4  14
HETATM   14  N1  UNL     1      25.653   0.112  53.354  1.00  0.00    -0.335 N 
HETATM   15  H4  UNL     1      25.077  -0.497  53.942  1.00  0.00     0.168 HD
BRANCH  14  16
HETATM   16  C7  UNL     1      27.054   0.105  53.476  1.00  0.00     0.034 A 
HETATM   17  C8  UNL     1      27.663  -1.115  53.178  1.00  0.00     0.029 A 
HETATM   18  C9  UNL     1      29.024  -1.297  53.238  1.00  0.00     0.002 A 
HETATM   19  C10 UNL     1      29.880  -0.294  53.593  1.00  0.00     0.000 A 
HETATM   20  C11 UNL     1      29.294   0.912  53.889  1.00  0.00     0.002 A 
HETATM   21  C12 UNL     1      27.944   1.083  53.826  1.00  0.00     0.029 A 
ENDBRANCH  14  16
ENDBRANCH   4  14
TORSDOF 3
ENDMDL
MODEL 5
REMARK VINA RESULT:      -7.5      2.519      3.417
REMARK  3 active torsions:
REMARK  status: ('A' for Active; 'I' for Inactive)
REMARK    1  A    between atoms: C3_3  and  C4_4 
REMARK    2  A    between atoms: C6_7  and  N1_8 
REMARK    3  A    between atoms: N1_8  and  C7_9 
ROOT
HETATM    1  C4  UNL     1      22.974   1.932  52.119  1.00  0.00     0.076 A 
HETATM    2  C5  UNL     1      21.572   2.296  52.348  1.00  0.00     0.085 A 
HETATM    3  S1  UNL     1      21.368   3.731  51.219  1.00  0.00    -0.061 SA
HETATM    4  C6  UNL     1      23.154   3.608  50.642  1.00  0.00     0.171 A 
HETATM    5  N2  UNL     1      23.560   2.704  51.245  1.00  0.00    -0.223 NA
ENDROOT
BRANCH   1   6
HETATM    6  C3  UNL     1      23.662   0.830  52.768  1.00  0.00    -0.005 C 
HETATM    7  C2  UNL     1      22.765  -0.122  53.397  1.00  0.00     0.015 C 
HETATM    8  C1  UNL     1      22.900  -0.950  54.450  1.00  0.00     0.022 C 
HETATM    9  C15 UNL     1      24.003  -1.232  55.394  1.00  0.00     0.141 C 
HETATM   10  N4  UNL     1      25.297  -1.149  55.234  1.00  0.00    -0.163 NA
HETATM   11  N3  UNL     1      26.172  -0.792  54.199  1.00  0.00    -0.163 NA
HETATM   12  C14 UNL     1      26.080   0.003  53.161  1.00  0.00     0.142 C 
HETATM   13  C13 UNL     1      24.983   0.833  52.702  1.00  0.00     0.034 C 
ENDBRANCH   1   6
BRANCH   4  14
HETATM   14  N1  UNL     1      23.666   4.526  49.677  1.00  0.00    -0.335 N 
HETATM   15  H4  UNL     1      22.912   5.057  49.232  1.00  0.00     0.168 HD
BRANCH  14  16
HETATM   16  C7  UNL     1      25.006   4.750  49.318  1.00  0.00     0.034 A 
HETATM   17  C8  UNL     1      25.275   6.026  48.818  1.00  0.00     0.029 A 
HETATM   18  C9  UNL     1      26.533   6.417  48.426  1.00  0.00     0.002 A 
HETATM   19  C10 UNL     1      27.613   5.584  48.497  1.00  0.00     0.000 A 
HETATM   20  C11 UNL     1      27.363   4.326  48.987  1.00  0.00     0.002 A 
HETATM   21  C12 UNL     1      26.112   3.947  49.374  1.00  0.00     0.029 A 
ENDBRANCH  14  16
ENDBRANCH   4  14
TORSDOF 3
ENDMDL
MODEL 6
REMARK VINA RESULT:      -7.4      4.091      6.879
REMARK  3 active torsions:
REMARK  status: ('A' for Active; 'I' for Inactive)
REMARK    1  A    between atoms: C3_3  and  C4_4 
REMARK    2  A    between atoms: C6_7  and  N1_8 
REMARK    3  A    between atoms: N1_8  and  C7_9 
ROOT
HETATM    1  C4  UNL     1      22.684   1.792  52.538  1.00  0.00     0.076 A 
HETATM    2  C5  UNL     1      22.411   3.102  51.939  1.00  0.00     0.085 A 
HETATM    3  S1  UNL     1      24.025   3.954  52.148  1.00  0.00    -0.061 SA
HETATM    4  C6  UNL     1      24.780   2.447  52.984  1.00  0.00     0.171 A 
HETATM    5  N2  UNL     1      23.905   1.686  52.986  1.00  0.00    -0.223 NA
ENDROOT
BRANCH   1   6
HETATM    6  C3  UNL     1      21.726   0.704  52.627  1.00  0.00    -0.005 C 
HETATM    7  C2  UNL     1      20.768   0.686  51.537  1.00  0.00     0.015 C 
HETATM    8  C1  UNL     1      19.500   0.242  51.438  1.00  0.00     0.022 C 
HETATM    9  C15 UNL     1      18.568  -0.405  52.386  1.00  0.00     0.141 C 
HETATM   10  N4  UNL     1      18.804  -1.168  53.419  1.00  0.00    -0.163 NA
HETATM   11  N3  UNL     1      19.937  -1.687  54.061  1.00  0.00    -0.163 NA
HETATM   12  C14 UNL     1      21.179  -1.290  54.180  1.00  0.00     0.142 C 
HETATM   13  C13 UNL     1      21.848  -0.111  53.661  1.00  0.00     0.034 C 
ENDBRANCH   1   6
BRANCH   4  14
HETATM   14  N1  UNL     1      26.135   2.473  53.429  1.00  0.00    -0.335 N 
HETATM   15  H4  UNL     1      26.390   3.394  53.796  1.00  0.00     0.168 HD
BRANCH  14  16
HETATM   16  C7  UNL     1      27.074   1.426  53.413  1.00  0.00     0.034 A 
HETATM   17  C8  UNL     1      28.360   1.785  53.820  1.00  0.00     0.029 A 
HETATM   18  C9  UNL     1      29.398   0.885  53.871  1.00  0.00     0.002 A 
HETATM   19  C10 UNL     1      29.245  -0.428  53.528  1.00  0.00     0.000 A 
HETATM   20  C11 UNL     1      27.984  -0.795  53.126  1.00  0.00     0.002 A 
HETATM   21  C12 UNL     1      26.961   0.104  53.079  1.00  0.00     0.029 A 
ENDBRANCH  14  16
ENDBRANCH   4  14
TORSDOF 3
ENDMDL
MODEL 7
REMARK VINA RESULT:      -7.4      3.197      3.825
REMARK  3 active torsions:
REMARK  status: ('A' for Active; 'I' for Inactive)
REMARK    1  A    between atoms: C3_3  and  C4_4 
REMARK    2  A    between atoms: C6_7  and  N1_8 
REMARK    3  A    between atoms: N1_8  and  C7_9 
ROOT
HETATM    1  C4  UNL     1      24.849  -0.069  53.330  1.00  0.00     0.076 A 
HETATM    2  C5  UNL     1      23.591  -0.580  53.883  1.00  0.00     0.085 A 
HETATM    3  S1  UNL     1      22.359   0.552  53.122  1.00  0.00    -0.061 SA
HETATM    4  C6  UNL     1      23.705   1.500  52.212  1.00  0.00     0.171 A 
HETATM    5  N2  UNL     1      24.674   0.951  52.536  1.00  0.00    -0.223 NA
ENDROOT
BRANCH   1   6
HETATM    6  C3  UNL     1      26.162  -0.623  53.606  1.00  0.00    -0.005 C 
HETATM    7  C2  UNL     1      26.890   0.099  54.634  1.00  0.00     0.015 C 
HETATM    8  C1  UNL     1      28.203   0.282  54.870  1.00  0.00     0.022 C 
HETATM    9  C15 UNL     1      29.436  -0.169  54.190  1.00  0.00     0.141 C 
HETATM   10  N4  UNL     1      29.666  -1.237  53.474  1.00  0.00    -0.163 NA
HETATM   11  N3  UNL     1      28.932  -2.353  53.049  1.00  0.00    -0.163 NA
HETATM   12  C14 UNL     1      27.663  -2.572  52.810  1.00  0.00     0.142 C 
HETATM   13  C13 UNL     1      26.517  -1.687  52.907  1.00  0.00     0.034 C 
ENDBRANCH   1   6
BRANCH   4  14
HETATM   14  N1  UNL     1      23.368   2.604  51.374  1.00  0.00    -0.335 N 
HETATM   15  H4  UNL     1      23.537   3.496  51.846  1.00  0.00     0.168 HD
BRANCH  14  16
HETATM   16  C7  UNL     1      22.867   2.576  50.060  1.00  0.00     0.034 A 
HETATM   17  C8  UNL     1      23.132   3.720  49.306  1.00  0.00     0.029 A 
HETATM   18  C9  UNL     1      22.722   3.858  48.001  1.00  0.00     0.002 A 
HETATM   19  C10 UNL     1      22.025   2.882  47.347  1.00  0.00     0.000 A 
HETATM   20  C11 UNL     1      21.757   1.750  48.078  1.00  0.00     0.002 A 
HETATM   21  C12 UNL     1      22.169   1.622  49.371  1.00  0.00     0.029 A 
ENDBRANCH  14  16
ENDBRANCH   4  14
TORSDOF 3
ENDMDL
MODEL 8
REMARK VINA RESULT:      -7.4      1.663      2.726
REMARK  3 active torsions:
REMARK  status: ('A' for Active; 'I' for Inactive)
REMARK    1  A    between atoms: C3_3  and  C4_4 
REMARK    2  A    between atoms: C6_7  and  N1_8 
REMARK    3  A    between atoms: N1_8  and  C7_9 
ROOT
HETATM    1  C4  UNL     1      26.037   2.681  51.346  1.00  0.00     0.076 A 
HETATM    2  C5  UNL     1      24.818   3.489  51.442  1.00  0.00     0.085 A 
HETATM    3  S1  UNL     1      25.042   4.676  50.058  1.00  0.00    -0.061 SA
HETATM    4  C6  UNL     1      26.696   3.910  49.591  1.00  0.00     0.171 A 
HETATM    5  N2  UNL     1      26.817   3.059  50.369  1.00  0.00    -0.223 NA
ENDROOT
BRANCH   1   6
HETATM    6  C3  UNL     1      26.367   1.568  52.218  1.00  0.00    -0.005 C 
HETATM    7  C2  UNL     1      25.314   0.573  52.310  1.00  0.00     0.015 C 
HETATM    8  C1  UNL     1      24.954  -0.295  53.275  1.00  0.00     0.022 C 
HETATM    9  C15 UNL     1      25.475  -0.592  54.627  1.00  0.00     0.141 C 
HETATM   10  N4  UNL     1      26.680  -0.477  55.114  1.00  0.00    -0.163 NA
HETATM   11  N3  UNL     1      27.933  -0.061  54.641  1.00  0.00    -0.163 NA
HETATM   12  C14 UNL     1      28.323   0.774  53.710  1.00  0.00     0.142 C 
HETATM   13  C13 UNL     1      27.554   1.600  52.799  1.00  0.00     0.034 C 
ENDBRANCH   1   6
BRANCH   4  14
HETATM   14  N1  UNL     1      27.448   4.429  48.495  1.00  0.00    -0.335 N 
HETATM   15  H4  UNL     1      27.325   3.858  47.655  1.00  0.00     0.168 HD
BRANCH  14  16
HETATM   16  C7  UNL     1      28.273   5.568  48.471  1.00  0.00     0.034 A 
HETATM   17  C8  UNL     1      27.593   6.786  48.518  1.00  0.00     0.029 A 
HETATM   18  C9  UNL     1      28.243   7.997  48.510  1.00  0.00     0.002 A 
HETATM   19  C10 UNL     1      29.604   8.096  48.456  1.00  0.00     0.000 A 
HETATM   20  C11 UNL     1      30.285   6.904  48.409  1.00  0.00     0.002 A 
HETATM   21  C12 UNL     1      29.632   5.708  48.418  1.00  0.00     0.029 A 
ENDBRANCH  14  16
ENDBRANCH   4  14
TORSDOF 3
ENDMDL
MODEL 9
REMARK VINA RESULT:      -7.3      2.905      7.093
REMARK  3 active torsions:
REMARK  status: ('A' for Active; 'I' for Inactive)
REMARK    1  A    between atoms: C3_3  and  C4_4 
REMARK    2  A    between atoms: C6_7  and  N1_8 
REMARK    3  A    between atoms: N1_8  and  C7_9 
ROOT
HETATM    1  C4  UNL     1      23.295   1.256  52.398  1.00  0.00     0.076 A 
HETATM    2  C5  UNL     1      22.130   0.396  52.630  1.00  0.00     0.085 A 
HETATM    3  S1  UNL     1      22.870  -0.992  53.579  1.00  0.00    -0.061 SA
HETATM    4  C6  UNL     1      24.579  -0.207  53.509  1.00  0.00     0.171 A 
HETATM    5  N2  UNL     1      24.391   0.770  52.915  1.00  0.00    -0.223 NA
ENDROOT
BRANCH   1   6
HETATM    6  C3  UNL     1      23.265   2.521  51.687  1.00  0.00    -0.005 C 
HETATM    7  C2  UNL     1      23.266   2.373  50.243  1.00  0.00     0.015 C 
HETATM    8  C1  UNL     1      23.713   3.155  49.242  1.00  0.00     0.022 C 
HETATM    9  C15 UNL     1      24.380   4.474  49.196  1.00  0.00     0.141 C 
HETATM   10  N4  UNL     1      24.315   5.485  50.020  1.00  0.00    -0.163 NA
HETATM   11  N3  UNL     1      23.651   5.778  51.219  1.00  0.00    -0.163 NA
HETATM   12  C14 UNL     1      23.202   5.052  52.212  1.00  0.00     0.142 C 
HETATM   13  C13 UNL     1      23.238   3.617  52.426  1.00  0.00     0.034 C 
ENDBRANCH   1   6
BRANCH   4  14
HETATM   14  N1  UNL     1      25.694  -0.855  54.118  1.00  0.00    -0.335 N 
HETATM   15  H4  UNL     1      25.399  -1.663  54.673  1.00  0.00     0.168 HD
BRANCH  14  16
HETATM   16  C7  UNL     1      27.054  -0.509  54.027  1.00  0.00     0.034 A 
HETATM   17  C8  UNL     1      27.838  -1.402  53.294  1.00  0.00     0.029 A 
HETATM   18  C9  UNL     1      29.186  -1.214  53.098  1.00  0.00     0.002 A 
HETATM   19  C10 UNL     1      29.856  -0.138  53.607  1.00  0.00     0.000 A 
HETATM   20  C11 UNL     1      29.096   0.749  54.330  1.00  0.00     0.002 A 
HETATM   21  C12 UNL     1      27.760   0.555  54.518  1.00  0.00     0.029 A 
ENDBRANCH  14  16
ENDBRANCH   4  14
TORSDOF 3
ENDMDL
