MODEL 1
REMARK VINA RESULT:      -7.8      0.000      0.000
REMARK  5 active torsions:
REMARK  status: ('A' for Active; 'I' for Inactive)
REMARK    1  A    between atoms: C7_7  and  C8_8 
REMARK    2  A    between atoms: C8_8  and  C9_9 
REMARK    3  A    between atoms: C9_9  and  C10_10 
REMARK    4  A    between atoms: C11_11  and  C12_12 
REMARK    5  A    between atoms: C12_12  and  C13_13 
REMARK       I    between atoms: C13_13  and  N1_15 
ROOT
HETATM    1  C10 UNL     1      26.442   2.573  51.208  1.00  0.00    -0.030 C 
HETATM    2  C11 UNL     1      25.449   1.846  51.679  1.00  0.00    -0.022 C 
ENDROOT
BRANCH   1   3
HETATM    3  C9  UNL     1      26.646   3.075  49.844  1.00  0.00     0.031 C 
BRANCH   3   4
HETATM    4  C8  UNL     1      25.866   4.332  49.524  1.00  0.00     0.043 C 
BRANCH   4   5
HETATM    5  C7  UNL     1      26.768   5.296  48.849  1.00  0.00    -0.052 A 
HETATM    6  C2  UNL     1      26.184   6.485  48.458  1.00  0.00    -0.056 A 
HETATM    7  C1  UNL     1      24.773   6.871  48.652  1.00  0.00     0.049 C 
HETATM    8  C3  UNL     1      26.986   7.411  47.824  1.00  0.00     0.007 A 
HETATM    9  C4  UNL     1      28.328   7.260  47.541  1.00  0.00     0.001 A 
HETATM   10  C5  UNL     1      28.879   6.041  47.954  1.00  0.00     0.001 A 
HETATM   11  C6  UNL     1      28.087   5.102  48.591  1.00  0.00     0.007 A 
ENDBRANCH   4   5
ENDBRANCH   3   4
ENDBRANCH   1   3
BRANCH   2  12
HETATM   12  C12 UNL     1      25.082   1.261  52.996  1.00  0.00     0.129 C 
BRANCH  12  13
HETATM   13  C13 UNL     1      26.343   1.043  53.755  1.00  0.00     0.223 C 
HETATM   14  O1  UNL     1      26.248   2.030  54.542  1.00  0.00    -0.273 OA
HETATM   15  N1  UNL     1      27.238  -0.030  53.492  1.00  0.00    -0.352 N 
HETATM   16  C14 UNL     1      27.089  -1.076  52.475  1.00  0.00     0.125 C 
HETATM   17  C18 UNL     1      28.423  -0.091  54.320  1.00  0.00     0.125 C 
HETATM   18  C15 UNL     1      27.717  -2.320  53.104  1.00  0.00     0.020 C 
HETATM   19  C16 UNL     1      29.210  -2.070  53.108  1.00  0.00     0.003 C 
HETATM   20  C17 UNL     1      29.533  -0.631  53.447  1.00  0.00     0.020 C 
ENDBRANCH  12  13
ENDBRANCH   2  12
TORSDOF 5
ENDMDL
MODEL 2
REMARK VINA RESULT:      -7.8      4.249      7.115
REMARK  5 active torsions:
REMARK  status: ('A' for Active; 'I' for Inactive)
REMARK    1  A    between atoms: C7_7  and  C8_8 
REMARK    2  A    between atoms: C8_8  and  C9_9 
REMARK    3  A    between atoms: C9_9  and  C10_10 
REMARK    4  A    between atoms: C11_11  and  C12_12 
REMARK    5  A    between atoms: C12_12  and  C13_13 
REMARK       I    between atoms: C13_13  and  N1_15 
ROOT
HETATM    1  C10 UNL     1      23.666  -0.283  53.233  1.00  0.00    -0.030 C 
HETATM    2  C11 UNL     1      24.046   0.955  52.989  1.00  0.00    -0.022 C 
ENDROOT
BRANCH   1   3
HETATM    3  C9  UNL     1      22.353  -0.772  53.669  1.00  0.00     0.031 C 
BRANCH   3   4
HETATM    4  C8  UNL     1      21.327   0.320  53.887  1.00  0.00     0.043 C 
BRANCH   4   5
HETATM    5  C7  UNL     1      20.087  -0.035  53.158  1.00  0.00    -0.052 A 
HETATM    6  C2  UNL     1      19.887   0.627  51.962  1.00  0.00    -0.056 A 
HETATM    7  C1  UNL     1      20.784   1.634  51.361  1.00  0.00     0.049 C 
HETATM    8  C3  UNL     1      18.745   0.328  51.250  1.00  0.00     0.007 A 
HETATM    9  C4  UNL     1      17.773  -0.578  51.623  1.00  0.00     0.001 A 
HETATM   10  C5  UNL     1      18.014  -1.226  52.840  1.00  0.00     0.001 A 
HETATM   11  C6  UNL     1      19.156  -0.937  53.566  1.00  0.00     0.007 A 
ENDBRANCH   4   5
ENDBRANCH   3   4
ENDBRANCH   1   3
BRANCH   2  12
HETATM   12  C12 UNL     1      25.299   1.623  52.551  1.00  0.00     0.129 C 
BRANCH  12  13
HETATM   13  C13 UNL     1      26.369   1.242  53.513  1.00  0.00     0.223 C 
HETATM   14  O1  UNL     1      26.211   2.188  54.337  1.00  0.00    -0.273 OA
HETATM   15  N1  UNL     1      27.202   0.102  53.343  1.00  0.00    -0.352 N 
HETATM   16  C14 UNL     1      27.160  -0.868  52.243  1.00  0.00     0.125 C 
HETATM   17  C18 UNL     1      28.196  -0.121  54.370  1.00  0.00     0.125 C 
HETATM   18  C15 UNL     1      27.547  -2.199  52.886  1.00  0.00     0.020 C 
HETATM   19  C16 UNL     1      29.028  -2.099  53.186  1.00  0.00     0.003 C 
HETATM   20  C17 UNL     1      29.402  -0.719  53.681  1.00  0.00     0.020 C 
ENDBRANCH  12  13
ENDBRANCH   2  12
TORSDOF 5
ENDMDL
MODEL 3
REMARK VINA RESULT:      -7.7      2.290      6.907
REMARK  5 active torsions:
REMARK  status: ('A' for Active; 'I' for Inactive)
REMARK    1  A    between atoms: C7_7  and  C8_8 
REMARK    2  A    between atoms: C8_8  and  C9_9 
REMARK    3  A    between atoms: C9_9  and  C10_10 
REMARK    4  A    between atoms: C11_11  and  C12_12 
REMARK    5  A    between atoms: C12_12  and  C13_13 
REMARK       I    between atoms: C13_13  and  N1_15 
ROOT
HETATM    1  C10 UNL     1      23.978   1.013  53.045  1.00  0.00    -0.030 C 
HETATM    2  C11 UNL     1      23.769   1.896  52.089  1.00  0.00    -0.022 C 
ENDROOT
BRANCH   1   3
HETATM    3  C9  UNL     1      25.097   0.077  53.201  1.00  0.00     0.031 C 
BRANCH   3   4
HETATM    4  C8  UNL     1      26.174   0.218  52.147  1.00  0.00     0.043 C 
BRANCH   4   5
HETATM    5  C7  UNL     1      27.463  -0.248  52.713  1.00  0.00    -0.052 A 
HETATM    6  C2  UNL     1      28.300   0.746  53.184  1.00  0.00    -0.056 A 
HETATM    7  C1  UNL     1      28.028   2.196  53.173  1.00  0.00     0.049 C 
HETATM    8  C3  UNL     1      29.511   0.358  53.719  1.00  0.00     0.007 A 
HETATM    9  C4  UNL     1      29.969  -0.939  53.828  1.00  0.00     0.001 A 
HETATM   10  C5  UNL     1      29.090  -1.913  53.339  1.00  0.00     0.001 A 
HETATM   11  C6  UNL     1      27.871  -1.540  52.800  1.00  0.00     0.007 A 
ENDBRANCH   4   5
ENDBRANCH   3   4
ENDBRANCH   1   3
BRANCH   2  12
HETATM   12  C12 UNL     1      22.722   2.903  51.773  1.00  0.00     0.129 C 
BRANCH  12  13
HETATM   13  C13 UNL     1      23.410   4.200  51.527  1.00  0.00     0.223 C 
HETATM   14  O1  UNL     1      22.703   4.921  52.290  1.00  0.00    -0.273 OA
HETATM   15  N1  UNL     1      24.517   4.343  50.646  1.00  0.00    -0.352 N 
HETATM   16  C14 UNL     1      25.161   3.286  49.857  1.00  0.00     0.125 C 
HETATM   17  C18 UNL     1      25.063   5.676  50.519  1.00  0.00     0.125 C 
HETATM   18  C15 UNL     1      26.636   3.683  49.811  1.00  0.00     0.020 C 
HETATM   19  C16 UNL     1      26.712   4.882  48.889  1.00  0.00     0.003 C 
HETATM   20  C17 UNL     1      25.537   5.813  49.089  1.00  0.00     0.020 C 
ENDBRANCH  12  13
ENDBRANCH   2  12
TORSDOF 5
ENDMDL
MODEL 4
REMARK VINA RESULT:      -7.6      3.589      6.550
REMARK  5 active torsions:
REMARK  status: ('A' for Active; 'I' for Inactive)
REMARK    1  A    between atoms: C7_7  and  C8_8 
REMARK    2  A    between atoms: C8_8  and  C9_9 
REMARK    3  A    between atoms: C9_9  and  C10_10 
REMARK    4  A    between atoms: C11_11  and  C12_12 
REMARK    5  A    between atoms: C12_12  and  C13_13 
REMARK       I    between atoms: C13_13  and  N1_15 
ROOT
HETATM    1  C10 UNL     1      24.534   2.588  52.010  1.00  0.00    -0.030 C 
HETATM    2  C11 UNL     1      25.680   2.471  52.649  1.00  0.00    -0.022 C 
ENDROOT
BRANCH   1   3
HETATM    3  C9  UNL     1      23.170   2.457  52.538  1.00  0.00     0.031 C 
BRANCH   3   4
HETATM    4  C8  UNL     1      22.377   1.321  51.927  1.00  0.00     0.043 C 
BRANCH   4   5
HETATM    5  C7  UNL     1      22.181   0.269  52.952  1.00  0.00    -0.052 A 
HETATM    6  C2  UNL     1      20.904  -0.254  53.033  1.00  0.00    -0.056 A 
HETATM    7  C1  UNL     1      19.747   0.135  52.203  1.00  0.00     0.049 C 
HETATM    8  C3  UNL     1      20.676  -1.235  53.974  1.00  0.00     0.007 A 
HETATM    9  C4  UNL     1      21.610  -1.748  54.851  1.00  0.00     0.001 A 
HETATM   10  C5  UNL     1      22.888  -1.190  54.736  1.00  0.00     0.001 A 
HETATM   11  C6  UNL     1      23.133  -0.205  53.796  1.00  0.00     0.007 A 
ENDBRANCH   4   5
ENDBRANCH   3   4
ENDBRANCH   1   3
BRANCH   2  12
HETATM   12  C12 UNL     1      27.120   2.568  52.292  1.00  0.00     0.129 C 
BRANCH  12  13
HETATM   13  C13 UNL     1      27.873   1.694  53.232  1.00  0.00     0.223 C 
HETATM   14  O1  UNL     1      28.320   2.599  53.995  1.00  0.00    -0.273 OA
HETATM   15  N1  UNL     1      27.931   0.279  53.107  1.00  0.00    -0.352 N 
HETATM   16  C14 UNL     1      27.284  -0.545  52.079  1.00  0.00     0.125 C 
HETATM   17  C18 UNL     1      28.714  -0.419  54.103  1.00  0.00     0.125 C 
HETATM   18  C15 UNL     1      26.925  -1.846  52.796  1.00  0.00     0.020 C 
HETATM   19  C16 UNL     1      28.237  -2.567  53.024  1.00  0.00     0.003 C 
HETATM   20  C17 UNL     1      29.341  -1.606  53.406  1.00  0.00     0.020 C 
ENDBRANCH  12  13
ENDBRANCH   2  12
TORSDOF 5
ENDMDL
MODEL 5
REMARK VINA RESULT:      -7.6      2.045      3.138
REMARK  5 active torsions:
REMARK  status: ('A' for Active; 'I' for Inactive)
REMARK    1  A    between atoms: C7_7  and  C8_8 
REMARK    2  A    between atoms: C8_8  and  C9_9 
REMARK    3  A    between atoms: C9_9  and  C10_10 
REMARK    4  A    between atoms: C11_11  and  C12_12 
REMARK    5  A    between atoms: C12_12  and  C13_13 
REMARK       I    between atoms: C13_13  and  N1_15 
ROOT
HETATM    1  C10 UNL     1      26.129   1.675  51.130  1.00  0.00    -0.030 C 
HETATM    2  C11 UNL     1      26.808   0.852  51.902  1.00  0.00    -0.022 C 
ENDROOT
BRANCH   1   3
HETATM    3  C9  UNL     1      26.370   3.099  50.868  1.00  0.00     0.031 C 
BRANCH   3   4
HETATM    4  C8  UNL     1      25.765   3.601  49.574  1.00  0.00     0.043 C 
BRANCH   4   5
HETATM    5  C7  UNL     1      26.582   4.730  49.070  1.00  0.00    -0.052 A 
HETATM    6  C2  UNL     1      25.933   5.948  48.995  1.00  0.00    -0.056 A 
HETATM    7  C1  UNL     1      24.530   6.214  49.366  1.00  0.00     0.049 C 
HETATM    8  C3  UNL     1      26.655   7.027  48.530  1.00  0.00     0.007 A 
HETATM    9  C4  UNL     1      27.976   7.005  48.129  1.00  0.00     0.001 A 
HETATM   10  C5  UNL     1      28.594   5.752  48.221  1.00  0.00     0.001 A 
HETATM   11  C6  UNL     1      27.883   4.660  48.686  1.00  0.00     0.007 A 
ENDBRANCH   4   5
ENDBRANCH   3   4
ENDBRANCH   1   3
BRANCH   2  12
HETATM   12  C12 UNL     1      26.716  -0.584  52.280  1.00  0.00     0.129 C 
BRANCH  12  13
HETATM   13  C13 UNL     1      26.182  -0.646  53.668  1.00  0.00     0.223 C 
HETATM   14  O1  UNL     1      27.288  -0.658  54.282  1.00  0.00    -0.273 OA
HETATM   15  N1  UNL     1      24.793  -0.677  53.969  1.00  0.00    -0.352 N 
HETATM   16  C14 UNL     1      23.680  -0.648  53.014  1.00  0.00     0.125 C 
HETATM   17  C18 UNL     1      24.446  -0.744  55.372  1.00  0.00     0.125 C 
HETATM   18  C15 UNL     1      22.573   0.122  53.733  1.00  0.00     0.020 C 
HETATM   19  C16 UNL     1      22.060  -0.805  54.815  1.00  0.00     0.003 C 
HETATM   20  C17 UNL     1      23.186  -1.577  55.465  1.00  0.00     0.020 C 
ENDBRANCH  12  13
ENDBRANCH   2  12
TORSDOF 5
ENDMDL
MODEL 6
REMARK VINA RESULT:      -7.6      4.775      7.669
REMARK  5 active torsions:
REMARK  status: ('A' for Active; 'I' for Inactive)
REMARK    1  A    between atoms: C7_7  and  C8_8 
REMARK    2  A    between atoms: C8_8  and  C9_9 
REMARK    3  A    between atoms: C9_9  and  C10_10 
REMARK    4  A    between atoms: C11_11  and  C12_12 
REMARK    5  A    between atoms: C12_12  and  C13_13 
REMARK       I    between atoms: C13_13  and  N1_15 
ROOT
HETATM    1  C10 UNL     1      23.809   0.605  53.142  1.00  0.00    -0.030 C 
HETATM    2  C11 UNL     1      23.415   1.633  52.419  1.00  0.00    -0.022 C 
ENDROOT
BRANCH   1   3
HETATM    3  C9  UNL     1      25.076  -0.132  53.077  1.00  0.00     0.031 C 
BRANCH   3   4
HETATM    4  C8  UNL     1      26.232   0.673  52.522  1.00  0.00     0.043 C 
BRANCH   4   5
HETATM    5  C7  UNL     1      27.503   0.020  52.917  1.00  0.00    -0.052 A 
HETATM    6  C2  UNL     1      28.497   0.871  53.361  1.00  0.00    -0.056 A 
HETATM    7  C1  UNL     1      28.404   2.339  53.475  1.00  0.00     0.049 C 
HETATM    8  C3  UNL     1      29.698   0.307  53.739  1.00  0.00     0.007 A 
HETATM    9  C4  UNL     1      30.002  -1.039  53.714  1.00  0.00     0.001 A 
HETATM   10  C5  UNL     1      28.968  -1.865  53.258  1.00  0.00     0.001 A 
HETATM   11  C6  UNL     1      27.758  -1.313  52.876  1.00  0.00     0.007 A 
ENDBRANCH   4   5
ENDBRANCH   3   4
ENDBRANCH   1   3
BRANCH   2  12
HETATM   12  C12 UNL     1      22.200   2.487  52.344  1.00  0.00     0.129 C 
BRANCH  12  13
HETATM   13  C13 UNL     1      21.174   1.738  51.569  1.00  0.00     0.223 C 
HETATM   14  O1  UNL     1      21.438   2.210  50.425  1.00  0.00    -0.273 OA
HETATM   15  N1  UNL     1      20.269   0.814  52.159  1.00  0.00    -0.352 N 
HETATM   16  C14 UNL     1      20.185   0.440  53.575  1.00  0.00     0.125 C 
HETATM   17  C18 UNL     1      19.331   0.176  51.260  1.00  0.00     0.125 C 
HETATM   18  C15 UNL     1      19.766  -1.029  53.563  1.00  0.00     0.020 C 
HETATM   19  C16 UNL     1      18.315  -1.041  53.129  1.00  0.00     0.003 C 
HETATM   20  C17 UNL     1      18.052  -0.023  52.042  1.00  0.00     0.020 C 
ENDBRANCH  12  13
ENDBRANCH   2  12
TORSDOF 5
ENDMDL
MODEL 7
REMARK VINA RESULT:      -7.4      4.249      7.587
REMARK  5 active torsions:
REMARK  status: ('A' for Active; 'I' for Inactive)
REMARK    1  A    between atoms: C7_7  and  C8_8 
REMARK    2  A    between atoms: C8_8  and  C9_9 
REMARK    3  A    between atoms: C9_9  and  C10_10 
REMARK    4  A    between atoms: C11_11  and  C12_12 
REMARK    5  A    between atoms: C12_12  and  C13_13 
REMARK       I    between atoms: C13_13  and  N1_15 
ROOT
HETATM    1  C10 UNL     1      23.771  -0.088  53.573  1.00  0.00    -0.030 C 
HETATM    2  C11 UNL     1      23.171   0.646  52.658  1.00  0.00    -0.022 C 
ENDROOT
BRANCH   1   3
HETATM    3  C9  UNL     1      25.119  -0.669  53.546  1.00  0.00     0.031 C 
BRANCH   3   4
HETATM    4  C8  UNL     1      26.076   0.031  52.605  1.00  0.00     0.043 C 
BRANCH   4   5
HETATM    5  C7  UNL     1      27.464  -0.334  52.976  1.00  0.00    -0.052 A 
HETATM    6  C2  UNL     1      28.277   0.718  53.354  1.00  0.00    -0.056 A 
HETATM    7  C1  UNL     1      27.889   2.141  53.420  1.00  0.00     0.049 C 
HETATM    8  C3  UNL     1      29.577   0.425  53.706  1.00  0.00     0.007 A 
HETATM    9  C4  UNL     1      30.149  -0.831  53.716  1.00  0.00     0.001 A 
HETATM   10  C5  UNL     1      29.292  -1.867  53.326  1.00  0.00     0.001 A 
HETATM   11  C6  UNL     1      27.984  -1.588  52.970  1.00  0.00     0.007 A 
ENDBRANCH   4   5
ENDBRANCH   3   4
ENDBRANCH   1   3
BRANCH   2  12
HETATM   12  C12 UNL     1      21.847   1.306  52.514  1.00  0.00     0.129 C 
BRANCH  12  13
HETATM   13  C13 UNL     1      21.403   1.113  51.107  1.00  0.00     0.223 C 
HETATM   14  O1  UNL     1      20.698   0.077  51.284  1.00  0.00    -0.273 OA
HETATM   15  N1  UNL     1      21.789   1.971  50.041  1.00  0.00    -0.352 N 
HETATM   16  C14 UNL     1      22.652   3.155  50.128  1.00  0.00     0.125 C 
HETATM   17  C18 UNL     1      21.272   1.637  48.732  1.00  0.00     0.125 C 
HETATM   18  C15 UNL     1      22.097   4.116  49.076  1.00  0.00     0.020 C 
HETATM   19  C16 UNL     1      22.476   3.524  47.735  1.00  0.00     0.003 C 
HETATM   20  C17 UNL     1      22.343   2.017  47.735  1.00  0.00     0.020 C 
ENDBRANCH  12  13
ENDBRANCH   2  12
TORSDOF 5
ENDMDL
MODEL 8
REMARK VINA RESULT:      -7.4      2.924      6.832
REMARK  5 active torsions:
REMARK  status: ('A' for Active; 'I' for Inactive)
REMARK    1  A    between atoms: C7_7  and  C8_8 
REMARK    2  A    between atoms: C8_8  and  C9_9 
REMARK    3  A    between atoms: C9_9  and  C10_10 
REMARK    4  A    between atoms: C11_11  and  C12_12 
REMARK    5  A    between atoms: C12_12  and  C13_13 
REMARK       I    between atoms: C13_13  and  N1_15 
ROOT
HETATM    1  C10 UNL     1      23.658   0.384  53.338  1.00  0.00    -0.030 C 
HETATM    2  C11 UNL     1      23.371   0.945  52.181  1.00  0.00    -0.022 C 
ENDROOT
BRANCH   1   3
HETATM    3  C9  UNL     1      24.790  -0.483  53.682  1.00  0.00     0.031 C 
BRANCH   3   4
HETATM    4  C8  UNL     1      25.923  -0.450  52.679  1.00  0.00     0.043 C 
BRANCH   4   5
HETATM    5  C7  UNL     1      27.044   0.337  53.247  1.00  0.00    -0.052 A 
HETATM    6  C2  UNL     1      27.330   1.522  52.598  1.00  0.00    -0.056 A 
HETATM    7  C1  UNL     1      26.632   2.061  51.414  1.00  0.00     0.049 C 
HETATM    8  C3  UNL     1      28.366   2.286  53.093  1.00  0.00     0.007 A 
HETATM    9  C4  UNL     1      29.150   1.975  54.184  1.00  0.00     0.001 A 
HETATM   10  C5  UNL     1      28.826   0.767  54.813  1.00  0.00     0.001 A 
HETATM   11  C6  UNL     1      27.789  -0.010  54.328  1.00  0.00     0.007 A 
ENDBRANCH   4   5
ENDBRANCH   3   4
ENDBRANCH   1   3
BRANCH   2  12
HETATM   12  C12 UNL     1      22.297   1.831  51.658  1.00  0.00     0.129 C 
BRANCH  12  13
HETATM   13  C13 UNL     1      22.818   2.483  50.425  1.00  0.00     0.223 C 
HETATM   14  O1  UNL     1      22.401   1.632  49.586  1.00  0.00    -0.273 OA
HETATM   15  N1  UNL     1      23.547   3.704  50.434  1.00  0.00    -0.352 N 
HETATM   16  C14 UNL     1      23.899   4.514  51.606  1.00  0.00     0.125 C 
HETATM   17  C18 UNL     1      23.985   4.196  49.147  1.00  0.00     0.125 C 
HETATM   18  C15 UNL     1      23.863   5.957  51.103  1.00  0.00     0.020 C 
HETATM   19  C16 UNL     1      25.076   6.114  50.212  1.00  0.00     0.003 C 
HETATM   20  C17 UNL     1      25.316   4.877  49.375  1.00  0.00     0.020 C 
ENDBRANCH  12  13
ENDBRANCH   2  12
TORSDOF 5
ENDMDL
MODEL 9
REMARK VINA RESULT:      -7.3      2.922      3.881
REMARK  5 active torsions:
REMARK  status: ('A' for Active; 'I' for Inactive)
REMARK    1  A    between atoms: C7_7  and  C8_8 
REMARK    2  A    between atoms: C8_8  and  C9_9 
REMARK    3  A    between atoms: C9_9  and  C10_10 
REMARK    4  A    between atoms: C11_11  and  C12_12 
REMARK    5  A    between atoms: C12_12  and  C13_13 
REMARK       I    between atoms: C13_13  and  N1_15 
ROOT
HETATM    1  C10 UNL     1      26.418   2.996  50.676  1.00  0.00    -0.030 C 
HETATM    2  C11 UNL     1      25.307   2.592  51.256  1.00  0.00    -0.022 C 
ENDROOT
BRANCH   1   3
HETATM    3  C9  UNL     1      26.602   3.555  49.331  1.00  0.00     0.031 C 
BRANCH   3   4
HETATM    4  C8  UNL     1      26.121   4.983  49.183  1.00  0.00     0.043 C 
BRANCH   4   5
HETATM    5  C7  UNL     1      27.185   5.781  48.529  1.00  0.00    -0.052 A 
HETATM    6  C2  UNL     1      26.780   6.987  47.991  1.00  0.00    -0.056 A 
HETATM    7  C1  UNL     1      25.411   7.538  48.013  1.00  0.00     0.049 C 
HETATM    8  C3  UNL     1      27.738   7.763  47.372  1.00  0.00     0.007 A 
HETATM    9  C4  UNL     1      29.074   7.444  47.237  1.00  0.00     0.001 A 
HETATM   10  C5  UNL     1      29.441   6.214  47.796  1.00  0.00     0.001 A 
HETATM   11  C6  UNL     1      28.491   5.425  48.421  1.00  0.00     0.007 A 
ENDBRANCH   4   5
ENDBRANCH   3   4
ENDBRANCH   1   3
BRANCH   2  12
HETATM   12  C12 UNL     1      24.938   2.015  52.576  1.00  0.00     0.129 C 
BRANCH  12  13
HETATM   13  C13 UNL     1      23.452   1.939  52.630  1.00  0.00     0.223 C 
HETATM   14  O1  UNL     1      23.199   3.037  52.055  1.00  0.00    -0.273 OA
HETATM   15  N1  UNL     1      22.746   0.850  53.210  1.00  0.00    -0.352 N 
HETATM   16  C14 UNL     1      23.323  -0.348  53.830  1.00  0.00     0.125 C 
HETATM   17  C18 UNL     1      21.302   0.939  53.184  1.00  0.00     0.125 C 
HETATM   18  C15 UNL     1      22.331  -1.465  53.509  1.00  0.00     0.020 C 
HETATM   19  C16 UNL     1      21.114  -1.198  54.369  1.00  0.00     0.003 C 
HETATM   20  C17 UNL     1      20.806   0.281  54.452  1.00  0.00     0.020 C 
ENDBRANCH  12  13
ENDBRANCH   2  12
TORSDOF 5
ENDMDL
