MODEL 1
REMARK VINA RESULT:      -9.3      0.000      0.000
REMARK  2 active torsions:
REMARK  status: ('A' for Active; 'I' for Inactive)
REMARK    1  A    between atoms: C7_9  and  P1_10 
REMARK    2  A    between atoms: P1_10  and  N3_11 
ROOT
HETATM    1  N1  UNL     1      27.160   2.848  51.144  1.00  0.00    -0.191 NA
HETATM    2  C1  UNL     1      26.516   2.087  51.733  1.00  0.00     0.101 C 
HETATM    3  C2  UNL     1      25.719   1.133  52.440  1.00  0.00     0.070 A 
HETATM    4  C3  UNL     1      26.389   0.087  53.043  1.00  0.00     0.139 A 
HETATM    5  N2  UNL     1      25.844  -0.922  53.752  1.00  0.00    -0.271 NA
HETATM    6  C4  UNL     1      24.481  -0.859  53.859  1.00  0.00     0.128 A 
HETATM    7  C5  UNL     1      23.767   0.163  53.278  1.00  0.00    -0.010 A 
HETATM    8  C6  UNL     1      24.345   1.206  52.543  1.00  0.00    -0.011 A 
HETATM    9  C7  UNL     1      23.636   2.304  51.933  1.00  0.00     0.090 C 
HETATM   10  C8  UNL     1      22.970   2.036  50.621  1.00  0.00     0.004 C 
HETATM   11  C9  UNL     1      21.814   1.529  50.096  1.00  0.00    -0.005 C 
HETATM   12 BR1  UNL     1      21.856   1.608  48.141  1.00  0.00    -0.055 Br
HETATM   13  C10 UNL     1      20.925   1.043  51.196  1.00  0.00     0.068 C 
HETATM   14  C11 UNL     1      19.882   0.527  51.756  1.00  0.00    -0.060 C 
HETATM   15  C12 UNL     1      18.683   0.043  51.035  1.00  0.00     0.010 C 
HETATM   16  C13 UNL     1      17.592  -0.624  51.353  1.00  0.00     0.074 C 
HETATM   17  C14 UNL     1      17.401  -1.052  52.729  1.00  0.00     0.241 C 
HETATM   18  O1  UNL     1      16.150  -1.233  52.948  1.00  0.00    -0.269 OA
HETATM   19  N4  UNL     1      18.290  -1.288  53.800  1.00  0.00    -0.357 N 
HETATM   20  C15 UNL     1      19.705  -1.073  53.567  1.00  0.00     0.136 C 
HETATM   21  C16 UNL     1      19.920   0.400  53.215  1.00  0.00     0.056 C 
HETATM   22  C17 UNL     1      21.223   0.851  53.791  1.00  0.00    -0.015 C 
HETATM   23  C18 UNL     1      22.328   0.328  53.335  1.00  0.00     0.010 C 
HETATM   24  H11 UNL     1      17.807  -1.610  54.689  1.00  0.00     0.162 HD
ENDROOT
BRANCH   9  25
HETATM   25  P1  UNL     1      24.448   3.913  51.856  1.00  0.00    -0.025 P 
HETATM   26  H4  UNL     1      24.525   4.479  50.521  1.00  0.00     0.080 HD
BRANCH  25  27
HETATM   27  N3  UNL     1      23.742   5.085  52.986  1.00  0.00    -0.408 N 
HETATM   28  H5  UNL     1      24.402   5.750  53.403  1.00  0.00     0.154 HD
HETATM   29  H6  UNL     1      22.994   4.718  53.581  1.00  0.00     0.154 HD
ENDBRANCH  25  27
ENDBRANCH   9  25
TORSDOF 2
ENDMDL
MODEL 2
REMARK VINA RESULT:      -9.2      3.741      6.860
REMARK  2 active torsions:
REMARK  status: ('A' for Active; 'I' for Inactive)
REMARK    1  A    between atoms: C7_9  and  P1_10 
REMARK    2  A    between atoms: P1_10  and  N3_11 
ROOT
HETATM    1  N1  UNL     1      18.667   1.134  51.466  1.00  0.00    -0.191 NA
HETATM    2  C1  UNL     1      19.484   0.587  52.077  1.00  0.00     0.101 C 
HETATM    3  C2  UNL     1      20.494  -0.070  52.847  1.00  0.00     0.070 A 
HETATM    4  C3  UNL     1      20.062  -0.877  53.882  1.00  0.00     0.139 A 
HETATM    5  N2  UNL     1      20.832  -1.584  54.733  1.00  0.00    -0.271 NA
HETATM    6  C4  UNL     1      22.176  -1.457  54.509  1.00  0.00     0.128 A 
HETATM    7  C5  UNL     1      22.658  -0.667  53.491  1.00  0.00    -0.010 A 
HETATM    8  C6  UNL     1      21.847   0.063  52.613  1.00  0.00    -0.011 A 
HETATM    9  C7  UNL     1      22.310   0.888  51.524  1.00  0.00     0.090 C 
HETATM   10  C8  UNL     1      22.797   2.259  51.871  1.00  0.00     0.004 C 
HETATM   11  C9  UNL     1      23.914   2.914  52.307  1.00  0.00    -0.005 C 
HETATM   12 BR1  UNL     1      23.567   4.833  52.466  1.00  0.00    -0.055 Br
HETATM   13  C10 UNL     1      25.015   1.933  52.559  1.00  0.00     0.068 C 
HETATM   14  C11 UNL     1      26.188   1.504  52.887  1.00  0.00    -0.060 C 
HETATM   15  C12 UNL     1      27.315   2.361  53.319  1.00  0.00     0.010 C 
HETATM   16  C13 UNL     1      28.518   2.163  53.820  1.00  0.00     0.074 C 
HETATM   17  C14 UNL     1      28.969   0.802  54.058  1.00  0.00     0.241 C 
HETATM   18  O1  UNL     1      30.251   0.775  54.073  1.00  0.00    -0.269 OA
HETATM   19  N4  UNL     1      28.290  -0.419  54.261  1.00  0.00    -0.357 N 
HETATM   20  C15 UNL     1      26.841  -0.403  54.232  1.00  0.00     0.136 C 
HETATM   21  C16 UNL     1      26.389   0.054  52.843  1.00  0.00     0.056 C 
HETATM   22  C17 UNL     1      25.142  -0.682  52.472  1.00  0.00    -0.015 C 
HETATM   23  C18 UNL     1      24.056  -0.469  53.164  1.00  0.00     0.010 C 
HETATM   24  H11 UNL     1      28.940  -1.245  54.420  1.00  0.00     0.162 HD
ENDROOT
BRANCH   9  25
HETATM   25  P1  UNL     1      21.298   0.990  50.034  1.00  0.00    -0.025 P 
HETATM   26  H4  UNL     1      20.093   0.181  50.074  1.00  0.00     0.080 HD
BRANCH  25  27
HETATM   27  N3  UNL     1      20.904   2.664  49.594  1.00  0.00    -0.408 N 
HETATM   28  H5  UNL     1      21.507   3.383  50.007  1.00  0.00     0.154 HD
HETATM   29  H6  UNL     1      19.905   2.869  49.514  1.00  0.00     0.154 HD
ENDBRANCH  25  27
ENDBRANCH   9  25
TORSDOF 2
ENDMDL
MODEL 3
REMARK VINA RESULT:      -8.7      1.131      1.312
REMARK  2 active torsions:
REMARK  status: ('A' for Active; 'I' for Inactive)
REMARK    1  A    between atoms: C7_9  and  P1_10 
REMARK    2  A    between atoms: P1_10  and  N3_11 
ROOT
HETATM    1  N1  UNL     1      26.809   4.267  49.632  1.00  0.00    -0.191 NA
HETATM    2  C1  UNL     1      26.412   3.429  50.325  1.00  0.00     0.101 C 
HETATM    3  C2  UNL     1      25.916   2.380  51.160  1.00  0.00     0.070 A 
HETATM    4  C3  UNL     1      26.835   1.446  51.598  1.00  0.00     0.139 A 
HETATM    5  N2  UNL     1      26.592   0.379  52.385  1.00  0.00    -0.271 NA
HETATM    6  C4  UNL     1      25.284   0.249  52.764  1.00  0.00     0.128 A 
HETATM    7  C5  UNL     1      24.330   1.152  52.356  1.00  0.00    -0.010 A 
HETATM    8  C6  UNL     1      24.595   2.258  51.538  1.00  0.00    -0.011 A 
HETATM    9  C7  UNL     1      23.629   3.237  51.103  1.00  0.00     0.090 C 
HETATM   10  C8  UNL     1      22.758   2.863  49.946  1.00  0.00     0.004 C 
HETATM   11  C9  UNL     1      21.604   2.191  49.656  1.00  0.00    -0.005 C 
HETATM   12 BR1  UNL     1      21.239   2.252  47.734  1.00  0.00    -0.055 Br
HETATM   13  C10 UNL     1      21.032   1.596  50.903  1.00  0.00     0.068 C 
HETATM   14  C11 UNL     1      20.206   0.944  51.652  1.00  0.00    -0.060 C 
HETATM   15  C12 UNL     1      18.968   0.286  51.179  1.00  0.00     0.010 C 
HETATM   16  C13 UNL     1      18.069  -0.526  51.697  1.00  0.00     0.074 C 
HETATM   17  C14 UNL     1      18.221  -0.960  53.076  1.00  0.00     0.241 C 
HETATM   18  O1  UNL     1      17.078  -1.314  53.539  1.00  0.00    -0.269 OA
HETATM   19  N4  UNL     1      19.332  -1.056  53.942  1.00  0.00    -0.357 N 
HETATM   20  C15 UNL     1      20.625  -0.645  53.433  1.00  0.00     0.136 C 
HETATM   21  C16 UNL     1      20.555   0.840  53.071  1.00  0.00     0.056 C 
HETATM   22  C17 UNL     1      21.870   1.478  53.382  1.00  0.00    -0.015 C 
HETATM   23  C18 UNL     1      22.923   1.112  52.704  1.00  0.00     0.010 C 
HETATM   24  H11 UNL     1      19.088  -1.433  54.905  1.00  0.00     0.162 HD
ENDROOT
BRANCH   9  25
HETATM   25  P1  UNL     1      24.173   4.944  50.892  1.00  0.00    -0.025 P 
HETATM   26  H4  UNL     1      23.454   5.678  49.867  1.00  0.00     0.080 HD
BRANCH  25  27
HETATM   27  N3  UNL     1      24.173   5.850  52.418  1.00  0.00    -0.408 N 
HETATM   28  H5  UNL     1      24.742   5.449  53.171  1.00  0.00     0.154 HD
HETATM   29  H6  UNL     1      23.277   6.274  52.671  1.00  0.00     0.154 HD
ENDBRANCH  25  27
ENDBRANCH   9  25
TORSDOF 2
ENDMDL
MODEL 4
REMARK VINA RESULT:      -8.6      2.915      4.411
REMARK  2 active torsions:
REMARK  status: ('A' for Active; 'I' for Inactive)
REMARK    1  A    between atoms: C7_9  and  P1_10 
REMARK    2  A    between atoms: P1_10  and  N3_11 
ROOT
HETATM    1  N1  UNL     1      24.178   7.307  48.082  1.00  0.00    -0.191 NA
HETATM    2  C1  UNL     1      24.652   6.402  48.628  1.00  0.00     0.101 C 
HETATM    3  C2  UNL     1      25.227   5.269  49.285  1.00  0.00     0.070 A 
HETATM    4  C3  UNL     1      26.489   4.887  48.874  1.00  0.00     0.139 A 
HETATM    5  N2  UNL     1      27.216   3.854  49.347  1.00  0.00    -0.271 NA
HETATM    6  C4  UNL     1      26.597   3.141  50.338  1.00  0.00     0.128 A 
HETATM    7  C5  UNL     1      25.341   3.482  50.783  1.00  0.00    -0.010 A 
HETATM    8  C6  UNL     1      24.595   4.557  50.283  1.00  0.00    -0.011 A 
HETATM    9  C7  UNL     1      23.285   4.959  50.733  1.00  0.00     0.090 C 
HETATM   10  C8  UNL     1      22.120   4.185  50.205  1.00  0.00     0.004 C 
HETATM   11  C9  UNL     1      21.405   3.043  50.437  1.00  0.00    -0.005 C 
HETATM   12 BR1  UNL     1      19.951   2.867  49.139  1.00  0.00    -0.055 Br
HETATM   13  C10 UNL     1      22.005   2.290  51.582  1.00  0.00     0.068 C 
HETATM   14  C11 UNL     1      22.147   1.352  52.458  1.00  0.00    -0.060 C 
HETATM   15  C12 UNL     1      21.256   0.178  52.597  1.00  0.00     0.010 C 
HETATM   16  C13 UNL     1      21.267  -0.943  53.290  1.00  0.00     0.074 C 
HETATM   17  C14 UNL     1      22.385  -1.212  54.179  1.00  0.00     0.241 C 
HETATM   18  O1  UNL     1      22.018  -2.044  55.084  1.00  0.00    -0.269 OA
HETATM   19  N4  UNL     1      23.719  -0.751  54.221  1.00  0.00    -0.357 N 
HETATM   20  C15 UNL     1      24.141   0.199  53.211  1.00  0.00     0.136 C 
HETATM   21  C16 UNL     1      23.298   1.468  53.357  1.00  0.00     0.056 C 
HETATM   22  C17 UNL     1      24.149   2.655  53.042  1.00  0.00    -0.015 C 
HETATM   23  C18 UNL     1      24.600   2.801  51.827  1.00  0.00     0.010 C 
HETATM   24  H11 UNL     1      24.287  -1.168  55.017  1.00  0.00     0.162 HD
ENDROOT
BRANCH   9  25
HETATM   25  P1  UNL     1      22.873   6.715  50.716  1.00  0.00    -0.025 P 
HETATM   26  H4  UNL     1      21.538   7.020  51.199  1.00  0.00     0.080 HD
BRANCH  25  27
HETATM   27  N3  UNL     1      24.078   7.704  51.565  1.00  0.00    -0.408 N 
HETATM   28  H5  UNL     1      24.513   8.446  51.007  1.00  0.00     0.154 HD
HETATM   29  H6  UNL     1      24.671   7.194  52.225  1.00  0.00     0.154 HD
ENDBRANCH  25  27
ENDBRANCH   9  25
TORSDOF 2
ENDMDL
MODEL 5
REMARK VINA RESULT:      -8.0      3.886      6.610
REMARK  2 active torsions:
REMARK  status: ('A' for Active; 'I' for Inactive)
REMARK    1  A    between atoms: C7_9  and  P1_10 
REMARK    2  A    between atoms: P1_10  and  N3_11 
ROOT
HETATM    1  N1  UNL     1      19.917   4.108  48.145  1.00  0.00    -0.191 NA
HETATM    2  C1  UNL     1      20.184   3.663  49.180  1.00  0.00     0.101 C 
HETATM    3  C2  UNL     1      20.525   3.133  50.464  1.00  0.00     0.070 A 
HETATM    4  C3  UNL     1      19.618   3.343  51.484  1.00  0.00     0.139 A 
HETATM    5  N2  UNL     1      19.734   2.939  52.765  1.00  0.00    -0.271 NA
HETATM    6  C4  UNL     1      20.887   2.254  53.035  1.00  0.00     0.128 A 
HETATM    7  C5  UNL     1      21.822   2.018  52.053  1.00  0.00    -0.010 A 
HETATM    8  C6  UNL     1      21.691   2.442  50.725  1.00  0.00    -0.011 A 
HETATM    9  C7  UNL     1      22.637   2.202  49.664  1.00  0.00     0.090 C 
HETATM   10  C8  UNL     1      23.833   3.097  49.605  1.00  0.00     0.004 C 
HETATM   11  C9  UNL     1      25.083   3.241  50.138  1.00  0.00    -0.005 C 
HETATM   12 BR1  UNL     1      25.970   4.819  49.393  1.00  0.00    -0.055 Br
HETATM   13  C10 UNL     1      25.335   2.166  51.147  1.00  0.00     0.068 C 
HETATM   14  C11 UNL     1      25.975   1.478  52.032  1.00  0.00    -0.060 C 
HETATM   15  C12 UNL     1      27.357   1.754  52.486  1.00  0.00     0.010 C 
HETATM   16  C13 UNL     1      28.149   1.304  53.439  1.00  0.00     0.074 C 
HETATM   17  C14 UNL     1      27.656   0.274  54.339  1.00  0.00     0.241 C 
HETATM   18  O1  UNL     1      28.651  -0.358  54.846  1.00  0.00    -0.269 OA
HETATM   19  N4  UNL     1      26.361  -0.129  54.729  1.00  0.00    -0.357 N 
HETATM   20  C15 UNL     1      25.230   0.569  54.151  1.00  0.00     0.136 C 
HETATM   21  C16 UNL     1      25.251   0.357  52.636  1.00  0.00     0.056 C 
HETATM   22  C17 UNL     1      23.845   0.255  52.141  1.00  0.00    -0.015 C 
HETATM   23  C18 UNL     1      23.069   1.300  52.229  1.00  0.00     0.010 C 
HETATM   24  H11 UNL     1      26.359  -0.929  55.429  1.00  0.00     0.162 HD
ENDROOT
BRANCH   9  25
HETATM   25  P1  UNL     1      22.007   1.963  47.990  1.00  0.00    -0.025 P 
HETATM   26  H4  UNL     1      20.571   1.764  47.915  1.00  0.00     0.080 HD
BRANCH  25  27
HETATM   27  N3  UNL     1      22.511   3.255  46.884  1.00  0.00    -0.408 N 
HETATM   28  H5  UNL     1      23.396   3.717  47.118  1.00  0.00     0.154 HD
HETATM   29  H6  UNL     1      21.752   3.836  46.519  1.00  0.00     0.154 HD
ENDBRANCH  25  27
ENDBRANCH   9  25
TORSDOF 2
ENDMDL
MODEL 6
REMARK VINA RESULT:      -7.7      3.887      5.885
REMARK  2 active torsions:
REMARK  status: ('A' for Active; 'I' for Inactive)
REMARK    1  A    between atoms: C7_9  and  P1_10 
REMARK    2  A    between atoms: P1_10  and  N3_11 
ROOT
HETATM    1  N1  UNL     1      26.026  -1.093  53.680  1.00  0.00    -0.191 NA
HETATM    2  C1  UNL     1      25.037  -0.548  53.424  1.00  0.00     0.101 C 
HETATM    3  C2  UNL     1      23.820   0.121  53.083  1.00  0.00     0.070 A 
HETATM    4  C3  UNL     1      22.679  -0.657  53.022  1.00  0.00     0.139 A 
HETATM    5  N2  UNL     1      21.433  -0.242  52.718  1.00  0.00    -0.271 NA
HETATM    6  C4  UNL     1      21.337   1.097  52.451  1.00  0.00     0.128 A 
HETATM    7  C5  UNL     1      22.443   1.914  52.499  1.00  0.00    -0.010 A 
HETATM    8  C6  UNL     1      23.733   1.471  52.816  1.00  0.00    -0.011 A 
HETATM    9  C7  UNL     1      24.914   2.296  52.895  1.00  0.00     0.090 C 
HETATM   10  C8  UNL     1      25.584   2.646  51.604  1.00  0.00     0.004 C 
HETATM   11  C9  UNL     1      25.516   3.548  50.579  1.00  0.00    -0.005 C 
HETATM   12 BR1  UNL     1      26.913   3.189  49.256  1.00  0.00    -0.055 Br
HETATM   13  C10 UNL     1      24.365   4.479  50.793  1.00  0.00     0.068 C 
HETATM   14  C11 UNL     1      23.555   5.457  50.563  1.00  0.00    -0.060 C 
HETATM   15  C12 UNL     1      23.636   6.371  49.401  1.00  0.00     0.010 C 
HETATM   16  C13 UNL     1      22.878   7.319  48.887  1.00  0.00     0.074 C 
HETATM   17  C14 UNL     1      21.616   7.643  49.532  1.00  0.00     0.241 C 
HETATM   18  O1  UNL     1      21.272   8.838  49.218  1.00  0.00    -0.269 OA
HETATM   19  N4  UNL     1      20.756   6.921  50.388  1.00  0.00    -0.357 N 
HETATM   20  C15 UNL     1      21.143   5.574  50.760  1.00  0.00     0.136 C 
HETATM   21  C16 UNL     1      22.466   5.643  51.525  1.00  0.00     0.056 C 
HETATM   22  C17 UNL     1      22.465   4.597  52.592  1.00  0.00    -0.015 C 
HETATM   23  C18 UNL     1      22.452   3.341  52.241  1.00  0.00     0.010 C 
HETATM   24  H11 UNL     1      19.889   7.464  50.674  1.00  0.00     0.162 HD
ENDROOT
BRANCH   9  25
HETATM   25  P1  UNL     1      26.178   1.872  54.109  1.00  0.00    -0.025 P 
HETATM   26  H4  UNL     1      26.388   0.445  54.280  1.00  0.00     0.080 HD
BRANCH  25  27
HETATM   27  N3  UNL     1      27.721   2.691  53.798  1.00  0.00    -0.408 N 
HETATM   28  H5  UNL     1      28.090   2.594  52.846  1.00  0.00     0.154 HD
HETATM   29  H6  UNL     1      28.390   2.667  54.573  1.00  0.00     0.154 HD
ENDBRANCH  25  27
ENDBRANCH   9  25
TORSDOF 2
ENDMDL
MODEL 7
REMARK VINA RESULT:      -7.6      3.865      6.280
REMARK  2 active torsions:
REMARK  status: ('A' for Active; 'I' for Inactive)
REMARK    1  A    between atoms: C7_9  and  P1_10 
REMARK    2  A    between atoms: P1_10  and  N3_11 
ROOT
HETATM    1  N1  UNL     1      21.059   6.505  47.368  1.00  0.00    -0.191 NA
HETATM    2  C1  UNL     1      22.034   6.279  47.950  1.00  0.00     0.101 C 
HETATM    3  C2  UNL     1      23.242   5.978  48.655  1.00  0.00     0.070 A 
HETATM    4  C3  UNL     1      24.408   6.521  48.149  1.00  0.00     0.139 A 
HETATM    5  N2  UNL     1      25.653   6.368  48.645  1.00  0.00    -0.271 NA
HETATM    6  C4  UNL     1      25.717   5.587  49.767  1.00  0.00     0.128 A 
HETATM    7  C5  UNL     1      24.585   5.026  50.310  1.00  0.00    -0.010 A 
HETATM    8  C6  UNL     1      23.297   5.191  49.786  1.00  0.00    -0.011 A 
HETATM    9  C7  UNL     1      22.084   4.635  50.333  1.00  0.00     0.090 C 
HETATM   10  C8  UNL     1      21.793   3.201  50.021  1.00  0.00     0.004 C 
HETATM   11  C9  UNL     1      22.086   1.937  50.449  1.00  0.00    -0.005 C 
HETATM   12 BR1  UNL     1      21.168   0.608  49.345  1.00  0.00    -0.055 Br
HETATM   13  C10 UNL     1      23.049   1.995  51.593  1.00  0.00     0.068 C 
HETATM   14  C11 UNL     1      23.812   1.566  52.542  1.00  0.00    -0.060 C 
HETATM   15  C12 UNL     1      24.002   0.143  52.900  1.00  0.00     0.010 C 
HETATM   16  C13 UNL     1      24.800  -0.534  53.702  1.00  0.00     0.074 C 
HETATM   17  C14 UNL     1      25.790   0.186  54.485  1.00  0.00     0.241 C 
HETATM   18  O1  UNL     1      26.116  -0.518  55.508  1.00  0.00    -0.269 OA
HETATM   19  N4  UNL     1      26.417   1.441  54.331  1.00  0.00    -0.357 N 
HETATM   20  C15 UNL     1      26.045   2.250  53.187  1.00  0.00     0.136 C 
HETATM   21  C16 UNL     1      24.556   2.582  53.291  1.00  0.00     0.056 C 
HETATM   22  C17 UNL     1      24.328   3.960  52.762  1.00  0.00    -0.015 C 
HETATM   23  C18 UNL     1      24.540   4.191  51.495  1.00  0.00     0.010 C 
HETATM   24  H11 UNL     1      27.118   1.662  55.099  1.00  0.00     0.162 HD
ENDROOT
BRANCH   9  25
HETATM   25  P1  UNL     1      20.558   5.584  50.178  1.00  0.00    -0.025 P 
HETATM   26  H4  UNL     1      20.718   6.870  49.523  1.00  0.00     0.080 HD
BRANCH  25  27
HETATM   27  N3  UNL     1      19.256   4.656  49.408  1.00  0.00    -0.408 N 
HETATM   28  H5  UNL     1      18.834   3.921  49.987  1.00  0.00     0.154 HD
HETATM   29  H6  UNL     1      19.392   4.459  48.413  1.00  0.00     0.154 HD
ENDBRANCH  25  27
ENDBRANCH   9  25
TORSDOF 2
ENDMDL
MODEL 8
REMARK VINA RESULT:      -7.5      5.576      7.404
REMARK  2 active torsions:
REMARK  status: ('A' for Active; 'I' for Inactive)
REMARK    1  A    between atoms: C7_9  and  P1_10 
REMARK    2  A    between atoms: P1_10  and  N3_11 
ROOT
HETATM    1  N1  UNL     1      29.343   9.795  47.518  1.00  0.00    -0.191 NA
HETATM    2  C1  UNL     1      29.066   8.696  47.753  1.00  0.00     0.101 C 
HETATM    3  C2  UNL     1      28.716   7.334  48.018  1.00  0.00     0.070 A 
HETATM    4  C3  UNL     1      29.702   6.388  47.819  1.00  0.00     0.139 A 
HETATM    5  N2  UNL     1      29.595   5.057  48.001  1.00  0.00    -0.271 NA
HETATM    6  C4  UNL     1      28.362   4.648  48.430  1.00  0.00     0.128 A 
HETATM    7  C5  UNL     1      27.346   5.550  48.645  1.00  0.00    -0.010 A 
HETATM    8  C6  UNL     1      27.470   6.932  48.452  1.00  0.00    -0.011 A 
HETATM    9  C7  UNL     1      26.437   7.913  48.682  1.00  0.00     0.090 C 
HETATM   10  C8  UNL     1      25.404   8.073  47.612  1.00  0.00     0.004 C 
HETATM   11  C9  UNL     1      24.227   7.530  47.178  1.00  0.00    -0.005 C 
HETATM   12 BR1  UNL     1      23.572   8.485  45.600  1.00  0.00    -0.055 Br
HETATM   13  C10 UNL     1      23.860   6.358  48.032  1.00  0.00     0.068 C 
HETATM   14  C11 UNL     1      23.166   5.357  48.461  1.00  0.00    -0.060 C 
HETATM   15  C12 UNL     1      21.878   4.909  47.886  1.00  0.00     0.010 C 
HETATM   16  C13 UNL     1      21.078   3.873  48.048  1.00  0.00     0.074 C 
HETATM   17  C14 UNL     1      21.445   2.839  49.002  1.00  0.00     0.241 C 
HETATM   18  O1  UNL     1      20.390   2.209  49.371  1.00  0.00    -0.269 OA
HETATM   19  N4  UNL     1      22.676   2.431  49.559  1.00  0.00    -0.357 N 
HETATM   20  C15 UNL     1      23.872   3.146  49.159  1.00  0.00     0.136 C 
HETATM   21  C16 UNL     1      23.729   4.608  49.587  1.00  0.00     0.056 C 
HETATM   22  C17 UNL     1      25.068   5.125  50.002  1.00  0.00    -0.015 C 
HETATM   23  C18 UNL     1      26.010   5.226  49.104  1.00  0.00     0.010 C 
HETATM   24  H11 UNL     1      22.587   1.615  50.233  1.00  0.00     0.162 HD
ENDROOT
BRANCH   9  25
HETATM   25  P1  UNL     1      26.922   9.547  49.271  1.00  0.00    -0.025 P 
HETATM   26  H4  UNL     1      25.859  10.534  49.237  1.00  0.00     0.080 HD
BRANCH  25  27
HETATM   27  N3  UNL     1      27.665   9.495  50.882  1.00  0.00    -0.408 N 
HETATM   28  H5  UNL     1      28.133  10.357  51.182  1.00  0.00     0.154 HD
HETATM   29  H6  UNL     1      28.104   8.604  51.129  1.00  0.00     0.154 HD
ENDBRANCH  25  27
ENDBRANCH   9  25
TORSDOF 2
ENDMDL
MODEL 9
REMARK VINA RESULT:      -7.5      8.568     11.474
REMARK  2 active torsions:
REMARK  status: ('A' for Active; 'I' for Inactive)
REMARK    1  A    between atoms: C7_9  and  P1_10 
REMARK    2  A    between atoms: P1_10  and  N3_11 
ROOT
HETATM    1  N1  UNL     1      33.760  10.445  46.014  1.00  0.00    -0.191 NA
HETATM    2  C1  UNL     1      32.776  10.493  46.621  1.00  0.00     0.101 C 
HETATM    3  C2  UNL     1      31.570  10.538  47.389  1.00  0.00     0.070 A 
HETATM    4  C3  UNL     1      31.424  11.604  48.255  1.00  0.00     0.139 A 
HETATM    5  N2  UNL     1      30.380  11.846  49.073  1.00  0.00    -0.271 NA
HETATM    6  C4  UNL     1      29.385  10.909  49.001  1.00  0.00     0.128 A 
HETATM    7  C5  UNL     1      29.481   9.830  48.154  1.00  0.00    -0.010 A 
HETATM    8  C6  UNL     1      30.571   9.590  47.309  1.00  0.00    -0.011 A 
HETATM    9  C7  UNL     1      30.704   8.482  46.394  1.00  0.00     0.090 C 
HETATM   10  C8  UNL     1      31.141   7.173  46.973  1.00  0.00     0.004 C 
HETATM   11  C9  UNL     1      30.642   6.068  47.603  1.00  0.00    -0.005 C 
HETATM   12 BR1  UNL     1      32.075   4.793  47.989  1.00  0.00    -0.055 Br
HETATM   13  C10 UNL     1      29.171   6.227  47.824  1.00  0.00     0.068 C 
HETATM   14  C11 UNL     1      27.975   5.922  48.204  1.00  0.00    -0.060 C 
HETATM   15  C12 UNL     1      27.590   4.651  48.858  1.00  0.00     0.010 C 
HETATM   16  C13 UNL     1      26.509   4.176  49.443  1.00  0.00     0.074 C 
HETATM   17  C14 UNL     1      25.327   5.018  49.534  1.00  0.00     0.241 C 
HETATM   18  O1  UNL     1      24.288   4.279  49.672  1.00  0.00    -0.269 OA
HETATM   19  N4  UNL     1      25.133   6.416  49.501  1.00  0.00    -0.357 N 
HETATM   20  C15 UNL     1      26.299   7.260  49.331  1.00  0.00     0.136 C 
HETATM   21  C16 UNL     1      26.941   6.935  47.981  1.00  0.00     0.056 C 
HETATM   22  C17 UNL     1      27.494   8.192  47.392  1.00  0.00    -0.015 C 
HETATM   23  C18 UNL     1      28.486   8.787  47.996  1.00  0.00     0.010 C 
HETATM   24  H11 UNL     1      24.116   6.705  49.608  1.00  0.00     0.162 HD
ENDROOT
BRANCH   9  25
HETATM   25  P1  UNL     1      31.581   8.752  44.841  1.00  0.00    -0.025 P 
HETATM   26  H4  UNL     1      32.045  10.113  44.646  1.00  0.00     0.080 HD
BRANCH  25  27
HETATM   27  N3  UNL     1      32.913   7.604  44.604  1.00  0.00    -0.408 N 
HETATM   28  H5  UNL     1      32.668   6.736  44.116  1.00  0.00     0.154 HD
HETATM   29  H6  UNL     1      33.576   7.542  45.381  1.00  0.00     0.154 HD
ENDBRANCH  25  27
ENDBRANCH   9  25
TORSDOF 2
ENDMDL
