MODEL 1
REMARK VINA RESULT:      -7.8      0.000      0.000
REMARK  4 active torsions:
REMARK  status: ('A' for Active; 'I' for Inactive)
REMARK    1  A    between atoms: O1_2  and  C2_3 
REMARK    2  A    between atoms: C2_3  and  C6_9 
REMARK    3  A    between atoms: C3_4  and  O2_5 
REMARK    4  A    between atoms: O2_5  and  C4_6 
ROOT
HETATM    1  C6  UNL     1      25.802   1.837  51.155  1.00  0.00     0.113 C 
HETATM    2  C7  UNL     1      24.493   1.811  51.860  1.00  0.00    -0.049 A 
HETATM    3  C8  UNL     1      23.470   1.135  52.500  1.00  0.00    -0.066 A 
HETATM    4  C9  UNL     1      22.884  -0.172  52.990  1.00  0.00     0.045 C 
HETATM    5  C10 UNL     1      23.425   2.499  52.341  1.00  0.00     0.011 A 
HETATM    6  C11 UNL     1      22.596   3.327  51.424  1.00  0.00     0.044 C 
HETATM    7  C12 UNL     1      23.152   4.551  52.167  1.00  0.00     0.085 C 
HETATM    8  C13 UNL     1      23.539   3.606  53.308  1.00  0.00     0.044 C 
HETATM    9  N1  UNL     1      24.389   4.999  51.562  1.00  0.00    -0.370 N 
HETATM   10  C14 UNL     1      25.378   4.502  50.671  1.00  0.00     0.134 A 
HETATM   11  N2  UNL     1      25.817   5.486  49.849  1.00  0.00    -0.224 NA
HETATM   12  C15 UNL     1      26.758   5.212  48.931  1.00  0.00     0.234 A 
HETATM   13  N3  UNL     1      27.288   3.966  48.800  1.00  0.00    -0.253 NA
HETATM   14  C16 UNL     1      26.857   2.977  49.613  1.00  0.00     0.130 A 
HETATM   15  C17 UNL     1      25.878   3.214  50.586  1.00  0.00     0.020 A 
HETATM   16  H17 UNL     1      24.551   5.977  51.921  1.00  0.00     0.161 HD
ENDROOT
BRANCH   1  17
HETATM   17  C2  UNL     1      26.891   1.580  52.124  1.00  0.00     0.081 C 
HETATM   18  C3  UNL     1      26.930   0.421  52.759  1.00  0.00     0.178 C 
BRANCH  17  19
HETATM   19  O1  UNL     1      27.871   2.530  52.381  1.00  0.00    -0.357 OA
HETATM   20  C1  UNL     1      28.579   2.531  53.606  1.00  0.00     0.209 C 
ENDBRANCH  17  19
BRANCH  18  21
HETATM   21  O2  UNL     1      27.475  -0.462  53.639  1.00  0.00    -0.289 OA
BRANCH  21  22
HETATM   22  C4  UNL     1      28.554  -1.280  53.392  1.00  0.00     0.259 C 
HETATM   23  C5  UNL     1      29.979  -0.889  53.516  1.00  0.00     0.126 C 
HETATM   24  O3  UNL     1      28.149  -2.430  53.040  1.00  0.00    -0.265 OA
ENDBRANCH  21  22
ENDBRANCH  18  21
ENDBRANCH   1  17
TORSDOF 4
ENDMDL
MODEL 2
REMARK VINA RESULT:      -7.8      3.196      5.360
REMARK  4 active torsions:
REMARK  status: ('A' for Active; 'I' for Inactive)
REMARK    1  A    between atoms: O1_2  and  C2_3 
REMARK    2  A    between atoms: C2_3  and  C6_9 
REMARK    3  A    between atoms: C3_4  and  O2_5 
REMARK    4  A    between atoms: O2_5  and  C4_6 
ROOT
HETATM    1  C6  UNL     1      23.630   2.717  52.513  1.00  0.00     0.113 C 
HETATM    2  C7  UNL     1      22.227   2.221  52.496  1.00  0.00    -0.049 A 
HETATM    3  C8  UNL     1      20.870   2.418  52.319  1.00  0.00    -0.066 A 
HETATM    4  C9  UNL     1      19.727   3.353  51.987  1.00  0.00     0.045 C 
HETATM    5  C10 UNL     1      21.366   1.184  52.660  1.00  0.00     0.011 A 
HETATM    6  C11 UNL     1      21.311   0.457  53.957  1.00  0.00     0.044 C 
HETATM    7  C12 UNL     1      21.913  -0.743  53.211  1.00  0.00     0.085 C 
HETATM    8  C13 UNL     1      21.463  -0.080  51.906  1.00  0.00     0.044 C 
HETATM    9  N1  UNL     1      23.359  -0.685  53.229  1.00  0.00    -0.370 N 
HETATM   10  C14 UNL     1      24.382   0.267  53.486  1.00  0.00     0.134 A 
HETATM   11  N2  UNL     1      25.421  -0.313  54.135  1.00  0.00    -0.224 NA
HETATM   12  C15 UNL     1      26.490   0.428  54.468  1.00  0.00     0.234 A 
HETATM   13  N3  UNL     1      26.562   1.754  54.173  1.00  0.00    -0.253 NA
HETATM   14  C16 UNL     1      25.532   2.343  53.528  1.00  0.00     0.130 A 
HETATM   15  C17 UNL     1      24.396   1.612  53.159  1.00  0.00     0.020 A 
HETATM   16  H17 UNL     1      23.693  -1.651  52.969  1.00  0.00     0.161 HD
ENDROOT
BRANCH   1  17
HETATM   17  C2  UNL     1      24.083   2.964  51.125  1.00  0.00     0.081 C 
HETATM   18  C3  UNL     1      24.924   3.957  50.887  1.00  0.00     0.178 C 
BRANCH  17  19
HETATM   19  O1  UNL     1      23.642   2.177  50.069  1.00  0.00    -0.357 OA
HETATM   20  C1  UNL     1      23.009   2.759  48.945  1.00  0.00     0.209 C 
ENDBRANCH  17  19
BRANCH  18  21
HETATM   21  O2  UNL     1      25.692   4.724  50.068  1.00  0.00    -0.289 OA
BRANCH  21  22
HETATM   22  C4  UNL     1      26.780   4.291  49.346  1.00  0.00     0.259 C 
HETATM   23  C5  UNL     1      27.688   5.154  48.553  1.00  0.00     0.126 C 
HETATM   24  O3  UNL     1      26.895   3.031  49.456  1.00  0.00    -0.265 OA
ENDBRANCH  21  22
ENDBRANCH  18  21
ENDBRANCH   1  17
TORSDOF 4
ENDMDL
MODEL 3
REMARK VINA RESULT:      -7.7      3.427      5.677
REMARK  4 active torsions:
REMARK  status: ('A' for Active; 'I' for Inactive)
REMARK    1  A    between atoms: O1_2  and  C2_3 
REMARK    2  A    between atoms: C2_3  and  C6_9 
REMARK    3  A    between atoms: C3_4  and  O2_5 
REMARK    4  A    between atoms: O2_5  and  C4_6 
ROOT
HETATM    1  C6  UNL     1      24.046   2.361  52.632  1.00  0.00     0.113 C 
HETATM    2  C7  UNL     1      22.639   1.880  52.649  1.00  0.00    -0.049 A 
HETATM    3  C8  UNL     1      21.284   2.077  52.455  1.00  0.00    -0.066 A 
HETATM    4  C9  UNL     1      20.150   2.996  52.052  1.00  0.00     0.045 C 
HETATM    5  C10 UNL     1      21.767   0.866  52.888  1.00  0.00     0.011 A 
HETATM    6  C11 UNL     1      21.702   0.238  54.234  1.00  0.00     0.044 C 
HETATM    7  C12 UNL     1      22.292  -1.020  53.581  1.00  0.00     0.085 C 
HETATM    8  C13 UNL     1      21.851  -0.451  52.229  1.00  0.00     0.044 C 
HETATM    9  N1  UNL     1      23.739  -0.976  53.597  1.00  0.00    -0.370 N 
HETATM   10  C14 UNL     1      24.771  -0.018  53.785  1.00  0.00     0.134 A 
HETATM   11  N2  UNL     1      25.804  -0.558  54.477  1.00  0.00    -0.224 NA
HETATM   12  C15 UNL     1      26.881   0.194  54.756  1.00  0.00     0.234 A 
HETATM   13  N3  UNL     1      26.966   1.493  54.364  1.00  0.00    -0.253 NA
HETATM   14  C16 UNL     1      25.943   2.044  53.675  1.00  0.00     0.130 A 
HETATM   15  C17 UNL     1      24.800   1.299  53.359  1.00  0.00     0.020 A 
HETATM   16  H17 UNL     1      24.063  -1.961  53.410  1.00  0.00     0.161 HD
ENDROOT
BRANCH   1  17
HETATM   17  C2  UNL     1      24.503   2.500  51.231  1.00  0.00     0.081 C 
HETATM   18  C3  UNL     1      23.612   2.723  50.279  1.00  0.00     0.178 C 
BRANCH  17  19
HETATM   19  O1  UNL     1      25.847   2.401  50.894  1.00  0.00    -0.357 OA
HETATM   20  C1  UNL     1      26.487   3.421  50.150  1.00  0.00     0.209 C 
ENDBRANCH  17  19
BRANCH  18  21
HETATM   21  O2  UNL     1      23.246   2.935  48.987  1.00  0.00    -0.289 OA
BRANCH  21  22
HETATM   22  C4  UNL     1      22.340   2.184  48.273  1.00  0.00     0.259 C 
HETATM   23  C5  UNL     1      21.455   1.136  48.837  1.00  0.00     0.126 C 
HETATM   24  O3  UNL     1      22.369   2.523  47.050  1.00  0.00    -0.265 OA
ENDBRANCH  21  22
ENDBRANCH  18  21
ENDBRANCH   1  17
TORSDOF 4
ENDMDL
MODEL 4
REMARK VINA RESULT:      -7.5      3.836      6.841
REMARK  4 active torsions:
REMARK  status: ('A' for Active; 'I' for Inactive)
REMARK    1  A    between atoms: O1_2  and  C2_3 
REMARK    2  A    between atoms: C2_3  and  C6_9 
REMARK    3  A    between atoms: C3_4  and  O2_5 
REMARK    4  A    between atoms: O2_5  and  C4_6 
ROOT
HETATM    1  C6  UNL     1      23.445   1.524  51.865  1.00  0.00     0.113 C 
HETATM    2  C7  UNL     1      24.895   1.758  51.631  1.00  0.00    -0.049 A 
HETATM    3  C8  UNL     1      25.938   2.293  50.897  1.00  0.00    -0.066 A 
HETATM    4  C9  UNL     1      26.406   3.094  49.701  1.00  0.00     0.045 C 
HETATM    5  C10 UNL     1      26.177   1.568  52.039  1.00  0.00     0.011 A 
HETATM    6  C11 UNL     1      26.713   0.190  52.200  1.00  0.00     0.044 C 
HETATM    7  C12 UNL     1      26.747   0.473  53.709  1.00  0.00     0.085 C 
HETATM    8  C13 UNL     1      26.675   1.965  53.369  1.00  0.00     0.044 C 
HETATM    9  N1  UNL     1      25.484   0.127  54.325  1.00  0.00    -0.370 N 
HETATM   10  C14 UNL     1      24.146  -0.139  53.929  1.00  0.00     0.134 A 
HETATM   11  N2  UNL     1      23.614  -1.132  54.682  1.00  0.00    -0.224 NA
HETATM   12  C15 UNL     1      22.350  -1.530  54.458  1.00  0.00     0.234 A 
HETATM   13  N3  UNL     1      21.583  -0.962  53.489  1.00  0.00    -0.253 NA
HETATM   14  C16 UNL     1      22.103   0.028  52.731  1.00  0.00     0.130 A 
HETATM   15  C17 UNL     1      23.415   0.477  52.927  1.00  0.00     0.020 A 
HETATM   16  H17 UNL     1      25.671   0.069  55.361  1.00  0.00     0.161 HD
ENDROOT
BRANCH   1  17
HETATM   17  C2  UNL     1      22.807   2.782  52.313  1.00  0.00     0.081 C 
HETATM   18  C3  UNL     1      21.489   2.884  52.284  1.00  0.00     0.178 C 
BRANCH  17  19
HETATM   19  O1  UNL     1      23.564   3.858  52.761  1.00  0.00    -0.357 OA
HETATM   20  C1  UNL     1      23.456   5.128  52.146  1.00  0.00     0.209 C 
ENDBRANCH  17  19
BRANCH  18  21
HETATM   21  O2  UNL     1      20.321   3.553  52.480  1.00  0.00    -0.289 OA
BRANCH  21  22
HETATM   22  C4  UNL     1      19.385   3.837  51.512  1.00  0.00     0.259 C 
HETATM   23  C5  UNL     1      19.682   4.284  50.129  1.00  0.00     0.126 C 
HETATM   24  O3  UNL     1      18.217   3.660  51.978  1.00  0.00    -0.265 OA
ENDBRANCH  21  22
ENDBRANCH  18  21
ENDBRANCH   1  17
TORSDOF 4
ENDMDL
MODEL 5
REMARK VINA RESULT:      -7.5      3.765      6.270
REMARK  4 active torsions:
REMARK  status: ('A' for Active; 'I' for Inactive)
REMARK    1  A    between atoms: O1_2  and  C2_3 
REMARK    2  A    between atoms: C2_3  and  C6_9 
REMARK    3  A    between atoms: C3_4  and  O2_5 
REMARK    4  A    between atoms: O2_5  and  C4_6 
ROOT
HETATM    1  C6  UNL     1      22.965   0.962  51.546  1.00  0.00     0.113 C 
HETATM    2  C7  UNL     1      22.976   1.911  50.401  1.00  0.00    -0.049 A 
HETATM    3  C8  UNL     1      22.543   2.314  49.151  1.00  0.00    -0.066 A 
HETATM    4  C9  UNL     1      21.673   2.066  47.937  1.00  0.00     0.045 C 
HETATM    5  C10 UNL     1      23.464   3.054  49.851  1.00  0.00     0.011 A 
HETATM    6  C11 UNL     1      24.926   3.213  49.633  1.00  0.00     0.044 C 
HETATM    7  C12 UNL     1      24.886   4.287  50.729  1.00  0.00     0.085 C 
HETATM    8  C13 UNL     1      23.373   4.373  50.504  1.00  0.00     0.044 C 
HETATM    9  N1  UNL     1      25.077   3.693  52.036  1.00  0.00    -0.370 N 
HETATM   10  C14 UNL     1      25.023   2.407  52.638  1.00  0.00     0.134 A 
HETATM   11  N2  UNL     1      25.999   2.274  53.568  1.00  0.00    -0.224 NA
HETATM   12  C15 UNL     1      26.113   1.123  54.250  1.00  0.00     0.234 A 
HETATM   13  N3  UNL     1      25.271   0.077  54.032  1.00  0.00    -0.253 NA
HETATM   14  C16 UNL     1      24.295   0.197  53.107  1.00  0.00     0.130 A 
HETATM   15  C17 UNL     1      24.136   1.378  52.371  1.00  0.00     0.020 A 
HETATM   16  H17 UNL     1      25.324   4.487  52.684  1.00  0.00     0.161 HD
ENDROOT
BRANCH   1  17
HETATM   17  C2  UNL     1      21.691   1.097  52.287  1.00  0.00     0.081 C 
HETATM   18  C3  UNL     1      21.039   2.246  52.246  1.00  0.00     0.178 C 
BRANCH  17  19
HETATM   19  O1  UNL     1      21.169   0.043  53.026  1.00  0.00    -0.357 OA
HETATM   20  C1  UNL     1      20.888   0.191  54.405  1.00  0.00     0.209 C 
ENDBRANCH  17  19
BRANCH  18  21
HETATM   21  O2  UNL     1      20.002   3.063  52.573  1.00  0.00    -0.289 OA
BRANCH  21  22
HETATM   22  C4  UNL     1      19.181   3.718  51.683  1.00  0.00     0.259 C 
HETATM   23  C5  UNL     1      19.624   4.393  50.439  1.00  0.00     0.126 C 
HETATM   24  O3  UNL     1      17.978   3.659  52.084  1.00  0.00    -0.265 OA
ENDBRANCH  21  22
ENDBRANCH  18  21
ENDBRANCH   1  17
TORSDOF 4
ENDMDL
MODEL 6
REMARK VINA RESULT:      -7.5      3.801      6.010
REMARK  4 active torsions:
REMARK  status: ('A' for Active; 'I' for Inactive)
REMARK    1  A    between atoms: O1_2  and  C2_3 
REMARK    2  A    between atoms: C2_3  and  C6_9 
REMARK    3  A    between atoms: C3_4  and  O2_5 
REMARK    4  A    between atoms: O2_5  and  C4_6 
ROOT
HETATM    1  C6  UNL     1      23.381   0.116  52.450  1.00  0.00     0.113 C 
HETATM    2  C7  UNL     1      23.020   1.127  51.420  1.00  0.00    -0.049 A 
HETATM    3  C8  UNL     1      22.328   1.516  50.288  1.00  0.00    -0.066 A 
HETATM    4  C9  UNL     1      21.354   1.174  49.181  1.00  0.00     0.045 C 
HETATM    5  C10 UNL     1      23.172   2.386  50.934  1.00  0.00     0.011 A 
HETATM    6  C11 UNL     1      24.519   2.878  50.541  1.00  0.00     0.044 C 
HETATM    7  C12 UNL     1      24.425   3.833  51.740  1.00  0.00     0.085 C 
HETATM    8  C13 UNL     1      22.911   3.601  51.728  1.00  0.00     0.044 C 
HETATM    9  N1  UNL     1      24.931   3.200  52.940  1.00  0.00    -0.370 N 
HETATM   10  C14 UNL     1      25.237   1.893  53.405  1.00  0.00     0.134 A 
HETATM   11  N2  UNL     1      26.350   1.910  54.178  1.00  0.00    -0.224 NA
HETATM   12  C15 UNL     1      26.802   0.764  54.714  1.00  0.00     0.234 A 
HETATM   13  N3  UNL     1      26.171  -0.422  54.501  1.00  0.00    -0.253 NA
HETATM   14  C16 UNL     1      25.061  -0.451  53.732  1.00  0.00     0.130 A 
HETATM   15  C17 UNL     1      24.552   0.717  53.152  1.00  0.00     0.020 A 
HETATM   16  H17 UNL     1      25.105   3.979  53.629  1.00  0.00     0.161 HD
ENDROOT
BRANCH   1  17
HETATM   17  C2  UNL     1      22.235  -0.088  53.364  1.00  0.00     0.081 C 
HETATM   18  C3  UNL     1      21.022   0.260  52.967  1.00  0.00     0.178 C 
BRANCH  17  19
HETATM   19  O1  UNL     1      22.406  -0.635  54.630  1.00  0.00    -0.357 OA
HETATM   20  C1  UNL     1      21.815  -1.874  54.971  1.00  0.00     0.209 C 
ENDBRANCH  17  19
BRANCH  18  21
HETATM   21  O2  UNL     1      19.680   0.390  53.144  1.00  0.00    -0.289 OA
BRANCH  21  22
HETATM   22  C4  UNL     1      18.711  -0.377  52.540  1.00  0.00     0.259 C 
HETATM   23  C5  UNL     1      18.141  -0.141  51.191  1.00  0.00     0.126 C 
HETATM   24  O3  UNL     1      18.370  -1.326  53.311  1.00  0.00    -0.265 OA
ENDBRANCH  21  22
ENDBRANCH  18  21
ENDBRANCH   1  17
TORSDOF 4
ENDMDL
MODEL 7
REMARK VINA RESULT:      -7.3      3.180      5.467
REMARK  4 active torsions:
REMARK  status: ('A' for Active; 'I' for Inactive)
REMARK    1  A    between atoms: O1_2  and  C2_3 
REMARK    2  A    between atoms: C2_3  and  C6_9 
REMARK    3  A    between atoms: C3_4  and  O2_5 
REMARK    4  A    between atoms: O2_5  and  C4_6 
ROOT
HETATM    1  C6  UNL     1      23.098   2.117  52.785  1.00  0.00     0.113 C 
HETATM    2  C7  UNL     1      24.329   1.337  53.086  1.00  0.00    -0.049 A 
HETATM    3  C8  UNL     1      24.990   0.314  53.740  1.00  0.00    -0.066 A 
HETATM    4  C9  UNL     1      24.947  -0.854  54.702  1.00  0.00     0.045 C 
HETATM    5  C10 UNL     1      25.658   1.149  52.878  1.00  0.00     0.011 A 
HETATM    6  C11 UNL     1      26.621   2.246  53.165  1.00  0.00     0.044 C 
HETATM    7  C12 UNL     1      26.850   2.325  51.648  1.00  0.00     0.085 C 
HETATM    8  C13 UNL     1      26.248   0.920  51.546  1.00  0.00     0.044 C 
HETATM    9  N1  UNL     1      25.900   3.228  51.033  1.00  0.00    -0.370 N 
HETATM   10  C14 UNL     1      24.665   3.852  51.353  1.00  0.00     0.134 A 
HETATM   11  N2  UNL     1      24.625   5.114  50.860  1.00  0.00    -0.224 NA
HETATM   12  C15 UNL     1      23.533   5.870  51.061  1.00  0.00     0.234 A 
HETATM   13  N3  UNL     1      22.457   5.403  51.749  1.00  0.00    -0.253 NA
HETATM   14  C16 UNL     1      22.486   4.147  52.246  1.00  0.00     0.130 A 
HETATM   15  C17 UNL     1      23.601   3.321  52.063  1.00  0.00     0.020 A 
HETATM   16  H17 UNL     1      26.289   3.453  50.079  1.00  0.00     0.161 HD
ENDROOT
BRANCH   1  17
HETATM   17  C2  UNL     1      22.194   1.305  51.940  1.00  0.00     0.081 C 
HETATM   18  C3  UNL     1      21.044   0.885  52.442  1.00  0.00     0.178 C 
BRANCH  17  19
HETATM   19  O1  UNL     1      22.527   0.974  50.633  1.00  0.00    -0.357 OA
HETATM   20  C1  UNL     1      21.698   1.359  49.552  1.00  0.00     0.209 C 
ENDBRANCH  17  19
BRANCH  18  21
HETATM   21  O2  UNL     1      19.859   0.222  52.367  1.00  0.00    -0.289 OA
BRANCH  21  22
HETATM   22  C4  UNL     1      19.428  -0.756  53.233  1.00  0.00     0.259 C 
HETATM   23  C5  UNL     1      18.070  -1.351  53.257  1.00  0.00     0.126 C 
HETATM   24  O3  UNL     1      20.371  -1.080  54.019  1.00  0.00    -0.265 OA
ENDBRANCH  21  22
ENDBRANCH  18  21
ENDBRANCH   1  17
TORSDOF 4
ENDMDL
MODEL 8
REMARK VINA RESULT:      -7.3      3.821      6.052
REMARK  4 active torsions:
REMARK  status: ('A' for Active; 'I' for Inactive)
REMARK    1  A    between atoms: O1_2  and  C2_3 
REMARK    2  A    between atoms: C2_3  and  C6_9 
REMARK    3  A    between atoms: C3_4  and  O2_5 
REMARK    4  A    between atoms: O2_5  and  C4_6 
ROOT
HETATM    1  C6  UNL     1      22.847   1.018  51.592  1.00  0.00     0.113 C 
HETATM    2  C7  UNL     1      22.868   1.936  50.421  1.00  0.00    -0.049 A 
HETATM    3  C8  UNL     1      22.410   2.332  49.178  1.00  0.00    -0.066 A 
HETATM    4  C9  UNL     1      21.480   2.107  48.005  1.00  0.00     0.045 C 
HETATM    5  C10 UNL     1      23.401   3.033  49.823  1.00  0.00     0.011 A 
HETATM    6  C11 UNL     1      24.860   3.098  49.545  1.00  0.00     0.044 C 
HETATM    7  C12 UNL     1      24.927   4.200  50.612  1.00  0.00     0.085 C 
HETATM    8  C13 UNL     1      23.414   4.371  50.442  1.00  0.00     0.044 C 
HETATM    9  N1  UNL     1      25.134   3.629  51.926  1.00  0.00    -0.370 N 
HETATM   10  C14 UNL     1      25.028   2.364  52.565  1.00  0.00     0.134 A 
HETATM   11  N2  UNL     1      26.031   2.196  53.460  1.00  0.00    -0.224 NA
HETATM   12  C15 UNL     1      26.103   1.057  54.169  1.00  0.00     0.234 A 
HETATM   13  N3  UNL     1      25.193   0.059  54.012  1.00  0.00    -0.253 NA
HETATM   14  C16 UNL     1      24.190   0.215  53.122  1.00  0.00     0.130 A 
HETATM   15  C17 UNL     1      24.072   1.384  52.360  1.00  0.00     0.020 A 
HETATM   16  H17 UNL     1      25.453   4.423  52.542  1.00  0.00     0.161 HD
ENDROOT
BRANCH   1  17
HETATM   17  C2  UNL     1      21.614   1.248  52.377  1.00  0.00     0.081 C 
HETATM   18  C3  UNL     1      20.910   0.209  52.794  1.00  0.00     0.178 C 
BRANCH  17  19
HETATM   19  O1  UNL     1      21.180   2.531  52.684  1.00  0.00    -0.357 OA
HETATM   20  C1  UNL     1      19.965   3.032  52.159  1.00  0.00     0.209 C 
ENDBRANCH  17  19
BRANCH  18  21
HETATM   21  O2  UNL     1      19.859  -0.362  53.443  1.00  0.00    -0.289 OA
BRANCH  21  22
HETATM   22  C4  UNL     1      18.711  -0.838  52.852  1.00  0.00     0.259 C 
HETATM   23  C5  UNL     1      17.817  -1.877  53.418  1.00  0.00     0.126 C 
HETATM   24  O3  UNL     1      18.526  -0.254  51.740  1.00  0.00    -0.265 OA
ENDBRANCH  21  22
ENDBRANCH  18  21
ENDBRANCH   1  17
TORSDOF 4
ENDMDL
MODEL 9
REMARK VINA RESULT:      -7.2      4.158      6.658
REMARK  4 active torsions:
REMARK  status: ('A' for Active; 'I' for Inactive)
REMARK    1  A    between atoms: O1_2  and  C2_3 
REMARK    2  A    between atoms: C2_3  and  C6_9 
REMARK    3  A    between atoms: C3_4  and  O2_5 
REMARK    4  A    between atoms: O2_5  and  C4_6 
ROOT
HETATM    1  C6  UNL     1      22.094   0.972  51.588  1.00  0.00     0.113 C 
HETATM    2  C7  UNL     1      22.722   0.159  52.665  1.00  0.00    -0.049 A 
HETATM    3  C8  UNL     1      23.832  -0.339  53.323  1.00  0.00    -0.066 A 
HETATM    4  C9  UNL     1      25.338  -0.430  53.440  1.00  0.00     0.045 C 
HETATM    5  C10 UNL     1      22.562  -0.652  53.743  1.00  0.00     0.011 A 
HETATM    6  C11 UNL     1      21.800  -1.923  53.615  1.00  0.00     0.044 C 
HETATM    7  C12 UNL     1      20.733  -1.272  54.507  1.00  0.00     0.085 C 
HETATM    8  C13 UNL     1      21.801  -0.266  54.946  1.00  0.00     0.044 C 
HETATM    9  N1  UNL     1      19.774  -0.538  53.709  1.00  0.00    -0.370 N 
HETATM   10  C14 UNL     1      19.666  -0.015  52.393  1.00  0.00     0.134 A 
HETATM   11  N2  UNL     1      18.403  -0.157  51.925  1.00  0.00    -0.224 NA
HETATM   12  C15 UNL     1      18.100   0.279  50.691  1.00  0.00     0.234 A 
HETATM   13  N3  UNL     1      19.031   0.864  49.890  1.00  0.00    -0.253 NA
HETATM   14  C16 UNL     1      20.294   1.010  50.346  1.00  0.00     0.130 A 
HETATM   15  C17 UNL     1      20.658   0.572  51.625  1.00  0.00     0.020 A 
HETATM   16  H17 UNL     1      18.940  -0.374  54.332  1.00  0.00     0.161 HD
ENDROOT
BRANCH   1  17
HETATM   17  C2  UNL     1      22.274   2.410  51.886  1.00  0.00     0.081 C 
HETATM   18  C3  UNL     1      23.455   2.970  51.681  1.00  0.00     0.178 C 
BRANCH  17  19
HETATM   19  O1  UNL     1      21.231   3.184  52.378  1.00  0.00    -0.357 OA
HETATM   20  C1  UNL     1      20.801   4.345  51.693  1.00  0.00     0.209 C 
ENDBRANCH  17  19
BRANCH  18  21
HETATM   21  O2  UNL     1      24.314   4.024  51.689  1.00  0.00    -0.289 OA
BRANCH  21  22
HETATM   22  C4  UNL     1      24.570   4.862  50.627  1.00  0.00     0.259 C 
HETATM   23  C5  UNL     1      25.236   4.470  49.361  1.00  0.00     0.126 C 
HETATM   24  O3  UNL     1      24.148   6.030  50.890  1.00  0.00    -0.265 OA
ENDBRANCH  21  22
ENDBRANCH  18  21
ENDBRANCH   1  17
TORSDOF 4
ENDMDL
