MODEL 1
REMARK VINA RESULT:      -9.5      0.000      0.000
REMARK  4 active torsions:
REMARK  status: ('A' for Active; 'I' for Inactive)
REMARK    1  A    between atoms: C5_5  and  C6_6 
REMARK    2  A    between atoms: N2_8  and  C7_9 
REMARK    3  A    between atoms: C8_11  and  O1_12 
REMARK    4  A    between atoms: C10_15  and  C11_16 
ROOT
HETATM    1  C6  UNL     1      25.989   3.342  50.769  1.00  0.00     0.067 C 
HETATM    2  N1  UNL     1      26.981   2.692  51.259  1.00  0.00    -0.173 NA
HETATM    3  N2  UNL     1      26.550   1.662  52.100  1.00  0.00    -0.236 N 
HETATM    4  C10 UNL     1      25.290   2.142  52.586  1.00  0.00     0.151 C 
HETATM    5  C18 UNL     1      24.730   2.746  51.288  1.00  0.00     0.094 C 
ENDROOT
BRANCH   1   6
HETATM    6  C5  UNL     1      26.143   4.475  49.854  1.00  0.00    -0.010 A 
HETATM    7  C4  UNL     1      25.056   5.325  49.702  1.00  0.00     0.014 A 
HETATM    8  C3  UNL     1      25.136   6.419  48.847  1.00  0.00     0.007 A 
HETATM    9  C2  UNL     1      26.323   6.616  48.170  1.00  0.00    -0.062 A 
HETATM   10  C1  UNL     1      26.421   7.796  47.241  1.00  0.00     0.048 C 
HETATM   11  C20 UNL     1      27.427   5.769  48.312  1.00  0.00     0.007 A 
HETATM   12  C19 UNL     1      27.325   4.684  49.170  1.00  0.00     0.014 A 
ENDBRANCH   1   6
BRANCH   3  13
HETATM   13  C7  UNL     1      27.165   0.369  52.459  1.00  0.00     0.192 A 
HETATM   14  N3  UNL     1      27.096  -0.790  52.351  1.00  0.00    -0.198 NA
HETATM   15  C8  UNL     1      27.939  -1.651  52.893  1.00  0.00     0.171 A 
HETATM   16  C9  UNL     1      29.002  -1.163  53.656  1.00  0.00     0.111 A 
HETATM   17  S1  UNL     1      28.716   0.661  53.553  1.00  0.00    -0.058 SA
BRANCH  15  18
HETATM   18  O1  UNL     1      27.713  -3.025  52.664  1.00  0.00    -0.344 OA
HETATM   19  H6  UNL     1      27.658  -3.678  53.429  1.00  0.00     0.219 HD
ENDBRANCH  15  18
ENDBRANCH   3  13
BRANCH   4  20
HETATM   20  C11 UNL     1      24.339   1.090  53.002  1.00  0.00    -0.033 A 
HETATM   21  C12 UNL     1      24.509   0.271  54.100  1.00  0.00     0.010 A 
HETATM   22  C13 UNL     1      23.581  -0.703  54.445  1.00  0.00     0.007 A 
HETATM   23  C14 UNL     1      22.453  -0.862  53.672  1.00  0.00    -0.062 A 
HETATM   24  C15 UNL     1      21.533  -1.930  54.136  1.00  0.00     0.048 C 
HETATM   25  C16 UNL     1      22.272  -0.050  52.572  1.00  0.00     0.007 A 
HETATM   26  C17 UNL     1      23.210   0.916  52.243  1.00  0.00     0.010 A 
ENDBRANCH   4  20
TORSDOF 4
ENDMDL
MODEL 2
REMARK VINA RESULT:      -9.4      2.994      7.196
REMARK  4 active torsions:
REMARK  status: ('A' for Active; 'I' for Inactive)
REMARK    1  A    between atoms: C5_5  and  C6_6 
REMARK    2  A    between atoms: N2_8  and  C7_9 
REMARK    3  A    between atoms: C8_11  and  O1_12 
REMARK    4  A    between atoms: C10_15  and  C11_16 
ROOT
HETATM    1  C6  UNL     1      21.986   0.338  52.629  1.00  0.00     0.067 C 
HETATM    2  N1  UNL     1      22.312   1.463  52.104  1.00  0.00    -0.173 NA
HETATM    3  N2  UNL     1      23.686   1.696  52.209  1.00  0.00    -0.236 N 
HETATM    4  C10 UNL     1      24.053   0.960  53.384  1.00  0.00     0.151 C 
HETATM    5  C18 UNL     1      23.213  -0.308  53.164  1.00  0.00     0.094 C 
ENDROOT
BRANCH   1   6
HETATM    6  C5  UNL     1      20.611  -0.165  52.663  1.00  0.00    -0.010 A 
HETATM    7  C4  UNL     1      19.748   0.268  51.667  1.00  0.00     0.014 A 
HETATM    8  C3  UNL     1      18.428  -0.171  51.644  1.00  0.00     0.007 A 
HETATM    9  C2  UNL     1      18.025  -1.039  52.638  1.00  0.00    -0.062 A 
HETATM   10  C1  UNL     1      16.599  -1.520  52.624  1.00  0.00     0.048 C 
HETATM   11  C20 UNL     1      18.883  -1.484  53.650  1.00  0.00     0.007 A 
HETATM   12  C19 UNL     1      20.195  -1.033  53.654  1.00  0.00     0.014 A 
ENDBRANCH   1   6
BRANCH   3  13
HETATM   13  C7  UNL     1      24.614   2.482  51.373  1.00  0.00     0.192 A 
HETATM   14  N3  UNL     1      25.718   2.828  51.228  1.00  0.00    -0.198 NA
HETATM   15  C8  UNL     1      26.145   3.603  50.246  1.00  0.00     0.171 A 
HETATM   16  C9  UNL     1      25.225   4.056  49.298  1.00  0.00     0.111 A 
HETATM   17  S1  UNL     1      23.660   3.284  49.911  1.00  0.00    -0.058 SA
BRANCH  15  18
HETATM   18  O1  UNL     1      27.517   3.929  50.216  1.00  0.00    -0.344 OA
HETATM   19  H6  UNL     1      28.204   3.263  49.898  1.00  0.00     0.219 HD
ENDBRANCH  15  18
ENDBRANCH   3  13
BRANCH   4  20
HETATM   20  C11 UNL     1      25.465   0.525  53.433  1.00  0.00    -0.033 A 
HETATM   21  C12 UNL     1      26.446   1.133  54.190  1.00  0.00     0.010 A 
HETATM   22  C13 UNL     1      27.759   0.679  54.197  1.00  0.00     0.007 A 
HETATM   23  C14 UNL     1      28.099  -0.411  53.428  1.00  0.00    -0.062 A 
HETATM   24  C15 UNL     1      29.526  -0.806  53.516  1.00  0.00     0.048 C 
HETATM   25  C16 UNL     1      27.127  -1.027  52.668  1.00  0.00     0.007 A 
HETATM   26  C17 UNL     1      25.822  -0.559  52.673  1.00  0.00     0.010 A 
ENDBRANCH   4  20
TORSDOF 4
ENDMDL
MODEL 3
REMARK VINA RESULT:      -9.0      1.400      2.173
REMARK  4 active torsions:
REMARK  status: ('A' for Active; 'I' for Inactive)
REMARK    1  A    between atoms: C5_5  and  C6_6 
REMARK    2  A    between atoms: N2_8  and  C7_9 
REMARK    3  A    between atoms: C8_11  and  O1_12 
REMARK    4  A    between atoms: C10_15  and  C11_16 
ROOT
HETATM    1  C6  UNL     1      26.298   4.192  49.854  1.00  0.00     0.067 C 
HETATM    2  N1  UNL     1      27.032   3.445  50.596  1.00  0.00    -0.173 NA
HETATM    3  N2  UNL     1      26.263   2.528  51.316  1.00  0.00    -0.236 N 
HETATM    4  C10 UNL     1      25.001   3.195  51.452  1.00  0.00     0.151 C 
HETATM    5  C18 UNL     1      24.878   3.795  50.042  1.00  0.00     0.094 C 
ENDROOT
BRANCH   1   6
HETATM    6  C5  UNL     1      26.837   5.244  48.989  1.00  0.00    -0.010 A 
HETATM    7  C4  UNL     1      28.168   5.141  48.611  1.00  0.00     0.014 A 
HETATM    8  C3  UNL     1      28.741   6.109  47.793  1.00  0.00     0.007 A 
HETATM    9  C2  UNL     1      27.940   7.155  47.382  1.00  0.00    -0.062 A 
HETATM   10  C1  UNL     1      28.549   8.209  46.497  1.00  0.00     0.048 C 
HETATM   11  C20 UNL     1      26.597   7.274  47.755  1.00  0.00     0.007 A 
HETATM   12  C19 UNL     1      26.046   6.297  48.572  1.00  0.00     0.014 A 
ENDBRANCH   1   6
BRANCH   3  13
HETATM   13  C7  UNL     1      26.578   1.186  51.847  1.00  0.00     0.192 A 
HETATM   14  N3  UNL     1      26.456   0.038  51.687  1.00  0.00    -0.198 NA
HETATM   15  C8  UNL     1      26.949  -0.893  52.486  1.00  0.00     0.171 A 
HETATM   16  C9  UNL     1      27.675  -0.498  53.612  1.00  0.00     0.111 A 
HETATM   17  S1  UNL     1      27.609   1.345  53.460  1.00  0.00    -0.058 SA
BRANCH  15  18
HETATM   18  O1  UNL     1      26.711  -2.242  52.148  1.00  0.00    -0.344 OA
HETATM   19  H6  UNL     1      27.460  -2.916  52.138  1.00  0.00     0.219 HD
ENDBRANCH  15  18
ENDBRANCH   3  13
BRANCH   4  20
HETATM   20  C11 UNL     1      23.838   2.300  51.628  1.00  0.00    -0.033 A 
HETATM   21  C12 UNL     1      23.045   1.834  50.598  1.00  0.00     0.010 A 
HETATM   22  C13 UNL     1      21.963   0.993  50.822  1.00  0.00     0.007 A 
HETATM   23  C14 UNL     1      21.666   0.607  52.110  1.00  0.00    -0.062 A 
HETATM   24  C15 UNL     1      20.491  -0.292  52.229  1.00  0.00     0.048 C 
HETATM   25  C16 UNL     1      22.450   1.066  53.147  1.00  0.00     0.007 A 
HETATM   26  C17 UNL     1      23.526   1.905  52.904  1.00  0.00     0.010 A 
ENDBRANCH   4  20
TORSDOF 4
ENDMDL
MODEL 4
REMARK VINA RESULT:      -8.8      2.639      7.146
REMARK  4 active torsions:
REMARK  status: ('A' for Active; 'I' for Inactive)
REMARK    1  A    between atoms: C5_5  and  C6_6 
REMARK    2  A    between atoms: N2_8  and  C7_9 
REMARK    3  A    between atoms: C8_11  and  O1_12 
REMARK    4  A    between atoms: C10_15  and  C11_16 
ROOT
HETATM    1  C6  UNL     1      21.836   0.944  51.913  1.00  0.00     0.067 C 
HETATM    2  N1  UNL     1      22.956   0.440  52.283  1.00  0.00    -0.173 NA
HETATM    3  N2  UNL     1      24.028   1.262  51.926  1.00  0.00    -0.236 N 
HETATM    4  C10 UNL     1      23.539   1.953  50.769  1.00  0.00     0.151 C 
HETATM    5  C18 UNL     1      22.101   2.237  51.231  1.00  0.00     0.094 C 
ENDROOT
BRANCH   1   6
HETATM    6  C5  UNL     1      20.544   0.297  52.155  1.00  0.00    -0.010 A 
HETATM    7  C4  UNL     1      19.563   0.450  51.185  1.00  0.00     0.014 A 
HETATM    8  C3  UNL     1      18.313  -0.138  51.355  1.00  0.00     0.007 A 
HETATM    9  C2  UNL     1      18.099  -0.864  52.509  1.00  0.00    -0.062 A 
HETATM   10  C1  UNL     1      16.750  -1.503  52.704  1.00  0.00     0.048 C 
HETATM   11  C20 UNL     1      19.077  -1.026  53.496  1.00  0.00     0.007 A 
HETATM   12  C19 UNL     1      20.316  -0.432  53.306  1.00  0.00     0.014 A 
ENDBRANCH   1   6
BRANCH   3  13
HETATM   13  C7  UNL     1      25.365   1.447  52.526  1.00  0.00     0.192 A 
HETATM   14  N3  UNL     1      26.053   2.164  53.134  1.00  0.00    -0.198 NA
HETATM   15  C8  UNL     1      27.300   1.900  53.484  1.00  0.00     0.171 A 
HETATM   16  C9  UNL     1      27.858   0.676  53.111  1.00  0.00     0.111 A 
HETATM   17  S1  UNL     1      26.450  -0.103  52.198  1.00  0.00    -0.058 SA
BRANCH  15  18
HETATM   18  O1  UNL     1      27.997   2.880  54.222  1.00  0.00    -0.344 OA
HETATM   19  H6  UNL     1      28.827   3.317  53.852  1.00  0.00     0.219 HD
ENDBRANCH  15  18
ENDBRANCH   3  13
BRANCH   4  20
HETATM   20  C11 UNL     1      24.165   3.268  50.516  1.00  0.00    -0.033 A 
HETATM   21  C12 UNL     1      23.770   4.450  51.109  1.00  0.00     0.010 A 
HETATM   22  C13 UNL     1      24.397   5.659  50.834  1.00  0.00     0.007 A 
HETATM   23  C14 UNL     1      25.445   5.686  49.942  1.00  0.00    -0.062 A 
HETATM   24  C15 UNL     1      26.037   7.030  49.728  1.00  0.00     0.048 C 
HETATM   25  C16 UNL     1      25.849   4.511  49.343  1.00  0.00     0.007 A 
HETATM   26  C17 UNL     1      25.211   3.315  49.630  1.00  0.00     0.010 A 
ENDBRANCH   4  20
TORSDOF 4
ENDMDL
MODEL 5
REMARK VINA RESULT:      -8.6      4.014      8.440
REMARK  4 active torsions:
REMARK  status: ('A' for Active; 'I' for Inactive)
REMARK    1  A    between atoms: C5_5  and  C6_6 
REMARK    2  A    between atoms: N2_8  and  C7_9 
REMARK    3  A    between atoms: C8_11  and  O1_12 
REMARK    4  A    between atoms: C10_15  and  C11_16 
ROOT
HETATM    1  C6  UNL     1      23.583   2.527  51.374  1.00  0.00     0.067 C 
HETATM    2  N1  UNL     1      22.723   3.104  50.616  1.00  0.00    -0.173 NA
HETATM    3  N2  UNL     1      23.317   4.099  49.836  1.00  0.00    -0.236 N 
HETATM    4  C10 UNL     1      24.435   4.515  50.632  1.00  0.00     0.151 C 
HETATM    5  C18 UNL     1      24.914   3.144  51.134  1.00  0.00     0.094 C 
ENDROOT
BRANCH   1   6
HETATM    6  C5  UNL     1      23.241   1.445  52.301  1.00  0.00    -0.010 A 
HETATM    7  C4  UNL     1      21.907   1.306  52.655  1.00  0.00     0.014 A 
HETATM    8  C3  UNL     1      21.516   0.300  53.533  1.00  0.00     0.007 A 
HETATM    9  C2  UNL     1      22.498  -0.536  54.025  1.00  0.00    -0.062 A 
HETATM   10  C1  UNL     1      22.088  -1.627  54.977  1.00  0.00     0.048 C 
HETATM   11  C20 UNL     1      23.847  -0.408  53.679  1.00  0.00     0.007 A 
HETATM   12  C19 UNL     1      24.214   0.602  52.802  1.00  0.00     0.014 A 
ENDBRANCH   1   6
BRANCH   3  13
HETATM   13  C7  UNL     1      22.961   4.651  48.513  1.00  0.00     0.192 A 
HETATM   14  N3  UNL     1      22.983   5.594  47.830  1.00  0.00    -0.198 NA
HETATM   15  C8  UNL     1      22.507   5.646  46.597  1.00  0.00     0.171 A 
HETATM   16  C9  UNL     1      21.932   4.498  46.049  1.00  0.00     0.111 A 
HETATM   17  S1  UNL     1      22.114   3.298  47.445  1.00  0.00    -0.058 SA
BRANCH  15  18
HETATM   18  O1  UNL     1      22.612   6.871  45.904  1.00  0.00    -0.344 OA
HETATM   19  H6  UNL     1      22.150   7.009  45.019  1.00  0.00     0.219 HD
ENDBRANCH  15  18
ENDBRANCH   3  13
BRANCH   4  20
HETATM   20  C11 UNL     1      25.560   5.098  49.871  1.00  0.00    -0.033 A 
HETATM   21  C12 UNL     1      25.742   6.450  49.656  1.00  0.00     0.010 A 
HETATM   22  C13 UNL     1      26.821   6.943  48.933  1.00  0.00     0.007 A 
HETATM   23  C14 UNL     1      27.741   6.061  48.412  1.00  0.00    -0.062 A 
HETATM   24  C15 UNL     1      28.850   6.701  47.661  1.00  0.00     0.048 C 
HETATM   25  C16 UNL     1      27.570   4.709  48.620  1.00  0.00     0.007 A 
HETATM   26  C17 UNL     1      26.487   4.236  49.344  1.00  0.00     0.010 A 
ENDBRANCH   4  20
TORSDOF 4
ENDMDL
MODEL 6
REMARK VINA RESULT:      -8.6      2.205      3.015
REMARK  4 active torsions:
REMARK  status: ('A' for Active; 'I' for Inactive)
REMARK    1  A    between atoms: C5_5  and  C6_6 
REMARK    2  A    between atoms: N2_8  and  C7_9 
REMARK    3  A    between atoms: C8_11  and  O1_12 
REMARK    4  A    between atoms: C10_15  and  C11_16 
ROOT
HETATM    1  C6  UNL     1      25.203   3.990  50.208  1.00  0.00     0.067 C 
HETATM    2  N1  UNL     1      25.623   3.361  51.245  1.00  0.00    -0.173 NA
HETATM    3  N2  UNL     1      24.610   2.587  51.817  1.00  0.00    -0.236 N 
HETATM    4  C10 UNL     1      23.415   3.289  51.450  1.00  0.00     0.151 C 
HETATM    5  C18 UNL     1      23.770   3.655  50.000  1.00  0.00     0.094 C 
ENDROOT
BRANCH   1   6
HETATM    6  C5  UNL     1      26.050   4.878  49.408  1.00  0.00    -0.010 A 
HETATM    7  C4  UNL     1      27.328   4.434  49.101  1.00  0.00     0.014 A 
HETATM    8  C3  UNL     1      28.183   5.231  48.346  1.00  0.00     0.007 A 
HETATM    9  C2  UNL     1      27.711   6.457  47.926  1.00  0.00    -0.062 A 
HETATM   10  C1  UNL     1      28.627   7.328  47.110  1.00  0.00     0.048 C 
HETATM   11  C20 UNL     1      26.425   6.919  48.228  1.00  0.00     0.007 A 
HETATM   12  C19 UNL     1      25.589   6.108  48.982  1.00  0.00     0.014 A 
ENDBRANCH   1   6
BRANCH   3  13
HETATM   13  C7  UNL     1      24.657   1.344  52.614  1.00  0.00     0.192 A 
HETATM   14  N3  UNL     1      24.107   0.693  53.408  1.00  0.00    -0.198 NA
HETATM   15  C8  UNL     1      24.553  -0.459  53.881  1.00  0.00     0.171 A 
HETATM   16  C9  UNL     1      25.771  -0.953  53.410  1.00  0.00     0.111 A 
HETATM   17  S1  UNL     1      26.260   0.368  52.211  1.00  0.00    -0.058 SA
BRANCH  15  18
HETATM   18  O1  UNL     1      23.763  -1.124  54.842  1.00  0.00    -0.344 OA
HETATM   19  H6  UNL     1      23.659  -0.757  55.775  1.00  0.00     0.219 HD
ENDBRANCH  15  18
ENDBRANCH   3  13
BRANCH   4  20
HETATM   20  C11 UNL     1      22.196   2.456  51.385  1.00  0.00    -0.033 A 
HETATM   21  C12 UNL     1      21.169   2.498  52.307  1.00  0.00     0.010 A 
HETATM   22  C13 UNL     1      20.044   1.691  52.196  1.00  0.00     0.007 A 
HETATM   23  C14 UNL     1      19.944   0.820  51.135  1.00  0.00    -0.062 A 
HETATM   24  C15 UNL     1      18.700   0.010  51.118  1.00  0.00     0.048 C 
HETATM   25  C16 UNL     1      20.963   0.768  50.207  1.00  0.00     0.007 A 
HETATM   26  C17 UNL     1      22.078   1.582  50.336  1.00  0.00     0.010 A 
ENDBRANCH   4  20
TORSDOF 4
ENDMDL
MODEL 7
REMARK VINA RESULT:      -8.5      3.950      6.668
REMARK  4 active torsions:
REMARK  status: ('A' for Active; 'I' for Inactive)
REMARK    1  A    between atoms: C5_5  and  C6_6 
REMARK    2  A    between atoms: N2_8  and  C7_9 
REMARK    3  A    between atoms: C8_11  and  O1_12 
REMARK    4  A    between atoms: C10_15  and  C11_16 
ROOT
HETATM    1  C6  UNL     1      25.374   1.528  51.945  1.00  0.00     0.067 C 
HETATM    2  N1  UNL     1      25.339   2.655  51.334  1.00  0.00    -0.173 NA
HETATM    3  N2  UNL     1      24.036   2.991  50.957  1.00  0.00    -0.236 N 
HETATM    4  C10 UNL     1      23.401   1.715  50.805  1.00  0.00     0.151 C 
HETATM    5  C18 UNL     1      23.991   0.990  52.025  1.00  0.00     0.094 C 
ENDROOT
BRANCH   1   6
HETATM    6  C5  UNL     1      26.609   0.927  52.454  1.00  0.00    -0.010 A 
HETATM    7  C4  UNL     1      26.688  -0.459  52.462  1.00  0.00     0.014 A 
HETATM    8  C3  UNL     1      27.833  -1.093  52.935  1.00  0.00     0.007 A 
HETATM    9  C2  UNL     1      28.865  -0.296  53.386  1.00  0.00    -0.062 A 
HETATM   10  C1  UNL     1      30.108  -0.970  53.901  1.00  0.00     0.048 C 
HETATM   11  C20 UNL     1      28.800   1.102  53.386  1.00  0.00     0.007 A 
HETATM   12  C19 UNL     1      27.649   1.713  52.910  1.00  0.00     0.014 A 
ENDBRANCH   1   6
BRANCH   3  13
HETATM   13  C7  UNL     1      23.383   4.298  50.745  1.00  0.00     0.192 A 
HETATM   14  N3  UNL     1      22.865   5.207  51.259  1.00  0.00    -0.198 NA
HETATM   15  C8  UNL     1      22.382   6.261  50.623  1.00  0.00     0.171 A 
HETATM   16  C9  UNL     1      22.489   6.315  49.232  1.00  0.00     0.111 A 
HETATM   17  S1  UNL     1      23.346   4.716  48.871  1.00  0.00    -0.058 SA
BRANCH  15  18
HETATM   18  O1  UNL     1      21.784   7.278  51.398  1.00  0.00    -0.344 OA
HETATM   19  H6  UNL     1      20.784   7.326  51.510  1.00  0.00     0.219 HD
ENDBRANCH  15  18
ENDBRANCH   3  13
BRANCH   4  20
HETATM   20  C11 UNL     1      21.935   1.721  50.991  1.00  0.00    -0.033 A 
HETATM   21  C12 UNL     1      21.298   1.997  52.185  1.00  0.00     0.010 A 
HETATM   22  C13 UNL     1      19.914   1.990  52.302  1.00  0.00     0.007 A 
HETATM   23  C14 UNL     1      19.147   1.700  51.196  1.00  0.00    -0.062 A 
HETATM   24  C15 UNL     1      17.683   1.723  51.438  1.00  0.00     0.048 C 
HETATM   25  C16 UNL     1      19.771   1.424  49.997  1.00  0.00     0.007 A 
HETATM   26  C17 UNL     1      21.154   1.435  49.901  1.00  0.00     0.010 A 
ENDBRANCH   4  20
TORSDOF 4
ENDMDL
MODEL 8
REMARK VINA RESULT:      -8.4      5.320      7.937
REMARK  4 active torsions:
REMARK  status: ('A' for Active; 'I' for Inactive)
REMARK    1  A    between atoms: C5_5  and  C6_6 
REMARK    2  A    between atoms: N2_8  and  C7_9 
REMARK    3  A    between atoms: C8_11  and  O1_12 
REMARK    4  A    between atoms: C10_15  and  C11_16 
ROOT
HETATM    1  C6  UNL     1      22.311   0.994  52.658  1.00  0.00     0.067 C 
HETATM    2  N1  UNL     1      21.834   2.036  52.082  1.00  0.00    -0.173 NA
HETATM    3  N2  UNL     1      20.496   1.854  51.722  1.00  0.00    -0.236 N 
HETATM    4  C10 UNL     1      20.400   0.435  51.533  1.00  0.00     0.151 C 
HETATM    5  C18 UNL     1      21.244  -0.038  52.727  1.00  0.00     0.094 C 
ENDROOT
BRANCH   1   6
HETATM    6  C5  UNL     1      23.690   0.902  53.142  1.00  0.00    -0.010 A 
HETATM    7  C4  UNL     1      24.133  -0.339  53.576  1.00  0.00     0.014 A 
HETATM    8  C3  UNL     1      25.432  -0.493  54.050  1.00  0.00     0.007 A 
HETATM    9  C2  UNL     1      26.243   0.623  54.067  1.00  0.00    -0.062 A 
HETATM   10  C1  UNL     1      27.650   0.469  54.579  1.00  0.00     0.048 C 
HETATM   11  C20 UNL     1      25.811   1.882  53.634  1.00  0.00     0.007 A 
HETATM   12  C19 UNL     1      24.512   2.012  53.166  1.00  0.00     0.014 A 
ENDBRANCH   1   6
BRANCH   3  13
HETATM   13  C7  UNL     1      19.386   2.812  51.554  1.00  0.00     0.192 A 
HETATM   14  N3  UNL     1      18.427   3.265  52.038  1.00  0.00    -0.198 NA
HETATM   15  C8  UNL     1      17.662   4.188  51.481  1.00  0.00     0.171 A 
HETATM   16  C9  UNL     1      18.007   4.675  50.218  1.00  0.00     0.111 A 
HETATM   17  S1  UNL     1      19.539   3.703  49.859  1.00  0.00    -0.058 SA
BRANCH  15  18
HETATM   18  O1  UNL     1      16.534   4.630  52.203  1.00  0.00    -0.344 OA
HETATM   19  H6  UNL     1      16.444   5.592  52.490  1.00  0.00     0.219 HD
ENDBRANCH  15  18
ENDBRANCH   3  13
BRANCH   4  20
HETATM   20  C11 UNL     1      19.047  -0.130  51.726  1.00  0.00    -0.033 A 
HETATM   21  C12 UNL     1      18.047  -0.106  50.776  1.00  0.00     0.010 A 
HETATM   22  C13 UNL     1      16.792  -0.655  51.012  1.00  0.00     0.007 A 
HETATM   23  C14 UNL     1      16.533  -1.242  52.229  1.00  0.00    -0.062 A 
HETATM   24  C15 UNL     1      15.162  -1.794  52.368  1.00  0.00     0.048 C 
HETATM   25  C16 UNL     1      17.525  -1.271  53.187  1.00  0.00     0.007 A 
HETATM   26  C17 UNL     1      18.770  -0.718  52.933  1.00  0.00     0.010 A 
ENDBRANCH   4  20
TORSDOF 4
ENDMDL
MODEL 9
REMARK VINA RESULT:      -8.4      5.229      9.744
REMARK  4 active torsions:
REMARK  status: ('A' for Active; 'I' for Inactive)
REMARK    1  A    between atoms: C5_5  and  C6_6 
REMARK    2  A    between atoms: N2_8  and  C7_9 
REMARK    3  A    between atoms: C8_11  and  O1_12 
REMARK    4  A    between atoms: C10_15  and  C11_16 
ROOT
HETATM    1  C6  UNL     1      28.261   5.704  48.369  1.00  0.00     0.067 C 
HETATM    2  N1  UNL     1      29.284   4.953  48.180  1.00  0.00    -0.173 NA
HETATM    3  N2  UNL     1      30.399   5.699  47.789  1.00  0.00    -0.236 N 
HETATM    4  C10 UNL     1      29.819   6.836  47.136  1.00  0.00     0.151 C 
HETATM    5  C18 UNL     1      28.651   7.112  48.096  1.00  0.00     0.094 C 
ENDROOT
BRANCH   1   6
HETATM    6  C5  UNL     1      26.954   5.192  48.785  1.00  0.00    -0.010 A 
HETATM    7  C4  UNL     1      26.906   3.903  49.298  1.00  0.00     0.014 A 
HETATM    8  C3  UNL     1      25.695   3.357  49.709  1.00  0.00     0.007 A 
HETATM    9  C2  UNL     1      24.565   4.140  49.585  1.00  0.00    -0.062 A 
HETATM   10  C1  UNL     1      23.248   3.559  50.025  1.00  0.00     0.048 C 
HETATM   11  C20 UNL     1      24.596   5.440  49.069  1.00  0.00     0.007 A 
HETATM   12  C19 UNL     1      25.815   5.965  48.666  1.00  0.00     0.014 A 
ENDBRANCH   1   6
BRANCH   3  13
HETATM   13  C7  UNL     1      31.847   5.463  47.959  1.00  0.00     0.192 A 
HETATM   14  N3  UNL     1      32.747   5.516  48.697  1.00  0.00    -0.198 NA
HETATM   15  C8  UNL     1      33.989   5.172  48.400  1.00  0.00     0.171 A 
HETATM   16  C9  UNL     1      34.269   4.707  47.113  1.00  0.00     0.111 A 
HETATM   17  S1  UNL     1      32.598   4.793  46.324  1.00  0.00    -0.058 SA
BRANCH  15  18
HETATM   18  O1  UNL     1      34.965   5.297  49.411  1.00  0.00    -0.344 OA
HETATM   19  H6  UNL     1      35.181   4.526  50.024  1.00  0.00     0.219 HD
ENDBRANCH  15  18
ENDBRANCH   3  13
BRANCH   4  20
HETATM   20  C11 UNL     1      30.658   8.053  47.137  1.00  0.00    -0.033 A 
HETATM   21  C12 UNL     1      31.450   8.459  46.082  1.00  0.00     0.010 A 
HETATM   22  C13 UNL     1      32.220   9.614  46.139  1.00  0.00     0.007 A 
HETATM   23  C14 UNL     1      32.195  10.384  47.280  1.00  0.00    -0.062 A 
HETATM   24  C15 UNL     1      33.053  11.593  47.226  1.00  0.00     0.048 C 
HETATM   25  C16 UNL     1      31.407   9.989  48.341  1.00  0.00     0.007 A 
HETATM   26  C17 UNL     1      30.647   8.832  48.266  1.00  0.00     0.010 A 
ENDBRANCH   4  20
TORSDOF 4
ENDMDL
