MODEL 1
REMARK VINA RESULT:      -8.4      0.000      0.000
REMARK  6 active torsions:
REMARK  status: ('A' for Active; 'I' for Inactive)
REMARK    1  A    between atoms: O1_1  and  C1_2 
REMARK    2  A    between atoms: C1_2  and  C2_3 
REMARK    3  A    between atoms: C2_3  and  N1_4 
REMARK    4  A    between atoms: C4_7  and  C5_8 
REMARK    5  A    between atoms: C11_15  and  C12_16 
REMARK    6  A    between atoms: C12_16  and  C13_17 
ROOT
HETATM    1  N1  UNL     1      27.064   0.582  53.328  1.00  0.00    -0.338 N 
HETATM    2  C3  UNL     1      26.993  -0.327  54.313  1.00  0.00     0.210 A 
HETATM    3  N2  UNL     1      25.736  -0.715  54.494  1.00  0.00    -0.241 NA
HETATM    4  C4  UNL     1      24.960  -0.055  53.617  1.00  0.00     0.095 A 
HETATM    5  C11 UNL     1      25.801   0.758  52.886  1.00  0.00     0.066 A 
ENDROOT
BRANCH   5   6
HETATM    6  C12 UNL     1      25.498   1.658  51.824  1.00  0.00     0.044 C 
BRANCH   6   7
HETATM    7  C13 UNL     1      25.209   2.678  51.104  1.00  0.00    -0.026 A 
HETATM    8  C14 UNL     1      26.316   3.236  50.336  1.00  0.00     0.036 A 
HETATM    9  C15 UNL     1      26.413   4.209  49.444  1.00  0.00     0.035 A 
HETATM   10 CL1  UNL     1      27.857   4.740  48.611  1.00  0.00    -0.084 Cl
HETATM   11  C16 UNL     1      25.228   4.963  49.113  1.00  0.00     0.025 A 
HETATM   12  C17 UNL     1      24.019   4.838  49.575  1.00  0.00     0.010 A 
HETATM   13  P1  UNL     1      23.614   3.576  50.826  1.00  0.00    -0.071 P 
HETATM   14  H15 UNL     1      23.225   4.289  52.035  1.00  0.00     0.066 HD
ENDBRANCH   6   7
ENDBRANCH   5   6
BRANCH   1  15
HETATM   15  C2  UNL     1      28.374   1.098  53.071  1.00  0.00     0.156 C 
BRANCH  15  16
HETATM   16  C1  UNL     1      28.572   2.430  53.750  1.00  0.00     0.184 C 
BRANCH  16  17
HETATM   17  O1  UNL     1      29.634   2.430  54.655  1.00  0.00    -0.399 OA
HETATM   18  H1  UNL     1      30.461   2.416  54.086  1.00  0.00     0.209 HD
ENDBRANCH  16  17
ENDBRANCH  15  16
ENDBRANCH   1  15
BRANCH   4  19
HETATM   19  C5  UNL     1      23.515  -0.189  53.490  1.00  0.00    -0.005 A 
HETATM   20  C6  UNL     1      22.654   0.252  52.503  1.00  0.00     0.017 A 
HETATM   21  C7  UNL     1      21.305  -0.016  52.584  1.00  0.00     0.043 A 
HETATM   22  C8  UNL     1      20.779  -0.726  53.644  1.00  0.00     0.116 A 
HETATM   23  F1  UNL     1      19.442  -0.989  53.711  1.00  0.00    -0.206 F 
HETATM   24  C9  UNL     1      21.626  -1.170  54.634  1.00  0.00     0.043 A 
HETATM   25  C10 UNL     1      22.979  -0.909  54.565  1.00  0.00     0.017 A 
ENDBRANCH   4  19
TORSDOF 6
ENDMDL
MODEL 2
REMARK VINA RESULT:      -8.1      3.828      6.292
REMARK  6 active torsions:
REMARK  status: ('A' for Active; 'I' for Inactive)
REMARK    1  A    between atoms: O1_1  and  C1_2 
REMARK    2  A    between atoms: C1_2  and  C2_3 
REMARK    3  A    between atoms: C2_3  and  N1_4 
REMARK    4  A    between atoms: C4_7  and  C5_8 
REMARK    5  A    between atoms: C11_15  and  C12_16 
REMARK    6  A    between atoms: C12_16  and  C13_17 
ROOT
HETATM    1  N1  UNL     1      24.699   3.886  50.633  1.00  0.00    -0.338 N 
HETATM    2  C3  UNL     1      25.889   4.156  50.074  1.00  0.00     0.210 A 
HETATM    3  N2  UNL     1      26.805   3.296  50.501  1.00  0.00    -0.241 NA
HETATM    4  C4  UNL     1      26.218   2.441  51.355  1.00  0.00     0.095 A 
HETATM    5  C11 UNL     1      24.892   2.817  51.433  1.00  0.00     0.066 A 
ENDROOT
BRANCH   5   6
HETATM    6  C12 UNL     1      23.829   2.243  52.188  1.00  0.00     0.044 C 
BRANCH   6   7
HETATM    7  C13 UNL     1      22.871   1.515  52.632  1.00  0.00    -0.026 A 
HETATM    8  C14 UNL     1      23.259   0.491  53.595  1.00  0.00     0.036 A 
HETATM    9  C15 UNL     1      22.584  -0.385  54.321  1.00  0.00     0.035 A 
HETATM   10 CL1  UNL     1      23.237  -1.553  55.448  1.00  0.00    -0.084 Cl
HETATM   11  C16 UNL     1      21.149  -0.442  54.177  1.00  0.00     0.025 A 
HETATM   12  C17 UNL     1      20.372   0.262  53.408  1.00  0.00     0.010 A 
HETATM   13  P1  UNL     1      21.051   1.538  52.297  1.00  0.00    -0.071 P 
HETATM   14  H15 UNL     1      20.789   1.095  50.934  1.00  0.00     0.066 HD
ENDBRANCH   6   7
ENDBRANCH   5   6
BRANCH   1  15
HETATM   15  C2  UNL     1      23.640   4.778  50.269  1.00  0.00     0.156 C 
BRANCH  15  16
HETATM   16  C1  UNL     1      23.841   6.137  50.893  1.00  0.00     0.184 C 
BRANCH  16  17
HETATM   17  O1  UNL     1      24.052   6.079  52.271  1.00  0.00    -0.399 OA
HETATM   18  H1  UNL     1      24.377   5.145  52.446  1.00  0.00     0.209 HD
ENDBRANCH  16  17
ENDBRANCH  15  16
ENDBRANCH   1  15
BRANCH   4  19
HETATM   19  C5  UNL     1      26.877   1.345  52.053  1.00  0.00    -0.005 A 
HETATM   20  C6  UNL     1      26.637  -0.015  52.020  1.00  0.00     0.017 A 
HETATM   21  C7  UNL     1      27.418  -0.878  52.758  1.00  0.00     0.043 A 
HETATM   22  C8  UNL     1      28.452  -0.413  53.544  1.00  0.00     0.116 A 
HETATM   23  F1  UNL     1      29.220  -1.278  54.268  1.00  0.00    -0.206 F 
HETATM   24  C9  UNL     1      28.700   0.940  53.586  1.00  0.00     0.043 A 
HETATM   25  C10 UNL     1      27.927   1.816  52.852  1.00  0.00     0.017 A 
ENDBRANCH   4  19
TORSDOF 6
ENDMDL
MODEL 3
REMARK VINA RESULT:      -8.1      3.580      5.267
REMARK  6 active torsions:
REMARK  status: ('A' for Active; 'I' for Inactive)
REMARK    1  A    between atoms: O1_1  and  C1_2 
REMARK    2  A    between atoms: C1_2  and  C2_3 
REMARK    3  A    between atoms: C2_3  and  N1_4 
REMARK    4  A    between atoms: C4_7  and  C5_8 
REMARK    5  A    between atoms: C11_15  and  C12_16 
REMARK    6  A    between atoms: C12_16  and  C13_17 
ROOT
HETATM    1  N1  UNL     1      22.018   0.137  54.051  1.00  0.00    -0.338 N 
HETATM    2  C3  UNL     1      22.179  -0.907  54.880  1.00  0.00     0.210 A 
HETATM    3  N2  UNL     1      23.454  -1.275  54.916  1.00  0.00    -0.241 NA
HETATM    4  C4  UNL     1      24.151  -0.466  54.100  1.00  0.00     0.095 A 
HETATM    5  C11 UNL     1      23.243   0.421  53.560  1.00  0.00     0.066 A 
ENDROOT
BRANCH   5   6
HETATM    6  C12 UNL     1      23.452   1.491  52.643  1.00  0.00     0.044 C 
BRANCH   6   7
HETATM    7  C13 UNL     1      23.701   2.616  52.082  1.00  0.00    -0.026 A 
HETATM    8  C14 UNL     1      24.840   2.624  51.172  1.00  0.00     0.036 A 
HETATM    9  C15 UNL     1      25.362   3.535  50.366  1.00  0.00     0.035 A 
HETATM   10 CL1  UNL     1      26.757   3.353  49.326  1.00  0.00    -0.084 Cl
HETATM   11  C16 UNL     1      24.766   4.849  50.331  1.00  0.00     0.025 A 
HETATM   12  C17 UNL     1      23.749   5.307  50.999  1.00  0.00     0.010 A 
HETATM   13  P1  UNL     1      22.852   4.258  52.189  1.00  0.00    -0.071 P 
HETATM   14  H15 UNL     1      23.058   4.842  53.507  1.00  0.00     0.066 HD
ENDBRANCH   6   7
ENDBRANCH   5   6
BRANCH   1  15
HETATM   15  C2  UNL     1      20.670   0.596  53.908  1.00  0.00     0.156 C 
BRANCH  15  16
HETATM   16  C1  UNL     1      19.844  -0.393  53.122  1.00  0.00     0.184 C 
BRANCH  16  17
HETATM   17  O1  UNL     1      18.857  -1.013  53.890  1.00  0.00    -0.399 OA
HETATM   18  H1  UNL     1      19.359  -1.584  54.546  1.00  0.00     0.209 HD
ENDBRANCH  16  17
ENDBRANCH  15  16
ENDBRANCH   1  15
BRANCH   4  19
HETATM   19  C5  UNL     1      25.585  -0.537  53.850  1.00  0.00    -0.005 A 
HETATM   20  C6  UNL     1      26.291  -1.149  52.833  1.00  0.00     0.017 A 
HETATM   21  C7  UNL     1      27.666  -1.061  52.789  1.00  0.00     0.043 A 
HETATM   22  C8  UNL     1      28.370  -0.366  53.751  1.00  0.00     0.116 A 
HETATM   23  F1  UNL     1      29.730  -0.282  53.694  1.00  0.00    -0.206 F 
HETATM   24  C9  UNL     1      27.677   0.248  54.769  1.00  0.00     0.043 A 
HETATM   25  C10 UNL     1      26.301   0.169  54.826  1.00  0.00     0.017 A 
ENDBRANCH   4  19
TORSDOF 6
ENDMDL
MODEL 4
REMARK VINA RESULT:      -7.8      1.612      1.810
REMARK  6 active torsions:
REMARK  status: ('A' for Active; 'I' for Inactive)
REMARK    1  A    between atoms: O1_1  and  C1_2 
REMARK    2  A    between atoms: C1_2  and  C2_3 
REMARK    3  A    between atoms: C2_3  and  N1_4 
REMARK    4  A    between atoms: C4_7  and  C5_8 
REMARK    5  A    between atoms: C11_15  and  C12_16 
REMARK    6  A    between atoms: C12_16  and  C13_17 
ROOT
HETATM    1  N1  UNL     1      26.946   0.409  53.321  1.00  0.00    -0.338 N 
HETATM    2  C3  UNL     1      26.834  -0.548  54.256  1.00  0.00     0.210 A 
HETATM    3  N2  UNL     1      25.561  -0.891  54.417  1.00  0.00    -0.241 NA
HETATM    4  C4  UNL     1      24.816  -0.152  53.577  1.00  0.00     0.095 A 
HETATM    5  C11 UNL     1      25.692   0.662  52.890  1.00  0.00     0.066 A 
ENDROOT
BRANCH   5   6
HETATM    6  C12 UNL     1      25.430   1.630  51.878  1.00  0.00     0.044 C 
BRANCH   6   7
HETATM    7  C13 UNL     1      25.278   2.704  51.195  1.00  0.00    -0.026 A 
HETATM    8  C14 UNL     1      24.104   3.500  51.532  1.00  0.00     0.036 A 
HETATM    9  C15 UNL     1      23.644   4.673  51.127  1.00  0.00     0.035 A 
HETATM   10 CL1  UNL     1      22.189   5.483  51.662  1.00  0.00    -0.084 Cl
HETATM   11  C16 UNL     1      24.377   5.385  50.108  1.00  0.00     0.025 A 
HETATM   12  C17 UNL     1      25.468   5.043  49.489  1.00  0.00     0.010 A 
HETATM   13  P1  UNL     1      26.304   3.465  49.855  1.00  0.00    -0.071 P 
HETATM   14  H15 UNL     1      26.226   2.656  48.646  1.00  0.00     0.066 HD
ENDBRANCH   6   7
ENDBRANCH   5   6
BRANCH   1  15
HETATM   15  C2  UNL     1      28.277   0.881  53.092  1.00  0.00     0.156 C 
BRANCH  15  16
HETATM   16  C1  UNL     1      28.492   2.227  53.738  1.00  0.00     0.184 C 
BRANCH  16  17
HETATM   17  O1  UNL     1      29.289   3.079  52.974  1.00  0.00    -0.399 OA
HETATM   18  H1  UNL     1      29.352   2.639  52.074  1.00  0.00     0.209 HD
ENDBRANCH  16  17
ENDBRANCH  15  16
ENDBRANCH   1  15
BRANCH   4  19
HETATM   19  C5  UNL     1      23.366  -0.216  53.443  1.00  0.00    -0.005 A 
HETATM   20  C6  UNL     1      22.532   0.265  52.453  1.00  0.00     0.017 A 
HETATM   21  C7  UNL     1      21.171   0.062  52.528  1.00  0.00     0.043 A 
HETATM   22  C8  UNL     1      20.607  -0.622  53.585  1.00  0.00     0.116 A 
HETATM   23  F1  UNL     1      19.259  -0.821  53.646  1.00  0.00    -0.206 F 
HETATM   24  C9  UNL     1      21.428  -1.107  54.578  1.00  0.00     0.043 A 
HETATM   25  C10 UNL     1      22.792  -0.911  54.516  1.00  0.00     0.017 A 
ENDBRANCH   4  19
TORSDOF 6
ENDMDL
MODEL 5
REMARK VINA RESULT:      -7.7      3.607      5.210
REMARK  6 active torsions:
REMARK  status: ('A' for Active; 'I' for Inactive)
REMARK    1  A    between atoms: O1_1  and  C1_2 
REMARK    2  A    between atoms: C1_2  and  C2_3 
REMARK    3  A    between atoms: C2_3  and  N1_4 
REMARK    4  A    between atoms: C4_7  and  C5_8 
REMARK    5  A    between atoms: C11_15  and  C12_16 
REMARK    6  A    between atoms: C12_16  and  C13_17 
ROOT
HETATM    1  N1  UNL     1      22.145   0.457  52.942  1.00  0.00    -0.338 N 
HETATM    2  C3  UNL     1      22.074  -0.427  53.950  1.00  0.00     0.210 A 
HETATM    3  N2  UNL     1      23.289  -0.841  54.288  1.00  0.00    -0.241 NA
HETATM    4  C4  UNL     1      24.181  -0.225  53.495  1.00  0.00     0.095 A 
HETATM    5  C11 UNL     1      23.456   0.591  52.651  1.00  0.00     0.066 A 
ENDROOT
BRANCH   5   6
HETATM    6  C12 UNL     1      23.910   1.468  51.624  1.00  0.00     0.044 C 
BRANCH   6   7
HETATM    7  C13 UNL     1      24.522   2.349  50.922  1.00  0.00    -0.026 A 
HETATM    8  C14 UNL     1      23.676   3.149  50.044  1.00  0.00     0.036 A 
HETATM    9  C15 UNL     1      23.901   4.176  49.242  1.00  0.00     0.035 A 
HETATM   10 CL1  UNL     1      22.733   5.023  48.251  1.00  0.00    -0.084 Cl
HETATM   11  C16 UNL     1      25.252   4.668  49.113  1.00  0.00     0.025 A 
HETATM   12  C17 UNL     1      26.339   4.242  49.684  1.00  0.00     0.010 A 
HETATM   13  P1  UNL     1      26.308   2.827  50.834  1.00  0.00    -0.071 P 
HETATM   14  H15 UNL     1      27.080   1.760  50.212  1.00  0.00     0.066 HD
ENDBRANCH   6   7
ENDBRANCH   5   6
BRANCH   1  15
HETATM   15  C2  UNL     1      20.884   0.945  52.472  1.00  0.00     0.156 C 
BRANCH  15  16
HETATM   16  C1  UNL     1      20.615   2.334  52.994  1.00  0.00     0.184 C 
BRANCH  16  17
HETATM   17  O1  UNL     1      19.531   2.952  52.368  1.00  0.00    -0.399 OA
HETATM   18  H1  UNL     1      19.542   3.898  52.703  1.00  0.00     0.209 HD
ENDBRANCH  16  17
ENDBRANCH  15  16
ENDBRANCH   1  15
BRANCH   4  19
HETATM   19  C5  UNL     1      25.627  -0.406  53.536  1.00  0.00    -0.005 A 
HETATM   20  C6  UNL     1      26.466  -1.134  52.715  1.00  0.00     0.017 A 
HETATM   21  C7  UNL     1      27.826  -1.138  52.936  1.00  0.00     0.043 A 
HETATM   22  C8  UNL     1      28.384  -0.422  53.976  1.00  0.00     0.116 A 
HETATM   23  F1  UNL     1      29.732  -0.431  54.182  1.00  0.00    -0.206 F 
HETATM   24  C9  UNL     1      27.558   0.306  54.801  1.00  0.00     0.043 A 
HETATM   25  C10 UNL     1      26.195   0.320  54.591  1.00  0.00     0.017 A 
ENDBRANCH   4  19
TORSDOF 6
ENDMDL
MODEL 6
REMARK VINA RESULT:      -7.6      3.367      5.062
REMARK  6 active torsions:
REMARK  status: ('A' for Active; 'I' for Inactive)
REMARK    1  A    between atoms: O1_1  and  C1_2 
REMARK    2  A    between atoms: C1_2  and  C2_3 
REMARK    3  A    between atoms: C2_3  and  N1_4 
REMARK    4  A    between atoms: C4_7  and  C5_8 
REMARK    5  A    between atoms: C11_15  and  C12_16 
REMARK    6  A    between atoms: C12_16  and  C13_17 
ROOT
HETATM    1  N1  UNL     1      22.532   0.942  52.499  1.00  0.00    -0.338 N 
HETATM    2  C3  UNL     1      22.418  -0.177  53.233  1.00  0.00     0.210 A 
HETATM    3  N2  UNL     1      23.614  -0.589  53.634  1.00  0.00    -0.241 NA
HETATM    4  C4  UNL     1      24.537   0.266  53.161  1.00  0.00     0.095 A 
HETATM    5  C11 UNL     1      23.850   1.227  52.449  1.00  0.00     0.066 A 
ENDROOT
BRANCH   5   6
HETATM    6  C12 UNL     1      24.343   2.367  51.752  1.00  0.00     0.044 C 
BRANCH   6   7
HETATM    7  C13 UNL     1      24.541   3.535  51.261  1.00  0.00    -0.026 A 
HETATM    8  C14 UNL     1      25.698   3.658  50.383  1.00  0.00     0.036 A 
HETATM    9  C15 UNL     1      26.187   4.640  49.644  1.00  0.00     0.035 A 
HETATM   10 CL1  UNL     1      27.613   4.596  48.632  1.00  0.00    -0.084 Cl
HETATM   11  C16 UNL     1      25.519   5.920  49.668  1.00  0.00     0.025 A 
HETATM   12  C17 UNL     1      24.463   6.283  50.334  1.00  0.00     0.010 A 
HETATM   13  P1  UNL     1      23.599   5.119  51.439  1.00  0.00    -0.071 P 
HETATM   14  H15 UNL     1      23.742   5.636  52.793  1.00  0.00     0.066 HD
ENDBRANCH   6   7
ENDBRANCH   5   6
BRANCH   1  15
HETATM   15  C2  UNL     1      21.300   1.456  51.982  1.00  0.00     0.156 C 
BRANCH  15  16
HETATM   16  C1  UNL     1      20.794   0.604  50.845  1.00  0.00     0.184 C 
BRANCH  16  17
HETATM   17  O1  UNL     1      21.526   0.771  49.669  1.00  0.00    -0.399 OA
HETATM   18  H1  UNL     1      21.780  -0.158  49.386  1.00  0.00     0.209 HD
ENDBRANCH  16  17
ENDBRANCH  15  16
ENDBRANCH   1  15
BRANCH   4  19
HETATM   19  C5  UNL     1      25.976   0.170  53.371  1.00  0.00    -0.005 A 
HETATM   20  C6  UNL     1      26.850   1.024  54.014  1.00  0.00     0.017 A 
HETATM   21  C7  UNL     1      28.188   0.708  54.110  1.00  0.00     0.043 A 
HETATM   22  C8  UNL     1      28.689  -0.460  53.572  1.00  0.00     0.116 A 
HETATM   23  F1  UNL     1      30.014  -0.763  53.678  1.00  0.00    -0.206 F 
HETATM   24  C9  UNL     1      27.827  -1.319  52.929  1.00  0.00     0.043 A 
HETATM   25  C10 UNL     1      26.485  -1.016  52.825  1.00  0.00     0.017 A 
ENDBRANCH   4  19
TORSDOF 6
ENDMDL
MODEL 7
REMARK VINA RESULT:      -7.3      1.991      2.223
REMARK  6 active torsions:
REMARK  status: ('A' for Active; 'I' for Inactive)
REMARK    1  A    between atoms: O1_1  and  C1_2 
REMARK    2  A    between atoms: C1_2  and  C2_3 
REMARK    3  A    between atoms: C2_3  and  N1_4 
REMARK    4  A    between atoms: C4_7  and  C5_8 
REMARK    5  A    between atoms: C11_15  and  C12_16 
REMARK    6  A    between atoms: C12_16  and  C13_17 
ROOT
HETATM    1  N1  UNL     1      26.160   1.216  52.810  1.00  0.00    -0.338 N 
HETATM    2  C3  UNL     1      26.303   0.203  53.679  1.00  0.00     0.210 A 
HETATM    3  N2  UNL     1      25.120  -0.321  53.975  1.00  0.00    -0.241 NA
HETATM    4  C4  UNL     1      24.177   0.352  53.295  1.00  0.00     0.095 A 
HETATM    5  C11 UNL     1      24.837   1.317  52.563  1.00  0.00     0.066 A 
ENDROOT
BRANCH   5   6
HETATM    6  C12 UNL     1      24.315   2.294  51.666  1.00  0.00     0.044 C 
BRANCH   6   7
HETATM    7  C13 UNL     1      24.041   3.032  50.655  1.00  0.00    -0.026 A 
HETATM    8  C14 UNL     1      22.946   2.561  49.815  1.00  0.00     0.036 A 
HETATM    9  C15 UNL     1      22.325   3.057  48.757  1.00  0.00     0.035 A 
HETATM   10 CL1  UNL     1      21.003   2.333  47.869  1.00  0.00    -0.084 Cl
HETATM   11  C16 UNL     1      22.776   4.320  48.221  1.00  0.00     0.025 A 
HETATM   12  C17 UNL     1      23.743   5.086  48.628  1.00  0.00     0.010 A 
HETATM   13  P1  UNL     1      24.767   4.630  50.066  1.00  0.00    -0.071 P 
HETATM   14  H15 UNL     1      26.119   4.411  49.570  1.00  0.00     0.066 HD
ENDBRANCH   6   7
ENDBRANCH   5   6
BRANCH   1  15
HETATM   15  C2  UNL     1      27.375   1.880  52.447  1.00  0.00     0.156 C 
BRANCH  15  16
HETATM   16  C1  UNL     1      28.267   2.069  53.649  1.00  0.00     0.184 C 
BRANCH  16  17
HETATM   17  O1  UNL     1      29.419   2.803  53.365  1.00  0.00    -0.399 OA
HETATM   18  H1  UNL     1      30.155   2.338  53.865  1.00  0.00     0.209 HD
ENDBRANCH  16  17
ENDBRANCH  15  16
ENDBRANCH   1  15
BRANCH   4  19
HETATM   19  C5  UNL     1      22.743   0.095  53.343  1.00  0.00    -0.005 A 
HETATM   20  C6  UNL     1      21.684   0.805  52.812  1.00  0.00     0.017 A 
HETATM   21  C7  UNL     1      20.392   0.349  52.968  1.00  0.00     0.043 A 
HETATM   22  C8  UNL     1      20.123  -0.818  53.652  1.00  0.00     0.116 A 
HETATM   23  F1  UNL     1      18.841  -1.261  53.796  1.00  0.00    -0.206 F 
HETATM   24  C9  UNL     1      21.170  -1.534  54.187  1.00  0.00     0.043 A 
HETATM   25  C10 UNL     1      22.468  -1.089  54.039  1.00  0.00     0.017 A 
ENDBRANCH   4  19
TORSDOF 6
ENDMDL
MODEL 8
REMARK VINA RESULT:      -7.3      3.237      5.522
REMARK  6 active torsions:
REMARK  status: ('A' for Active; 'I' for Inactive)
REMARK    1  A    between atoms: O1_1  and  C1_2 
REMARK    2  A    between atoms: C1_2  and  C2_3 
REMARK    3  A    between atoms: C2_3  and  N1_4 
REMARK    4  A    between atoms: C4_7  and  C5_8 
REMARK    5  A    between atoms: C11_15  and  C12_16 
REMARK    6  A    between atoms: C12_16  and  C13_17 
ROOT
HETATM    1  N1  UNL     1      27.349   0.502  53.478  1.00  0.00    -0.338 N 
HETATM    2  C3  UNL     1      28.203   1.395  52.953  1.00  0.00     0.210 A 
HETATM    3  N2  UNL     1      27.538   2.338  52.295  1.00  0.00    -0.241 NA
HETATM    4  C4  UNL     1      26.224   2.069  52.384  1.00  0.00     0.095 A 
HETATM    5  C11 UNL     1      26.111   0.914  53.130  1.00  0.00     0.066 A 
ENDROOT
BRANCH   5   6
HETATM    6  C12 UNL     1      24.945   0.201  53.529  1.00  0.00     0.044 C 
BRANCH   6   7
HETATM    7  C13 UNL     1      23.748  -0.216  53.723  1.00  0.00    -0.026 A 
HETATM    8  C14 UNL     1      22.777   0.176  52.709  1.00  0.00     0.036 A 
HETATM    9  C15 UNL     1      21.499  -0.103  52.508  1.00  0.00     0.035 A 
HETATM   10 CL1  UNL     1      20.482   0.469  51.205  1.00  0.00    -0.084 Cl
HETATM   11  C16 UNL     1      20.818  -0.943  53.464  1.00  0.00     0.025 A 
HETATM   12  C17 UNL     1      21.278  -1.497  54.546  1.00  0.00     0.010 A 
HETATM   13  P1  UNL     1      23.012  -1.265  55.059  1.00  0.00    -0.071 P 
HETATM   14  H15 UNL     1      22.986  -0.527  56.315  1.00  0.00     0.066 HD
ENDBRANCH   6   7
ENDBRANCH   5   6
BRANCH   1  15
HETATM   15  C2  UNL     1      27.962  -0.583  54.182  1.00  0.00     0.156 C 
BRANCH  15  16
HETATM   16  C1  UNL     1      28.638  -1.534  53.225  1.00  0.00     0.184 C 
BRANCH  16  17
HETATM   17  O1  UNL     1      28.026  -2.787  53.178  1.00  0.00    -0.399 OA
HETATM   18  H1  UNL     1      28.078  -3.138  54.117  1.00  0.00     0.209 HD
ENDBRANCH  16  17
ENDBRANCH  15  16
ENDBRANCH   1  15
BRANCH   4  19
HETATM   19  C5  UNL     1      25.151   2.858  51.793  1.00  0.00    -0.005 A 
HETATM   20  C6  UNL     1      24.124   3.566  52.386  1.00  0.00     0.017 A 
HETATM   21  C7  UNL     1      23.225   4.268  51.614  1.00  0.00     0.043 A 
HETATM   22  C8  UNL     1      23.324   4.285  50.237  1.00  0.00     0.116 A 
HETATM   23  F1  UNL     1      22.430   4.988  49.483  1.00  0.00    -0.206 F 
HETATM   24  C9  UNL     1      24.343   3.583  49.635  1.00  0.00     0.043 A 
HETATM   25  C10 UNL     1      25.250   2.875  50.396  1.00  0.00     0.017 A 
ENDBRANCH   4  19
TORSDOF 6
ENDMDL
MODEL 9
REMARK VINA RESULT:      -7.0      4.028      5.773
REMARK  6 active torsions:
REMARK  status: ('A' for Active; 'I' for Inactive)
REMARK    1  A    between atoms: O1_1  and  C1_2 
REMARK    2  A    between atoms: C1_2  and  C2_3 
REMARK    3  A    between atoms: C2_3  and  N1_4 
REMARK    4  A    between atoms: C4_7  and  C5_8 
REMARK    5  A    between atoms: C11_15  and  C12_16 
REMARK    6  A    between atoms: C12_16  and  C13_17 
ROOT
HETATM    1  N1  UNL     1      20.622  -0.203  53.050  1.00  0.00    -0.338 N 
HETATM    2  C3  UNL     1      20.929  -0.668  54.272  1.00  0.00     0.210 A 
HETATM    3  N2  UNL     1      22.225  -0.509  54.513  1.00  0.00    -0.241 NA
HETATM    4  C4  UNL     1      22.788   0.069  53.439  1.00  0.00     0.095 A 
HETATM    5  C11 UNL     1      21.774   0.261  52.523  1.00  0.00     0.066 A 
ENDROOT
BRANCH   5   6
HETATM    6  C12 UNL     1      21.822   0.842  51.223  1.00  0.00     0.044 C 
BRANCH   6   7
HETATM    7  C13 UNL     1      21.886   1.635  50.217  1.00  0.00    -0.026 A 
HETATM    8  C14 UNL     1      23.104   2.431  50.124  1.00  0.00     0.036 A 
HETATM    9  C15 UNL     1      23.575   3.283  49.228  1.00  0.00     0.035 A 
HETATM   10 CL1  UNL     1      25.090   4.155  49.290  1.00  0.00    -0.084 Cl
HETATM   11  C16 UNL     1      22.768   3.581  48.069  1.00  0.00     0.025 A 
HETATM   12  C17 UNL     1      21.593   3.128  47.747  1.00  0.00     0.010 A 
HETATM   13  P1  UNL     1      20.714   1.943  48.818  1.00  0.00    -0.071 P 
HETATM   14  H15 UNL     1      19.520   2.619  49.307  1.00  0.00     0.066 HD
ENDBRANCH   6   7
ENDBRANCH   5   6
BRANCH   1  15
HETATM   15  C2  UNL     1      19.251  -0.357  52.670  1.00  0.00     0.156 C 
BRANCH  15  16
HETATM   16  C1  UNL     1      18.572  -1.409  53.511  1.00  0.00     0.184 C 
BRANCH  16  17
HETATM   17  O1  UNL     1      17.318  -1.775  53.021  1.00  0.00    -0.399 OA
HETATM   18  H1  UNL     1      16.819  -0.911  52.910  1.00  0.00     0.209 HD
ENDBRANCH  16  17
ENDBRANCH  15  16
ENDBRANCH   1  15
BRANCH   4  19
HETATM   19  C5  UNL     1      24.197   0.412  53.295  1.00  0.00    -0.005 A 
HETATM   20  C6  UNL     1      24.825   1.642  53.265  1.00  0.00     0.017 A 
HETATM   21  C7  UNL     1      26.195   1.721  53.141  1.00  0.00     0.043 A 
HETATM   22  C8  UNL     1      26.973   0.585  53.046  1.00  0.00     0.116 A 
HETATM   23  F1  UNL     1      28.329   0.677  52.929  1.00  0.00    -0.206 F 
HETATM   24  C9  UNL     1      26.358  -0.646  53.075  1.00  0.00     0.043 A 
HETATM   25  C10 UNL     1      24.987  -0.741  53.197  1.00  0.00     0.017 A 
ENDBRANCH   4  19
TORSDOF 6
ENDMDL
