MODEL 1
REMARK VINA RESULT:      -8.2      0.000      0.000
REMARK  0 active torsions:
REMARK  status: ('A' for Active; 'I' for Inactive)
ROOT
HETATM    1  C1  UNL     1      22.671  -1.378  55.342  1.00  0.00     0.049 C 
HETATM    2  C2  UNL     1      21.989  -0.902  54.132  1.00  0.00    -0.053 C 
HETATM    3  C3  UNL     1      20.949  -0.815  53.360  1.00  0.00     0.071 C 
HETATM    4  C4  UNL     1      20.950  -0.114  52.198  1.00  0.00    -0.078 C 
HETATM    5  C5  UNL     1      20.951   0.487  51.230  1.00  0.00    -0.098 C 
HETATM    6  C6  UNL     1      20.937   1.249  50.033  1.00  0.00     0.124 C 
HETATM    7  C7  UNL     1      20.899   2.715  50.251  1.00  0.00     0.022 C 
HETATM    8  C8  UNL     1      21.713   3.649  49.752  1.00  0.00     0.094 C 
HETATM    9  O1  UNL     1      22.774   3.389  48.912  1.00  0.00    -0.326 OA
HETATM   10  C9  UNL     1      22.764   4.381  47.855  1.00  0.00     0.347 C 
HETATM   11  O2  UNL     1      21.877   5.365  48.376  1.00  0.00    -0.336 OA
HETATM   12  C10 UNL     1      21.924   5.075  49.771  1.00  0.00     0.280 C 
HETATM   13  N1  UNL     1      23.028   5.604  50.411  1.00  0.00    -0.369 N 
HETATM   14  C11 UNL     1      23.070   7.039  50.445  1.00  0.00     0.148 C 
HETATM   15  C12 UNL     1      24.189   4.929  50.760  1.00  0.00     0.271 C 
HETATM   16  N2  UNL     1      24.046   4.000  51.785  1.00  0.00    -0.264 NA
HETATM   17  C13 UNL     1      23.846   2.766  51.902  1.00  0.00     0.229 C 
HETATM   18  N3  UNL     1      23.888   2.861  53.341  1.00  0.00    -0.238 NA
HETATM   19  C14 UNL     1      25.080   2.740  53.889  1.00  0.00     0.114 C 
HETATM   20  C15 UNL     1      25.907   2.187  52.994  1.00  0.00     0.071 A 
HETATM   21  C16 UNL     1      27.071   2.198  52.091  1.00  0.00     0.110 A 
HETATM   22  C17 UNL     1      27.086   0.901  51.434  1.00  0.00     0.118 A 
HETATM   23  N4  UNL     1      26.131   0.214  51.842  1.00  0.00    -0.184 NA
HETATM   24  N5  UNL     1      25.375   0.919  52.787  1.00  0.00    -0.247 N 
HETATM   25  C18 UNL     1      24.292   0.276  53.325  1.00  0.00     0.119 C 
HETATM   26  C19 UNL     1      23.184  -0.254  53.646  1.00  0.00     0.026 C 
ENDROOT
TORSDOF 0
ENDMDL
MODEL 2
REMARK VINA RESULT:      -8.0      2.717      5.721
REMARK  0 active torsions:
REMARK  status: ('A' for Active; 'I' for Inactive)
ROOT
HETATM    1  C1  UNL     1      17.722   1.216  50.279  1.00  0.00     0.049 C 
HETATM    2  C2  UNL     1      18.439   0.566  51.384  1.00  0.00    -0.053 C 
HETATM    3  C3  UNL     1      18.552  -0.351  52.297  1.00  0.00     0.071 C 
HETATM    4  C4  UNL     1      19.620  -0.434  53.129  1.00  0.00    -0.078 C 
HETATM    5  C5  UNL     1      20.526  -0.509  53.817  1.00  0.00    -0.098 C 
HETATM    6  C6  UNL     1      21.658  -0.620  54.665  1.00  0.00     0.124 C 
HETATM    7  C7  UNL     1      22.870  -1.143  53.988  1.00  0.00     0.022 C 
HETATM    8  C8  UNL     1      24.094  -0.611  53.953  1.00  0.00     0.094 C 
HETATM    9  O1  UNL     1      24.449   0.569  54.571  1.00  0.00    -0.326 OA
HETATM   10  C9  UNL     1      25.733   0.372  55.213  1.00  0.00     0.347 C 
HETATM   11  O2  UNL     1      26.188  -0.835  54.609  1.00  0.00    -0.336 OA
HETATM   12  C10 UNL     1      25.409  -0.862  53.417  1.00  0.00     0.280 C 
HETATM   13  N1  UNL     1      25.910  -0.065  52.407  1.00  0.00    -0.369 N 
HETATM   14  C11 UNL     1      27.184  -0.479  51.891  1.00  0.00     0.148 C 
HETATM   15  C12 UNL     1      25.465   1.201  52.049  1.00  0.00     0.271 C 
HETATM   16  N2  UNL     1      24.210   1.238  51.450  1.00  0.00    -0.264 NA
HETATM   17  C13 UNL     1      23.018   1.424  51.796  1.00  0.00     0.229 C 
HETATM   18  N3  UNL     1      22.562   1.265  50.436  1.00  0.00    -0.238 NA
HETATM   19  C14 UNL     1      22.542   2.362  49.707  1.00  0.00     0.114 C 
HETATM   20  C15 UNL     1      22.599   3.419  50.524  1.00  0.00     0.071 A 
HETATM   21  C16 UNL     1      23.244   4.618  51.087  1.00  0.00     0.110 A 
HETATM   22  C17 UNL     1      22.345   5.117  52.115  1.00  0.00     0.118 A 
HETATM   23  N4  UNL     1      21.340   4.385  52.183  1.00  0.00    -0.184 NA
HETATM   24  N5  UNL     1      21.417   3.341  51.254  1.00  0.00    -0.247 N 
HETATM   25  C18 UNL     1      20.369   2.460  51.217  1.00  0.00     0.119 C 
HETATM   26  C19 UNL     1      19.499   1.545  51.347  1.00  0.00     0.026 C 
ENDROOT
TORSDOF 0
ENDMDL
MODEL 3
REMARK VINA RESULT:      -7.7      2.820      4.768
REMARK  0 active torsions:
REMARK  status: ('A' for Active; 'I' for Inactive)
ROOT
HETATM    1  C1  UNL     1      25.908   2.473  53.452  1.00  0.00     0.049 C 
HETATM    2  C2  UNL     1      24.751   1.603  53.202  1.00  0.00    -0.053 C 
HETATM    3  C3  UNL     1      24.063   0.521  53.408  1.00  0.00     0.071 C 
HETATM    4  C4  UNL     1      22.893   0.261  52.773  1.00  0.00    -0.078 C 
HETATM    5  C5  UNL     1      21.903   0.052  52.248  1.00  0.00    -0.098 C 
HETATM    6  C6  UNL     1      20.661  -0.207  51.613  1.00  0.00     0.124 C 
HETATM    7  C7  UNL     1      19.536   0.609  52.132  1.00  0.00     0.022 C 
HETATM    8  C8  UNL     1      18.682   1.374  51.448  1.00  0.00     0.094 C 
HETATM    9  O1  UNL     1      18.708   1.538  50.080  1.00  0.00    -0.326 OA
HETATM   10  C9  UNL     1      17.345   1.470  49.593  1.00  0.00     0.347 C 
HETATM   11  O2  UNL     1      16.590   1.618  50.791  1.00  0.00    -0.336 OA
HETATM   12  C10 UNL     1      17.545   2.237  51.648  1.00  0.00     0.280 C 
HETATM   13  N1  UNL     1      17.666   3.599  51.453  1.00  0.00    -0.369 N 
HETATM   14  C11 UNL     1      16.492   4.359  51.782  1.00  0.00     0.148 C 
HETATM   15  C12 UNL     1      18.659   4.251  50.736  1.00  0.00     0.271 C 
HETATM   16  N2  UNL     1      19.921   4.228  51.320  1.00  0.00    -0.264 NA
HETATM   17  C13 UNL     1      20.968   3.539  51.250  1.00  0.00     0.229 C 
HETATM   18  N3  UNL     1      21.622   4.370  52.232  1.00  0.00    -0.238 NA
HETATM   19  C14 UNL     1      22.259   5.422  51.759  1.00  0.00     0.114 C 
HETATM   20  C15 UNL     1      22.451   5.250  50.446  1.00  0.00     0.071 A 
HETATM   21  C16 UNL     1      22.242   5.588  49.028  1.00  0.00     0.110 A 
HETATM   22  C17 UNL     1      22.999   4.609  48.263  1.00  0.00     0.118 A 
HETATM   23  N4  UNL     1      23.570   3.822  49.040  1.00  0.00    -0.184 NA
HETATM   24  N5  UNL     1      23.291   4.143  50.374  1.00  0.00    -0.247 N 
HETATM   25  C18 UNL     1      23.863   3.357  51.338  1.00  0.00     0.119 C 
HETATM   26  C19 UNL     1      24.226   2.497  52.197  1.00  0.00     0.026 C 
ENDROOT
TORSDOF 0
ENDMDL
MODEL 4
REMARK VINA RESULT:      -7.7      2.546      3.789
REMARK  0 active torsions:
REMARK  status: ('A' for Active; 'I' for Inactive)
ROOT
HETATM    1  C1  UNL     1      24.746   2.253  53.744  1.00  0.00     0.049 C 
HETATM    2  C2  UNL     1      23.894   1.886  52.605  1.00  0.00    -0.053 C 
HETATM    3  C3  UNL     1      22.947   1.185  52.059  1.00  0.00     0.071 C 
HETATM    4  C4  UNL     1      22.561   1.347  50.768  1.00  0.00    -0.078 C 
HETATM    5  C5  UNL     1      22.231   1.495  49.687  1.00  0.00    -0.098 C 
HETATM    6  C6  UNL     1      21.800   1.686  48.349  1.00  0.00     0.124 C 
HETATM    7  C7  UNL     1      21.007   2.922  48.141  1.00  0.00     0.022 C 
HETATM    8  C8  UNL     1      21.205   3.893  47.247  1.00  0.00     0.094 C 
HETATM    9  O1  UNL     1      22.231   3.907  46.326  1.00  0.00    -0.326 OA
HETATM   10  C9  UNL     1      21.686   4.334  45.053  1.00  0.00     0.347 C 
HETATM   11  O2  UNL     1      20.425   4.876  45.432  1.00  0.00    -0.336 OA
HETATM   12  C10 UNL     1      20.642   5.148  46.814  1.00  0.00     0.280 C 
HETATM   13  N1  UNL     1      21.319   6.329  47.048  1.00  0.00    -0.369 N 
HETATM   14  C11 UNL     1      20.607   7.515  46.660  1.00  0.00     0.148 C 
HETATM   15  C12 UNL     1      22.668   6.470  47.342  1.00  0.00     0.271 C 
HETATM   16  N2  UNL     1      23.049   6.008  48.597  1.00  0.00    -0.264 NA
HETATM   17  C13 UNL     1      23.525   4.961  49.100  1.00  0.00     0.229 C 
HETATM   18  N3  UNL     1      23.537   5.556  50.415  1.00  0.00    -0.238 NA
HETATM   19  C14 UNL     1      24.627   6.225  50.731  1.00  0.00     0.114 C 
HETATM   20  C15 UNL     1      25.604   5.871  49.888  1.00  0.00     0.071 A 
HETATM   21  C16 UNL     1      26.575   6.131  48.811  1.00  0.00     0.110 A 
HETATM   22  C17 UNL     1      27.252   4.868  48.563  1.00  0.00     0.118 A 
HETATM   23  N4  UNL     1      26.803   3.995  49.329  1.00  0.00    -0.184 NA
HETATM   24  N5  UNL     1      25.808   4.522  50.160  1.00  0.00    -0.247 N 
HETATM   25  C18 UNL     1      25.229   3.668  51.061  1.00  0.00     0.119 C 
HETATM   26  C19 UNL     1      24.567   2.817  51.730  1.00  0.00     0.026 C 
ENDROOT
TORSDOF 0
ENDMDL
MODEL 5
REMARK VINA RESULT:      -7.6      3.879      6.336
REMARK  0 active torsions:
REMARK  status: ('A' for Active; 'I' for Inactive)
ROOT
HETATM    1  C1  UNL     1      15.361  -1.860  52.171  1.00  0.00     0.049 C 
HETATM    2  C2  UNL     1      16.722  -1.639  52.679  1.00  0.00    -0.053 C 
HETATM    3  C3  UNL     1      17.792  -2.029  53.301  1.00  0.00     0.071 C 
HETATM    4  C4  UNL     1      18.883  -1.238  53.458  1.00  0.00    -0.078 C 
HETATM    5  C5  UNL     1      19.803  -0.575  53.575  1.00  0.00    -0.098 C 
HETATM    6  C6  UNL     1      20.959   0.237  53.709  1.00  0.00     0.124 C 
HETATM    7  C7  UNL     1      21.741   0.386  52.457  1.00  0.00     0.022 C 
HETATM    8  C8  UNL     1      22.142   1.510  51.860  1.00  0.00     0.094 C 
HETATM    9  O1  UNL     1      21.883   2.779  52.332  1.00  0.00    -0.326 OA
HETATM   10  C9  UNL     1      23.096   3.563  52.204  1.00  0.00     0.347 C 
HETATM   11  O2  UNL     1      23.880   2.761  51.327  1.00  0.00    -0.336 OA
HETATM   12  C10 UNL     1      22.876   1.963  50.704  1.00  0.00     0.280 C 
HETATM   13  N1  UNL     1      22.219   2.604  49.672  1.00  0.00    -0.369 N 
HETATM   14  C11 UNL     1      23.043   2.914  48.538  1.00  0.00     0.148 C 
HETATM   15  C12 UNL     1      20.969   3.206  49.730  1.00  0.00     0.271 C 
HETATM   16  N2  UNL     1      19.898   2.330  49.862  1.00  0.00    -0.264 NA
HETATM   17  C13 UNL     1      19.195   1.851  50.786  1.00  0.00     0.229 C 
HETATM   18  N3  UNL     1      18.401   1.103  49.841  1.00  0.00    -0.238 NA
HETATM   19  C14 UNL     1      17.356   1.733  49.346  1.00  0.00     0.114 C 
HETATM   20  C15 UNL     1      17.081   2.784  50.128  1.00  0.00     0.071 A 
HETATM   21  C16 UNL     1      16.965   4.225  50.408  1.00  0.00     0.110 A 
HETATM   22  C17 UNL     1      16.551   4.336  51.797  1.00  0.00     0.118 A 
HETATM   23  N4  UNL     1      16.428   3.199  52.290  1.00  0.00    -0.184 NA
HETATM   24  N5  UNL     1      16.728   2.210  51.346  1.00  0.00    -0.247 N 
HETATM   25  C18 UNL     1      16.627   0.907  51.754  1.00  0.00     0.119 C 
HETATM   26  C19 UNL     1      16.733  -0.272  52.211  1.00  0.00     0.026 C 
ENDROOT
TORSDOF 0
ENDMDL
MODEL 6
REMARK VINA RESULT:      -7.5      4.456      5.998
REMARK  0 active torsions:
REMARK  status: ('A' for Active; 'I' for Inactive)
ROOT
HETATM    1  C1  UNL     1      23.293  -0.333  54.036  1.00  0.00     0.049 C 
HETATM    2  C2  UNL     1      21.922  -0.846  53.919  1.00  0.00    -0.053 C 
HETATM    3  C3  UNL     1      20.952  -1.624  54.294  1.00  0.00     0.071 C 
HETATM    4  C4  UNL     1      19.733  -1.622  53.697  1.00  0.00    -0.078 C 
HETATM    5  C5  UNL     1      18.707  -1.607  53.202  1.00  0.00    -0.098 C 
HETATM    6  C6  UNL     1      17.421  -1.582  52.604  1.00  0.00     0.124 C 
HETATM    7  C7  UNL     1      16.609  -0.395  52.966  1.00  0.00     0.022 C 
HETATM    8  C8  UNL     1      15.996   0.469  52.154  1.00  0.00     0.094 C 
HETATM    9  O1  UNL     1      16.017   0.394  50.778  1.00  0.00    -0.326 OA
HETATM   10  C9  UNL     1      14.677   0.659  50.292  1.00  0.00     0.347 C 
HETATM   11  O2  UNL     1      14.047   1.218  51.440  1.00  0.00    -0.336 OA
HETATM   12  C10 UNL     1      15.175   1.654  52.194  1.00  0.00     0.280 C 
HETATM   13  N1  UNL     1      15.687   2.867  51.777  1.00  0.00    -0.369 N 
HETATM   14  C11 UNL     1      14.805   3.985  51.961  1.00  0.00     0.148 C 
HETATM   15  C12 UNL     1      16.801   3.066  50.973  1.00  0.00     0.271 C 
HETATM   16  N2  UNL     1      18.020   2.762  51.569  1.00  0.00    -0.264 NA
HETATM   17  C13 UNL     1      18.812   1.790  51.626  1.00  0.00     0.229 C 
HETATM   18  N3  UNL     1      19.720   2.534  52.465  1.00  0.00    -0.238 NA
HETATM   19  C14 UNL     1      20.622   3.256  51.832  1.00  0.00     0.114 C 
HETATM   20  C15 UNL     1      20.704   2.825  50.568  1.00  0.00     0.071 A 
HETATM   21  C16 UNL     1      20.551   2.975  49.111  1.00  0.00     0.110 A 
HETATM   22  C17 UNL     1      20.953   1.705  48.529  1.00  0.00     0.118 A 
HETATM   23  N4  UNL     1      21.294   0.919  49.433  1.00  0.00    -0.184 NA
HETATM   24  N5  UNL     1      21.174   1.521  50.691  1.00  0.00    -0.247 N 
HETATM   25  C18 UNL     1      21.524   0.767  51.779  1.00  0.00     0.119 C 
HETATM   26  C19 UNL     1      21.647  -0.011  52.773  1.00  0.00     0.026 C 
ENDROOT
TORSDOF 0
ENDMDL
MODEL 7
REMARK VINA RESULT:      -7.4      9.600     11.863
REMARK  0 active torsions:
REMARK  status: ('A' for Active; 'I' for Inactive)
ROOT
HETATM    1  C1  UNL     1      35.043   3.600  45.953  1.00  0.00     0.049 C 
HETATM    2  C2  UNL     1      33.740   3.896  46.565  1.00  0.00    -0.053 C 
HETATM    3  C3  UNL     1      32.756   3.612  47.363  1.00  0.00     0.071 C 
HETATM    4  C4  UNL     1      31.674   4.415  47.513  1.00  0.00    -0.078 C 
HETATM    5  C5  UNL     1      30.772   5.100  47.646  1.00  0.00    -0.098 C 
HETATM    6  C6  UNL     1      29.656   5.955  47.832  1.00  0.00     0.124 C 
HETATM    7  C7  UNL     1      29.952   7.170  48.629  1.00  0.00     0.022 C 
HETATM    8  C8  UNL     1      29.716   8.446  48.314  1.00  0.00     0.094 C 
HETATM    9  O1  UNL     1      29.127   8.862  47.139  1.00  0.00    -0.326 OA
HETATM   10  C9  UNL     1      28.163   9.895  47.461  1.00  0.00     0.347 C 
HETATM   11  O2  UNL     1      28.527  10.242  48.793  1.00  0.00    -0.336 OA
HETATM   12  C10 UNL     1      29.873   9.777  48.845  1.00  0.00     0.280 C 
HETATM   13  N1  UNL     1      30.783  10.647  48.276  1.00  0.00    -0.369 N 
HETATM   14  C11 UNL     1      30.917  11.904  48.958  1.00  0.00     0.148 C 
HETATM   15  C12 UNL     1      31.347  10.550  47.012  1.00  0.00     0.271 C 
HETATM   16  N2  UNL     1      32.249   9.505  46.846  1.00  0.00    -0.264 NA
HETATM   17  C13 UNL     1      32.238   8.323  46.424  1.00  0.00     0.229 C 
HETATM   18  N3  UNL     1      33.651   8.182  46.680  1.00  0.00    -0.238 NA
HETATM   19  C14 UNL     1      34.450   8.545  45.697  1.00  0.00     0.114 C 
HETATM   20  C15 UNL     1      33.736   8.607  44.567  1.00  0.00     0.071 A 
HETATM   21  C16 UNL     1      33.129   9.317  43.428  1.00  0.00     0.110 A 
HETATM   22  C17 UNL     1      32.411   8.311  42.661  1.00  0.00     0.118 A 
HETATM   23  N4  UNL     1      32.543   7.198  43.203  1.00  0.00    -0.184 NA
HETATM   24  N5  UNL     1      33.331   7.293  44.357  1.00  0.00    -0.247 N 
HETATM   25  C18 UNL     1      33.563   6.136  45.051  1.00  0.00     0.119 C 
HETATM   26  C19 UNL     1      33.585   5.101  45.786  1.00  0.00     0.026 C 
ENDROOT
TORSDOF 0
ENDMDL
MODEL 8
REMARK VINA RESULT:      -7.4      2.450      4.654
REMARK  0 active torsions:
REMARK  status: ('A' for Active; 'I' for Inactive)
ROOT
HETATM    1  C1  UNL     1      24.329  -0.807  53.089  1.00  0.00     0.049 C 
HETATM    2  C2  UNL     1      24.377   0.662  53.105  1.00  0.00    -0.053 C 
HETATM    3  C3  UNL     1      24.952   1.788  53.400  1.00  0.00     0.071 C 
HETATM    4  C4  UNL     1      24.408   2.994  53.098  1.00  0.00    -0.078 C 
HETATM    5  C5  UNL     1      23.954   4.005  52.831  1.00  0.00    -0.098 C 
HETATM    6  C6  UNL     1      23.405   5.266  52.485  1.00  0.00     0.124 C 
HETATM    7  C7  UNL     1      23.504   5.592  51.042  1.00  0.00     0.022 C 
HETATM    8  C8  UNL     1      22.530   5.968  50.209  1.00  0.00     0.094 C 
HETATM    9  O1  UNL     1      21.210   6.123  50.573  1.00  0.00    -0.326 OA
HETATM   10  C9  UNL     1      20.716   7.344  49.966  1.00  0.00     0.347 C 
HETATM   11  O2  UNL     1      21.720   7.623  48.996  1.00  0.00    -0.336 OA
HETATM   12  C10 UNL     1      22.317   6.340  48.832  1.00  0.00     0.280 C 
HETATM   13  N1  UNL     1      21.611   5.503  47.990  1.00  0.00    -0.369 N 
HETATM   14  C11 UNL     1      21.555   5.937  46.622  1.00  0.00     0.148 C 
HETATM   15  C12 UNL     1      20.751   4.480  48.364  1.00  0.00     0.271 C 
HETATM   16  N2  UNL     1      21.365   3.374  48.942  1.00  0.00    -0.264 NA
HETATM   17  C13 UNL     1      21.625   2.949  50.094  1.00  0.00     0.229 C 
HETATM   18  N3  UNL     1      22.238   1.759  49.554  1.00  0.00    -0.238 NA
HETATM   19  C14 UNL     1      21.427   0.743  49.341  1.00  0.00     0.114 C 
HETATM   20  C15 UNL     1      20.297   0.947  50.029  1.00  0.00     0.071 A 
HETATM   21  C16 UNL     1      18.851   1.200  50.144  1.00  0.00     0.110 A 
HETATM   22  C17 UNL     1      18.570   1.308  51.567  1.00  0.00     0.118 A 
HETATM   23  N4  UNL     1      19.622   1.151  52.214  1.00  0.00    -0.184 NA
HETATM   24  N5  UNL     1      20.708   0.927  51.358  1.00  0.00    -0.247 N 
HETATM   25  C18 UNL     1      21.931   0.731  51.941  1.00  0.00     0.119 C 
HETATM   26  C19 UNL     1      23.076   0.766  52.487  1.00  0.00     0.026 C 
ENDROOT
TORSDOF 0
ENDMDL
MODEL 9
REMARK VINA RESULT:      -7.2      8.549     11.321
REMARK  0 active torsions:
REMARK  status: ('A' for Active; 'I' for Inactive)
ROOT
HETATM    1  C1  UNL     1      25.506  11.102  45.289  1.00  0.00     0.049 C 
HETATM    2  C2  UNL     1      25.789   9.857  46.016  1.00  0.00    -0.053 C 
HETATM    3  C3  UNL     1      25.472   8.661  46.411  1.00  0.00     0.071 C 
HETATM    4  C4  UNL     1      26.289   7.899  47.181  1.00  0.00    -0.078 C 
HETATM    5  C5  UNL     1      26.984   7.257  47.816  1.00  0.00    -0.098 C 
HETATM    6  C6  UNL     1      27.850   6.444  48.591  1.00  0.00     0.124 C 
HETATM    7  C7  UNL     1      28.998   5.891  47.833  1.00  0.00     0.022 C 
HETATM    8  C8  UNL     1      30.298   5.963  48.128  1.00  0.00     0.094 C 
HETATM    9  O1  UNL     1      30.811   6.594  49.241  1.00  0.00    -0.326 OA
HETATM   10  C9  UNL     1      31.841   5.744  49.805  1.00  0.00     0.347 C 
HETATM   11  O2  UNL     1      32.084   4.824  48.746  1.00  0.00    -0.336 OA
HETATM   12  C10 UNL     1      31.585   5.549  47.625  1.00  0.00     0.280 C 
HETATM   13  N1  UNL     1      32.470   6.486  47.131  1.00  0.00    -0.369 N 
HETATM   14  C11 UNL     1      33.672   5.937  46.569  1.00  0.00     0.148 C 
HETATM   15  C12 UNL     1      32.450   7.854  47.366  1.00  0.00     0.271 C 
HETATM   16  N2  UNL     1      31.398   8.539  46.769  1.00  0.00    -0.264 NA
HETATM   17  C13 UNL     1      30.249   8.938  47.081  1.00  0.00     0.229 C 
HETATM   18  N3  UNL     1      30.057   9.516  45.773  1.00  0.00    -0.238 NA
HETATM   19  C14 UNL     1      30.470  10.759  45.630  1.00  0.00     0.114 C 
HETATM   20  C15 UNL     1      30.629  11.299  46.844  1.00  0.00     0.071 A 
HETATM   21  C16 UNL     1      31.432  11.875  47.936  1.00  0.00     0.110 A 
HETATM   22  C17 UNL     1      30.501  12.161  49.016  1.00  0.00     0.118 A 
HETATM   23  N4  UNL     1      29.349  11.835  48.673  1.00  0.00    -0.184 NA
HETATM   24  N5  UNL     1      29.343  11.309  47.375  1.00  0.00    -0.247 N 
HETATM   25  C18 UNL     1      28.134  10.914  46.867  1.00  0.00     0.119 C 
HETATM   26  C19 UNL     1      27.050  10.363  46.504  1.00  0.00     0.026 C 
ENDROOT
TORSDOF 0
ENDMDL
