MODEL 1
REMARK VINA RESULT:      -7.8      0.000      0.000
REMARK  1 active torsions:
REMARK  status: ('A' for Active; 'I' for Inactive)
REMARK    1  A    between atoms: O1_1  and  C1_2 
ROOT
HETATM    1  C1  UNL     1      23.531   7.161  51.033  1.00  0.00     0.064 C 
HETATM    2  C2  UNL     1      24.179   6.016  50.862  1.00  0.00     0.010 C 
HETATM    3  C3  UNL     1      24.960   4.798  50.788  1.00  0.00     0.030 C 
HETATM    4  C4  UNL     1      25.597   4.503  49.454  1.00  0.00     0.009 C 
HETATM    5  C5  UNL     1      25.716   2.939  49.503  1.00  0.00     0.046 C 
HETATM    6  C6  UNL     1      24.256   2.492  49.741  1.00  0.00    -0.015 C 
HETATM    7 BR1  UNL     1      23.352   3.249  48.194  1.00  0.00    -0.056 Br
HETATM    8  C7  UNL     1      23.487   1.799  50.602  1.00  0.00    -0.005 C 
HETATM    9  C8  UNL     1      24.342   1.257  51.690  1.00  0.00     0.084 C 
HETATM   10  C9  UNL     1      24.009   0.593  52.893  1.00  0.00     0.033 A 
HETATM   11  C10 UNL     1      25.321   0.419  53.271  1.00  0.00     0.103 A 
HETATM   12  N1  UNL     1      25.649  -0.364  54.364  1.00  0.00    -0.257 NA
HETATM   13  C11 UNL     1      24.580  -0.905  54.974  1.00  0.00     0.232 A 
HETATM   14  N2  UNL     1      23.303  -0.719  54.593  1.00  0.00    -0.246 NA
HETATM   15  C12 UNL     1      22.894   0.026  53.557  1.00  0.00     0.043 A 
HETATM   16  C13 UNL     1      21.589   0.302  53.603  1.00  0.00     0.009 C 
HETATM   17  C14 UNL     1      21.267   1.468  52.820  1.00  0.00     0.093 C 
HETATM   18  C15 UNL     1      20.275   2.312  52.345  1.00  0.00     0.065 C 
HETATM   19  N3  UNL     1      20.433   3.465  51.523  1.00  0.00    -0.418 N 
HETATM   20  C16 UNL     1      21.329   4.403  52.178  1.00  0.00     0.135 C 
HETATM   21  C17 UNL     1      21.330   5.794  51.592  1.00  0.00     0.168 C 
HETATM   22  N4  UNL     1      21.467   5.926  50.207  1.00  0.00    -0.286 NA
HETATM   23  C18 UNL     1      21.875   6.969  49.633  1.00  0.00     0.082 C 
HETATM   24  C19 UNL     1      22.457   7.867  50.357  1.00  0.00     0.069 C 
HETATM   25  H16 UNL     1      20.083   3.753  50.596  1.00  0.00     0.153 HD
ENDROOT
BRANCH   1  26
HETATM   26  O1  UNL     1      24.464   7.111  52.073  1.00  0.00    -0.361 OA
HETATM   27  H1  UNL     1      25.435   7.360  51.844  1.00  0.00     0.217 HD
ENDBRANCH   1  26
TORSDOF 1
ENDMDL
MODEL 2
REMARK VINA RESULT:      -7.6      3.022      4.827
REMARK  1 active torsions:
REMARK  status: ('A' for Active; 'I' for Inactive)
REMARK    1  A    between atoms: O1_1  and  C1_2 
ROOT
HETATM    1  C1  UNL     1      21.034   1.884  48.096  1.00  0.00     0.064 C 
HETATM    2  C2  UNL     1      21.270   1.376  49.299  1.00  0.00     0.010 C 
HETATM    3  C3  UNL     1      21.563   0.703  50.548  1.00  0.00     0.030 C 
HETATM    4  C4  UNL     1      20.485   0.765  51.599  1.00  0.00     0.009 C 
HETATM    5  C5  UNL     1      21.322   0.613  52.918  1.00  0.00     0.046 C 
HETATM    6  C6  UNL     1      22.328   1.783  52.820  1.00  0.00    -0.015 C 
HETATM    7 BR1  UNL     1      21.140   3.320  52.714  1.00  0.00    -0.056 Br
HETATM    8  C7  UNL     1      23.648   2.045  52.795  1.00  0.00    -0.005 C 
HETATM    9  C8  UNL     1      24.400   0.771  52.931  1.00  0.00     0.084 C 
HETATM   10  C9  UNL     1      25.782   0.490  52.823  1.00  0.00     0.033 A 
HETATM   11  C10 UNL     1      25.627  -0.849  53.106  1.00  0.00     0.103 A 
HETATM   12  N1  UNL     1      26.726  -1.664  53.313  1.00  0.00    -0.257 NA
HETATM   13  C11 UNL     1      27.900  -1.016  53.210  1.00  0.00     0.232 A 
HETATM   14  N2  UNL     1      28.032   0.293  52.926  1.00  0.00    -0.246 NA
HETATM   15  C12 UNL     1      27.028   1.152  52.704  1.00  0.00     0.043 A 
HETATM   16  C13 UNL     1      27.436   2.287  52.130  1.00  0.00     0.009 C 
HETATM   17  C14 UNL     1      26.356   2.956  51.453  1.00  0.00     0.093 C 
HETATM   18  C15 UNL     1      25.945   4.067  50.732  1.00  0.00     0.065 C 
HETATM   19  N3  UNL     1      24.649   4.332  50.202  1.00  0.00    -0.418 N 
HETATM   20  C16 UNL     1      24.261   3.247  49.316  1.00  0.00     0.135 C 
HETATM   21  C17 UNL     1      23.073   3.543  48.434  1.00  0.00     0.168 C 
HETATM   22  N4  UNL     1      21.926   4.076  49.029  1.00  0.00    -0.286 NA
HETATM   23  C18 UNL     1      20.772   4.001  48.532  1.00  0.00     0.082 C 
HETATM   24  C19 UNL     1      20.583   3.160  47.569  1.00  0.00     0.069 C 
HETATM   25  H16 UNL     1      23.951   5.081  50.325  1.00  0.00     0.153 HD
ENDROOT
BRANCH   1  26
HETATM   26  O1  UNL     1      21.452   0.571  47.862  1.00  0.00    -0.361 OA
HETATM   27  H1  UNL     1      22.073   0.145  48.562  1.00  0.00     0.217 HD
ENDBRANCH   1  26
TORSDOF 1
ENDMDL
MODEL 3
REMARK VINA RESULT:      -7.6      1.982      2.471
REMARK  1 active torsions:
REMARK  status: ('A' for Active; 'I' for Inactive)
REMARK    1  A    between atoms: O1_1  and  C1_2 
ROOT
HETATM    1  C1  UNL     1      21.300   6.819  50.293  1.00  0.00     0.064 C 
HETATM    2  C2  UNL     1      22.029   5.713  50.376  1.00  0.00     0.010 C 
HETATM    3  C3  UNL     1      22.856   4.544  50.596  1.00  0.00     0.030 C 
HETATM    4  C4  UNL     1      23.906   4.272  49.550  1.00  0.00     0.009 C 
HETATM    5  C5  UNL     1      24.087   2.719  49.682  1.00  0.00     0.046 C 
HETATM    6  C6  UNL     1      22.654   2.188  49.448  1.00  0.00    -0.015 C 
HETATM    7 BR1  UNL     1      22.263   2.872  47.669  1.00  0.00    -0.056 Br
HETATM    8  C7  UNL     1      21.685   1.460  50.034  1.00  0.00    -0.005 C 
HETATM    9  C8  UNL     1      22.168   0.983  51.356  1.00  0.00     0.084 C 
HETATM   10  C9  UNL     1      21.497   0.313  52.406  1.00  0.00     0.033 A 
HETATM   11  C10 UNL     1      22.623   0.223  53.194  1.00  0.00     0.103 A 
HETATM   12  N1  UNL     1      22.619  -0.526  54.357  1.00  0.00    -0.257 NA
HETATM   13  C11 UNL     1      21.440  -1.124  54.604  1.00  0.00     0.232 A 
HETATM   14  N2  UNL     1      20.349  -1.020  53.825  1.00  0.00    -0.246 NA
HETATM   15  C12 UNL     1      20.260  -0.313  52.690  1.00  0.00     0.043 A 
HETATM   16  C13 UNL     1      18.997  -0.114  52.302  1.00  0.00     0.009 C 
HETATM   17  C14 UNL     1      18.886   1.020  51.423  1.00  0.00     0.093 C 
HETATM   18  C15 UNL     1      18.058   1.798  50.627  1.00  0.00     0.065 C 
HETATM   19  N3  UNL     1      18.413   2.949  49.866  1.00  0.00    -0.418 N 
HETATM   20  C16 UNL     1      18.997   3.947  50.747  1.00  0.00     0.135 C 
HETATM   21  C17 UNL     1      19.114   5.329  50.150  1.00  0.00     0.168 C 
HETATM   22  N4  UNL     1      19.686   5.453  48.881  1.00  0.00    -0.286 NA
HETATM   23  C18 UNL     1      20.202   6.512  48.439  1.00  0.00     0.082 C 
HETATM   24  C19 UNL     1      20.469   7.452  49.284  1.00  0.00     0.069 C 
HETATM   25  H16 UNL     1      18.369   3.205  48.867  1.00  0.00     0.153 HD
ENDROOT
BRANCH   1  26
HETATM   26  O1  UNL     1      21.846   6.837  51.581  1.00  0.00    -0.361 OA
HETATM   27  H1  UNL     1      21.575   7.617  52.193  1.00  0.00     0.217 HD
ENDBRANCH   1  26
TORSDOF 1
ENDMDL
MODEL 4
REMARK VINA RESULT:      -7.4      5.095      7.042
REMARK  1 active torsions:
REMARK  status: ('A' for Active; 'I' for Inactive)
REMARK    1  A    between atoms: O1_1  and  C1_2 
ROOT
HETATM    1  C1  UNL     1      14.279   4.099  52.782  1.00  0.00     0.064 C 
HETATM    2  C2  UNL     1      15.522   3.890  52.366  1.00  0.00     0.010 C 
HETATM    3  C3  UNL     1      16.921   3.715  52.033  1.00  0.00     0.030 C 
HETATM    4  C4  UNL     1      17.359   4.279  50.706  1.00  0.00     0.009 C 
HETATM    5  C5  UNL     1      18.590   3.366  50.368  1.00  0.00     0.046 C 
HETATM    6  C6  UNL     1      17.980   1.945  50.403  1.00  0.00    -0.015 C 
HETATM    7 BR1  UNL     1      16.592   2.076  49.046  1.00  0.00    -0.056 Br
HETATM    8  C7  UNL     1      18.105   0.754  51.018  1.00  0.00    -0.005 C 
HETATM    9  C8  UNL     1      19.234   0.820  51.981  1.00  0.00     0.084 C 
HETATM   10  C9  UNL     1      19.679  -0.101  52.958  1.00  0.00     0.033 A 
HETATM   11  C10 UNL     1      20.736   0.687  53.354  1.00  0.00     0.103 A 
HETATM   12  N1  UNL     1      21.692   0.206  54.233  1.00  0.00    -0.257 NA
HETATM   13  C11 UNL     1      21.468  -1.060  54.625  1.00  0.00     0.232 A 
HETATM   14  N2  UNL     1      20.425  -1.813  54.232  1.00  0.00    -0.246 NA
HETATM   15  C12 UNL     1      19.452  -1.428  53.394  1.00  0.00     0.043 A 
HETATM   16  C13 UNL     1      18.388  -2.234  53.434  1.00  0.00     0.009 C 
HETATM   17  C14 UNL     1      17.204  -1.571  52.952  1.00  0.00     0.093 C 
HETATM   18  C15 UNL     1      15.855  -1.674  52.648  1.00  0.00     0.065 C 
HETATM   19  N3  UNL     1      14.993  -0.654  52.152  1.00  0.00    -0.418 N 
HETATM   20  C16 UNL     1      15.003   0.472  53.071  1.00  0.00     0.135 C 
HETATM   21  C17 UNL     1      13.898   1.477  52.854  1.00  0.00     0.168 C 
HETATM   22  N4  UNL     1      13.684   1.952  51.556  1.00  0.00    -0.286 NA
HETATM   23  C18 UNL     1      13.106   3.037  51.287  1.00  0.00     0.082 C 
HETATM   24  C19 UNL     1      12.946   3.889  52.245  1.00  0.00     0.069 C 
HETATM   25  H16 UNL     1      14.410  -0.538  51.309  1.00  0.00     0.153 HD
ENDROOT
BRANCH   1  26
HETATM   26  O1  UNL     1      15.094   4.545  53.828  1.00  0.00    -0.361 OA
HETATM   27  H1  UNL     1      14.623   4.882  54.677  1.00  0.00     0.217 HD
ENDBRANCH   1  26
TORSDOF 1
ENDMDL
MODEL 5
REMARK VINA RESULT:      -7.4      1.814      2.495
REMARK  1 active torsions:
REMARK  status: ('A' for Active; 'I' for Inactive)
REMARK    1  A    between atoms: O1_1  and  C1_2 
ROOT
HETATM    1  C1  UNL     1      22.850   6.855  50.960  1.00  0.00     0.064 C 
HETATM    2  C2  UNL     1      23.969   6.186  50.711  1.00  0.00     0.010 C 
HETATM    3  C3  UNL     1      25.252   5.536  50.534  1.00  0.00     0.030 C 
HETATM    4  C4  UNL     1      25.747   5.428  49.115  1.00  0.00     0.009 C 
HETATM    5  C5  UNL     1      26.673   4.164  49.201  1.00  0.00     0.046 C 
HETATM    6  C6  UNL     1      25.716   3.075  49.737  1.00  0.00    -0.015 C 
HETATM    7 BR1  UNL     1      24.335   3.052  48.365  1.00  0.00    -0.056 Br
HETATM    8  C7  UNL     1      25.559   2.211  50.757  1.00  0.00    -0.005 C 
HETATM    9  C8  UNL     1      26.718   2.331  51.678  1.00  0.00     0.084 C 
HETATM   10  C9  UNL     1      26.961   1.759  52.949  1.00  0.00     0.033 A 
HETATM   11  C10 UNL     1      28.209   2.328  53.071  1.00  0.00     0.103 A 
HETATM   12  N1  UNL     1      29.053   1.975  54.110  1.00  0.00    -0.257 NA
HETATM   13  C11 UNL     1      28.528   1.054  54.936  1.00  0.00     0.232 A 
HETATM   14  N2  UNL     1      27.303   0.513  54.804  1.00  0.00    -0.246 NA
HETATM   15  C12 UNL     1      26.419   0.800  53.839  1.00  0.00     0.043 A 
HETATM   16  C13 UNL     1      25.185   0.379  54.126  1.00  0.00     0.009 C 
HETATM   17  C14 UNL     1      24.191   1.102  53.376  1.00  0.00     0.093 C 
HETATM   18  C15 UNL     1      22.847   1.253  53.070  1.00  0.00     0.065 C 
HETATM   19  N3  UNL     1      22.256   2.203  52.188  1.00  0.00    -0.418 N 
HETATM   20  C16 UNL     1      22.613   3.545  52.618  1.00  0.00     0.135 C 
HETATM   21  C17 UNL     1      21.799   4.650  51.989  1.00  0.00     0.168 C 
HETATM   22  N4  UNL     1      21.644   4.645  50.599  1.00  0.00    -0.286 NA
HETATM   23  C18 UNL     1      21.357   5.662  49.917  1.00  0.00     0.082 C 
HETATM   24  C19 UNL     1      21.481   6.820  50.477  1.00  0.00     0.069 C 
HETATM   25  H16 UNL     1      21.677   2.146  51.336  1.00  0.00     0.153 HD
ENDROOT
BRANCH   1  26
HETATM   26  O1  UNL     1      23.811   7.426  51.799  1.00  0.00    -0.361 OA
HETATM   27  H1  UNL     1      23.646   8.391  52.112  1.00  0.00     0.217 HD
ENDBRANCH   1  26
TORSDOF 1
ENDMDL
MODEL 6
REMARK VINA RESULT:      -7.4      3.781      7.632
REMARK  1 active torsions:
REMARK  status: ('A' for Active; 'I' for Inactive)
REMARK    1  A    between atoms: O1_1  and  C1_2 
ROOT
HETATM    1  C1  UNL     1      23.404   4.051  52.676  1.00  0.00     0.064 C 
HETATM    2  C2  UNL     1      23.316   5.135  51.915  1.00  0.00     0.010 C 
HETATM    3  C3  UNL     1      23.262   6.391  51.196  1.00  0.00     0.030 C 
HETATM    4  C4  UNL     1      21.978   6.674  50.459  1.00  0.00     0.009 C 
HETATM    5  C5  UNL     1      22.475   7.630  49.318  1.00  0.00     0.046 C 
HETATM    6  C6  UNL     1      23.561   6.785  48.614  1.00  0.00    -0.015 C 
HETATM    7 BR1  UNL     1      22.549   5.219  48.060  1.00  0.00    -0.056 Br
HETATM    8  C7  UNL     1      24.867   6.798  48.288  1.00  0.00    -0.005 C 
HETATM    9  C8  UNL     1      25.469   8.078  48.743  1.00  0.00     0.084 C 
HETATM   10  C9  UNL     1      26.813   8.517  48.769  1.00  0.00     0.033 A 
HETATM   11  C10 UNL     1      26.497   9.757  49.278  1.00  0.00     0.103 A 
HETATM   12  N1  UNL     1      27.454  10.752  49.374  1.00  0.00    -0.257 NA
HETATM   13  C11 UNL     1      28.665  10.374  48.929  1.00  0.00     0.232 A 
HETATM   14  N2  UNL     1      28.957   9.155  48.440  1.00  0.00    -0.246 NA
HETATM   15  C12 UNL     1      28.099   8.133  48.319  1.00  0.00     0.043 A 
HETATM   16  C13 UNL     1      28.713   6.963  48.121  1.00  0.00     0.009 C 
HETATM   17  C14 UNL     1      27.872   5.855  48.490  1.00  0.00     0.093 C 
HETATM   18  C15 UNL     1      27.724   4.477  48.555  1.00  0.00     0.065 C 
HETATM   19  N3  UNL     1      26.610   3.743  49.053  1.00  0.00    -0.418 N 
HETATM   20  C16 UNL     1      26.356   4.131  50.430  1.00  0.00     0.135 C 
HETATM   21  C17 UNL     1      25.429   3.210  51.188  1.00  0.00     0.168 C 
HETATM   22  N4  UNL     1      24.219   2.852  50.586  1.00  0.00    -0.286 NA
HETATM   23  C18 UNL     1      23.209   2.446  51.217  1.00  0.00     0.082 C 
HETATM   24  C19 UNL     1      23.185   2.627  52.497  1.00  0.00     0.069 C 
HETATM   25  H16 UNL     1      25.960   3.046  48.657  1.00  0.00     0.153 HD
ENDROOT
BRANCH   1  26
HETATM   26  O1  UNL     1      23.765   5.113  53.511  1.00  0.00    -0.361 OA
HETATM   27  H1  UNL     1      23.940   4.893  54.500  1.00  0.00     0.217 HD
ENDBRANCH   1  26
TORSDOF 1
ENDMDL
MODEL 7
REMARK VINA RESULT:      -7.3      8.915     11.067
REMARK  1 active torsions:
REMARK  status: ('A' for Active; 'I' for Inactive)
REMARK    1  A    between atoms: O1_1  and  C1_2 
ROOT
HETATM    1  C1  UNL     1      29.473  12.355  48.817  1.00  0.00     0.064 C 
HETATM    2  C2  UNL     1      30.541  11.914  48.163  1.00  0.00     0.010 C 
HETATM    3  C3  UNL     1      31.782  11.468  47.563  1.00  0.00     0.030 C 
HETATM    4  C4  UNL     1      32.080  12.008  46.188  1.00  0.00     0.009 C 
HETATM    5  C5  UNL     1      32.997  10.878  45.599  1.00  0.00     0.046 C 
HETATM    6  C6  UNL     1      32.108   9.619  45.723  1.00  0.00    -0.015 C 
HETATM    7 BR1  UNL     1      30.556  10.123  44.664  1.00  0.00    -0.056 Br
HETATM    8  C7  UNL     1      32.080   8.393  46.278  1.00  0.00    -0.005 C 
HETATM    9  C8  UNL     1      33.355   8.159  47.005  1.00  0.00     0.084 C 
HETATM   10  C9  UNL     1      33.760   7.107  47.859  1.00  0.00     0.033 A 
HETATM   11  C10 UNL     1      35.019   7.628  48.059  1.00  0.00     0.103 A 
HETATM   12  N1  UNL     1      35.991   6.903  48.726  1.00  0.00    -0.257 NA
HETATM   13  C11 UNL     1      35.572   5.691  49.129  1.00  0.00     0.232 A 
HETATM   14  N2  UNL     1      34.335   5.201  48.930  1.00  0.00    -0.246 NA
HETATM   15  C12 UNL     1      33.333   5.833  48.304  1.00  0.00     0.043 A 
HETATM   16  C13 UNL     1      32.144   5.269  48.533  1.00  0.00     0.009 C 
HETATM   17  C14 UNL     1      31.066   6.195  48.303  1.00  0.00     0.093 C 
HETATM   18  C15 UNL     1      29.694   6.398  48.264  1.00  0.00     0.065 C 
HETATM   19  N3  UNL     1      29.000   7.606  47.965  1.00  0.00    -0.418 N 
HETATM   20  C16 UNL     1      29.426   8.646  48.887  1.00  0.00     0.135 C 
HETATM   21  C17 UNL     1      28.547   9.873  48.908  1.00  0.00     0.168 C 
HETATM   22  N4  UNL     1      28.206  10.461  47.687  1.00  0.00    -0.286 NA
HETATM   23  C18 UNL     1      27.841  11.658  47.556  1.00  0.00     0.082 C 
HETATM   24  C19 UNL     1      28.051  12.464  48.543  1.00  0.00     0.069 C 
HETATM   25  H16 UNL     1      28.311   7.894  47.253  1.00  0.00     0.153 HD
ENDROOT
BRANCH   1  26
HETATM   26  O1  UNL     1      30.544  12.553  49.693  1.00  0.00    -0.361 OA
HETATM   27  H1  UNL     1      30.316  12.726  50.680  1.00  0.00     0.217 HD
ENDBRANCH   1  26
TORSDOF 1
ENDMDL
MODEL 8
REMARK VINA RESULT:      -7.2      9.128     11.513
REMARK  1 active torsions:
REMARK  status: ('A' for Active; 'I' for Inactive)
REMARK    1  A    between atoms: O1_1  and  C1_2 
ROOT
HETATM    1  C1  UNL     1      29.976  10.048  44.378  1.00  0.00     0.064 C 
HETATM    2  C2  UNL     1      29.790   9.044  45.225  1.00  0.00     0.010 C 
HETATM    3  C3  UNL     1      29.593   7.863  46.040  1.00  0.00     0.030 C 
HETATM    4  C4  UNL     1      28.418   7.901  46.983  1.00  0.00     0.009 C 
HETATM    5  C5  UNL     1      28.884   6.910  48.107  1.00  0.00     0.046 C 
HETATM    6  C6  UNL     1      30.225   7.526  48.569  1.00  0.00    -0.015 C 
HETATM    7 BR1  UNL     1      29.668   9.299  49.147  1.00  0.00    -0.056 Br
HETATM    8  C7  UNL     1      31.534   7.240  48.693  1.00  0.00    -0.005 C 
HETATM    9  C8  UNL     1      31.771   5.841  48.254  1.00  0.00     0.084 C 
HETATM   10  C9  UNL     1      32.970   5.117  48.058  1.00  0.00     0.033 A 
HETATM   11  C10 UNL     1      32.322   3.956  47.702  1.00  0.00     0.103 A 
HETATM   12  N1  UNL     1      33.019   2.772  47.540  1.00  0.00    -0.257 NA
HETATM   13  C11 UNL     1      34.339   2.894  47.765  1.00  0.00     0.232 A 
HETATM   14  N2  UNL     1      34.957   4.039  48.107  1.00  0.00    -0.246 NA
HETATM   15  C12 UNL     1      34.364   5.229  48.277  1.00  0.00     0.043 A 
HETATM   16  C13 UNL     1      35.234   6.243  48.288  1.00  0.00     0.009 C 
HETATM   17  C14 UNL     1      34.595   7.492  47.965  1.00  0.00     0.093 C 
HETATM   18  C15 UNL     1      34.731   8.864  47.816  1.00  0.00     0.065 C 
HETATM   19  N3  UNL     1      33.728   9.803  47.437  1.00  0.00    -0.418 N 
HETATM   20  C16 UNL     1      33.175   9.421  46.149  1.00  0.00     0.135 C 
HETATM   21  C17 UNL     1      32.350  10.488  45.471  1.00  0.00     0.168 C 
HETATM   22  N4  UNL     1      31.358  11.129  46.219  1.00  0.00    -0.286 NA
HETATM   23  C18 UNL     1      30.366  11.719  45.719  1.00  0.00     0.082 C 
HETATM   24  C19 UNL     1      30.093  11.493  44.476  1.00  0.00     0.069 C 
HETATM   25  H16 UNL     1      33.313  10.641  47.871  1.00  0.00     0.153 HD
ENDROOT
BRANCH   1  26
HETATM   26  O1  UNL     1      29.963   8.898  43.583  1.00  0.00    -0.361 OA
HETATM   27  H1  UNL     1      30.858   8.409  43.452  1.00  0.00     0.217 HD
ENDBRANCH   1  26
TORSDOF 1
ENDMDL
MODEL 9
REMARK VINA RESULT:      -7.2      3.907      6.728
REMARK  1 active torsions:
REMARK  status: ('A' for Active; 'I' for Inactive)
REMARK    1  A    between atoms: O1_1  and  C1_2 
ROOT
HETATM    1  C1  UNL     1      21.188   2.101  48.128  1.00  0.00     0.064 C 
HETATM    2  C2  UNL     1      22.277   2.335  48.850  1.00  0.00     0.010 C 
HETATM    3  C3  UNL     1      23.534   2.510  49.548  1.00  0.00     0.030 C 
HETATM    4  C4  UNL     1      23.511   2.234  51.029  1.00  0.00     0.009 C 
HETATM    5  C5  UNL     1      24.690   3.137  51.536  1.00  0.00     0.046 C 
HETATM    6  C6  UNL     1      24.281   4.543  51.038  1.00  0.00    -0.015 C 
HETATM    7 BR1  UNL     1      22.559   4.787  51.910  1.00  0.00    -0.056 Br
HETATM    8  C7  UNL     1      24.710   5.559  50.267  1.00  0.00    -0.005 C 
HETATM    9  C8  UNL     1      26.051   5.225  49.722  1.00  0.00     0.084 C 
HETATM   10  C9  UNL     1      26.857   5.881  48.763  1.00  0.00     0.033 A 
HETATM   11  C10 UNL     1      27.887   4.974  48.869  1.00  0.00     0.103 A 
HETATM   12  N1  UNL     1      29.101   5.198  48.243  1.00  0.00    -0.257 NA
HETATM   13  C11 UNL     1      29.143   6.355  47.559  1.00  0.00     0.232 A 
HETATM   14  N2  UNL     1      28.124   7.228  47.462  1.00  0.00    -0.246 NA
HETATM   15  C12 UNL     1      26.916   7.088  48.026  1.00  0.00     0.043 A 
HETATM   16  C13 UNL     1      26.005   7.917  47.508  1.00  0.00     0.009 C 
HETATM   17  C14 UNL     1      24.666   7.438  47.732  1.00  0.00     0.093 C 
HETATM   18  C15 UNL     1      23.307   7.673  47.587  1.00  0.00     0.065 C 
HETATM   19  N3  UNL     1      22.230   6.833  47.991  1.00  0.00    -0.418 N 
HETATM   20  C16 UNL     1      22.372   5.532  47.360  1.00  0.00     0.135 C 
HETATM   21  C17 UNL     1      21.144   4.657  47.428  1.00  0.00     0.168 C 
HETATM   22  N4  UNL     1      20.518   4.494  48.667  1.00  0.00    -0.286 NA
HETATM   23  C18 UNL     1      19.768   3.527  48.959  1.00  0.00     0.082 C 
HETATM   24  C19 UNL     1      19.791   2.492  48.186  1.00  0.00     0.069 C 
HETATM   25  H16 UNL     1      21.422   6.937  48.625  1.00  0.00     0.153 HD
ENDROOT
BRANCH   1  26
HETATM   26  O1  UNL     1      22.210   1.394  47.487  1.00  0.00    -0.361 OA
HETATM   27  H1  UNL     1      22.102   1.225  46.479  1.00  0.00     0.217 HD
ENDBRANCH   1  26
TORSDOF 1
ENDMDL
