MODEL 1
REMARK VINA RESULT:      -7.7      0.000      0.000
REMARK  5 active torsions:
REMARK  status: ('A' for Active; 'I' for Inactive)
REMARK    1  A    between atoms: C3_4  and  C4_5 
REMARK    2  A    between atoms: C6_8  and  O2_9 
REMARK    3  A    between atoms: O2_9  and  C7_10 
REMARK    4  A    between atoms: C7_10  and  C8_11 
REMARK    5  A    between atoms: C8_11  and  C9_12 
ROOT
HETATM    1  O1  UNL     1      27.196  -1.504  52.146  1.00  0.00    -0.270 OA
HETATM    2  C1  UNL     1      27.172  -0.906  53.226  1.00  0.00     0.273 A 
HETATM    3  C2  UNL     1      28.501  -0.662  53.087  1.00  0.00     0.068 A 
HETATM    4  C3  UNL     1      28.029  -0.126  54.241  1.00  0.00     0.098 A 
HETATM    5  C4  UNL     1      27.072   0.155  55.169  1.00  0.00     0.259 A 
HETATM    6  C5  UNL     1      25.739  -0.120  55.267  1.00  0.00     0.270 A 
HETATM    7  N1  UNL     1      26.280  -0.599  54.162  1.00  0.00     0.037 N 
HETATM    8  C6  UNL     1      25.173  -0.559  53.129  1.00  0.00     0.360 C 
HETATM    9  C14 UNL     1      25.884   0.293  52.037  1.00  0.00     0.030 C 
HETATM   10  C15 UNL     1      26.581   1.326  52.581  1.00  0.00    -0.026 C 
HETATM   11  C16 UNL     1      27.208   2.314  53.479  1.00  0.00     0.027 C 
HETATM   12  C17 UNL     1      28.719   2.139  53.586  1.00  0.00     0.005 C 
HETATM   13  C18 UNL     1      29.002   0.960  54.567  1.00  0.00     0.026 C 
ENDROOT
BRANCH   8  14
HETATM   14  O2  UNL     1      24.178   0.233  53.576  1.00  0.00    -0.355 OA
BRANCH  14  15
HETATM   15  C7  UNL     1      22.907  -0.098  53.110  1.00  0.00     0.175 C 
BRANCH  15  16
HETATM   16  C8  UNL     1      22.224   1.222  52.826  1.00  0.00     0.063 C 
BRANCH  16  17
HETATM   17  C9  UNL     1      22.331   1.664  51.425  1.00  0.00    -0.047 A 
HETATM   18  C10 UNL     1      23.067   2.742  51.242  1.00  0.00     0.037 A 
HETATM   19 CL1  UNL     1      23.826   3.529  52.609  1.00  0.00    -0.084 Cl
HETATM   20  C11 UNL     1      23.314   3.354  49.943  1.00  0.00     0.031 A 
HETATM   21  C12 UNL     1      22.748   2.760  48.905  1.00  0.00     0.047 A 
HETATM   22  S1  UNL     1      21.714   1.307  48.860  1.00  0.00    -0.137 SA
HETATM   23  C13 UNL     1      21.548   0.736  50.571  1.00  0.00     0.114 A 
ENDBRANCH  16  17
ENDBRANCH  15  16
ENDBRANCH  14  15
ENDBRANCH   8  14
TORSDOF 5
ENDMDL
MODEL 2
REMARK VINA RESULT:      -7.5      2.008      2.728
REMARK  5 active torsions:
REMARK  status: ('A' for Active; 'I' for Inactive)
REMARK    1  A    between atoms: C3_4  and  C4_5 
REMARK    2  A    between atoms: C6_8  and  O2_9 
REMARK    3  A    between atoms: O2_9  and  C7_10 
REMARK    4  A    between atoms: C7_10  and  C8_11 
REMARK    5  A    between atoms: C8_11  and  C9_12 
ROOT
HETATM    1  O1  UNL     1      26.780  -1.423  51.982  1.00  0.00    -0.270 OA
HETATM    2  C1  UNL     1      26.881  -0.852  53.071  1.00  0.00     0.273 A 
HETATM    3  C2  UNL     1      28.222  -1.068  53.028  1.00  0.00     0.068 A 
HETATM    4  C3  UNL     1      27.876  -0.404  54.160  1.00  0.00     0.098 A 
HETATM    5  C4  UNL     1      27.005   0.180  55.029  1.00  0.00     0.259 A 
HETATM    6  C5  UNL     1      25.653   0.367  55.031  1.00  0.00     0.270 A 
HETATM    7  N1  UNL     1      26.079  -0.264  53.954  1.00  0.00     0.037 N 
HETATM    8  C6  UNL     1      25.125   0.145  52.851  1.00  0.00     0.360 C 
HETATM    9  C14 UNL     1      26.155   0.710  51.830  1.00  0.00     0.030 C 
HETATM   10  C15 UNL     1      27.117   1.449  52.443  1.00  0.00    -0.026 C 
HETATM   11  C16 UNL     1      27.973   2.170  53.404  1.00  0.00     0.027 C 
HETATM   12  C17 UNL     1      29.327   1.498  53.607  1.00  0.00     0.005 C 
HETATM   13  C18 UNL     1      29.131   0.293  54.576  1.00  0.00     0.026 C 
ENDROOT
BRANCH   8  14
HETATM   14  O2  UNL     1      24.423   1.224  53.249  1.00  0.00    -0.355 OA
BRANCH  14  15
HETATM   15  C7  UNL     1      23.180   1.376  52.639  1.00  0.00     0.175 C 
BRANCH  15  16
HETATM   16  C8  UNL     1      22.557  -0.003  52.644  1.00  0.00     0.063 C 
BRANCH  16  17
HETATM   17  C9  UNL     1      21.108  -0.009  52.380  1.00  0.00    -0.047 A 
HETATM   18  C10 UNL     1      20.386  -0.646  53.281  1.00  0.00     0.037 A 
HETATM   19 CL1  UNL     1      21.165  -1.399  54.656  1.00  0.00    -0.084 Cl
HETATM   20  C11 UNL     1      18.936  -0.775  53.226  1.00  0.00     0.031 A 
HETATM   21  C12 UNL     1      18.341  -0.202  52.192  1.00  0.00     0.047 A 
HETATM   22  S1  UNL     1      19.060   0.712  50.840  1.00  0.00    -0.137 SA
HETATM   23  C13 UNL     1      20.850   0.734  51.121  1.00  0.00     0.114 A 
ENDBRANCH  16  17
ENDBRANCH  15  16
ENDBRANCH  14  15
ENDBRANCH   8  14
TORSDOF 5
ENDMDL
MODEL 3
REMARK VINA RESULT:      -7.4      2.068      3.325
REMARK  5 active torsions:
REMARK  status: ('A' for Active; 'I' for Inactive)
REMARK    1  A    between atoms: C3_4  and  C4_5 
REMARK    2  A    between atoms: C6_8  and  O2_9 
REMARK    3  A    between atoms: O2_9  and  C7_10 
REMARK    4  A    between atoms: C7_10  and  C8_11 
REMARK    5  A    between atoms: C8_11  and  C9_12 
ROOT
HETATM    1  O1  UNL     1      26.263   0.624  55.509  1.00  0.00    -0.270 OA
HETATM    2  C1  UNL     1      26.891   0.744  54.453  1.00  0.00     0.273 A 
HETATM    3  C2  UNL     1      27.956   0.150  55.052  1.00  0.00     0.068 A 
HETATM    4  C3  UNL     1      28.242   0.469  53.765  1.00  0.00     0.098 A 
HETATM    5  C4  UNL     1      27.972   0.986  52.534  1.00  0.00     0.259 A 
HETATM    6  C5  UNL     1      26.879   1.585  51.978  1.00  0.00     0.270 A 
HETATM    7  N1  UNL     1      26.683   1.230  53.233  1.00  0.00     0.037 N 
HETATM    8  C6  UNL     1      25.207   0.900  53.328  1.00  0.00     0.360 C 
HETATM    9  C14 UNL     1      25.313  -0.553  53.874  1.00  0.00     0.030 C 
HETATM   10  C15 UNL     1      26.306  -1.250  53.261  1.00  0.00    -0.026 C 
HETATM   11  C16 UNL     1      27.424  -1.701  52.411  1.00  0.00     0.027 C 
HETATM   12  C17 UNL     1      28.724  -1.870  53.189  1.00  0.00     0.005 C 
HETATM   13  C18 UNL     1      29.354  -0.458  53.394  1.00  0.00     0.026 C 
ENDROOT
BRANCH   8  14
HETATM   14  O2  UNL     1      24.706   0.754  52.085  1.00  0.00    -0.355 OA
BRANCH  14  15
HETATM   15  C7  UNL     1      23.540   1.474  51.833  1.00  0.00     0.175 C 
BRANCH  15  16
HETATM   16  C8  UNL     1      22.638   1.208  53.019  1.00  0.00     0.063 C 
BRANCH  16  17
HETATM   17  C9  UNL     1      21.287   0.745  52.654  1.00  0.00    -0.047 A 
HETATM   18  C10 UNL     1      20.748  -0.104  53.507  1.00  0.00     0.037 A 
HETATM   19 CL1  UNL     1      21.633  -0.593  54.937  1.00  0.00    -0.084 Cl
HETATM   20  C11 UNL     1      19.423  -0.688  53.353  1.00  0.00     0.031 A 
HETATM   21  C12 UNL     1      18.748  -0.319  52.277  1.00  0.00     0.047 A 
HETATM   22  S1  UNL     1      19.225   0.800  50.972  1.00  0.00    -0.137 SA
HETATM   23  C13 UNL     1      20.891   1.387  51.376  1.00  0.00     0.114 A 
ENDBRANCH  16  17
ENDBRANCH  15  16
ENDBRANCH  14  15
ENDBRANCH   8  14
TORSDOF 5
ENDMDL
MODEL 4
REMARK VINA RESULT:      -7.0      3.113      6.488
REMARK  5 active torsions:
REMARK  status: ('A' for Active; 'I' for Inactive)
REMARK    1  A    between atoms: C3_4  and  C4_5 
REMARK    2  A    between atoms: C6_8  and  O2_9 
REMARK    3  A    between atoms: O2_9  and  C7_10 
REMARK    4  A    between atoms: C7_10  and  C8_11 
REMARK    5  A    between atoms: C8_11  and  C9_12 
ROOT
HETATM    1  O1  UNL     1      22.099   4.714  52.250  1.00  0.00    -0.270 OA
HETATM    2  C1  UNL     1      22.255   4.018  51.243  1.00  0.00     0.273 A 
HETATM    3  C2  UNL     1      22.364   5.156  50.509  1.00  0.00     0.068 A 
HETATM    4  C3  UNL     1      22.492   4.059  49.721  1.00  0.00     0.098 A 
HETATM    5  C4  UNL     1      22.528   2.721  49.467  1.00  0.00     0.259 A 
HETATM    6  C5  UNL     1      22.404   1.607  50.244  1.00  0.00     0.270 A 
HETATM    7  N1  UNL     1      22.304   2.725  50.936  1.00  0.00     0.037 N 
HETATM    8  C6  UNL     1      22.859   2.396  52.307  1.00  0.00     0.360 C 
HETATM    9  C14 UNL     1      23.958   3.495  52.398  1.00  0.00     0.030 C 
HETATM   10  C15 UNL     1      24.621   3.642  51.221  1.00  0.00    -0.026 C 
HETATM   11  C16 UNL     1      25.123   3.536  49.837  1.00  0.00     0.027 C 
HETATM   12  C17 UNL     1      24.734   4.733  48.976  1.00  0.00     0.005 C 
HETATM   13  C18 UNL     1      23.251   4.547  48.530  1.00  0.00     0.026 C 
ENDROOT
BRANCH   8  14
HETATM   14  O2  UNL     1      23.548   1.240  52.239  1.00  0.00    -0.355 OA
BRANCH  14  15
HETATM   15  C7  UNL     1      24.595   1.125  53.151  1.00  0.00     0.175 C 
BRANCH  15  16
HETATM   16  C8  UNL     1      25.593   0.190  52.503  1.00  0.00     0.063 C 
BRANCH  16  17
HETATM   17  C9  UNL     1      26.979   0.373  52.970  1.00  0.00    -0.047 A 
HETATM   18  C10 UNL     1      27.697  -0.732  53.008  1.00  0.00     0.037 A 
HETATM   19 CL1  UNL     1      26.987  -2.258  52.525  1.00  0.00    -0.084 Cl
HETATM   20  C11 UNL     1      29.090  -0.788  53.432  1.00  0.00     0.031 A 
HETATM   21  C12 UNL     1      29.634   0.363  53.793  1.00  0.00     0.047 A 
HETATM   22  S1  UNL     1      28.906   1.991  53.839  1.00  0.00    -0.137 SA
HETATM   23  C13 UNL     1      27.191   1.809  53.281  1.00  0.00     0.114 A 
ENDBRANCH  16  17
ENDBRANCH  15  16
ENDBRANCH  14  15
ENDBRANCH   8  14
TORSDOF 5
ENDMDL
MODEL 5
REMARK VINA RESULT:      -7.0      2.008      2.954
REMARK  5 active torsions:
REMARK  status: ('A' for Active; 'I' for Inactive)
REMARK    1  A    between atoms: C3_4  and  C4_5 
REMARK    2  A    between atoms: C6_8  and  O2_9 
REMARK    3  A    between atoms: O2_9  and  C7_10 
REMARK    4  A    between atoms: C7_10  and  C8_11 
REMARK    5  A    between atoms: C8_11  and  C9_12 
ROOT
HETATM    1  O1  UNL     1      26.274   0.543  55.604  1.00  0.00    -0.270 OA
HETATM    2  C1  UNL     1      26.959   0.728  54.593  1.00  0.00     0.273 A 
HETATM    3  C2  UNL     1      27.968   0.041  55.188  1.00  0.00     0.068 A 
HETATM    4  C3  UNL     1      28.332   0.457  53.948  1.00  0.00     0.098 A 
HETATM    5  C4  UNL     1      28.145   1.089  52.757  1.00  0.00     0.259 A 
HETATM    6  C5  UNL     1      27.105   1.779  52.204  1.00  0.00     0.270 A 
HETATM    7  N1  UNL     1      26.832   1.325  53.412  1.00  0.00     0.037 N 
HETATM    8  C6  UNL     1      25.342   1.050  53.407  1.00  0.00     0.360 C 
HETATM    9  C14 UNL     1      25.365  -0.448  53.828  1.00  0.00     0.030 C 
HETATM   10  C15 UNL     1      26.361  -1.130  53.203  1.00  0.00    -0.026 C 
HETATM   11  C16 UNL     1      27.505  -1.552  52.371  1.00  0.00     0.027 C 
HETATM   12  C17 UNL     1      28.756  -1.841  53.193  1.00  0.00     0.005 C 
HETATM   13  C18 UNL     1      29.426  -0.480  53.551  1.00  0.00     0.026 C 
ENDROOT
BRANCH   8  14
HETATM   14  O2  UNL     1      24.900   1.033  52.134  1.00  0.00    -0.355 OA
BRANCH  14  15
HETATM   15  C7  UNL     1      23.575   1.429  51.965  1.00  0.00     0.175 C 
BRANCH  15  16
HETATM   16  C8  UNL     1      23.522   2.091  50.605  1.00  0.00     0.063 C 
BRANCH  16  17
HETATM   17  C9  UNL     1      23.365   3.555  50.655  1.00  0.00    -0.047 A 
HETATM   18  C10 UNL     1      24.364   4.233  50.124  1.00  0.00     0.037 A 
HETATM   19 CL1  UNL     1      25.732   3.386  49.435  1.00  0.00    -0.084 Cl
HETATM   20  C11 UNL     1      24.422   5.687  50.059  1.00  0.00     0.031 A 
HETATM   21  C12 UNL     1      23.388   6.333  50.573  1.00  0.00     0.047 A 
HETATM   22  S1  UNL     1      21.918   5.680  51.345  1.00  0.00    -0.137 SA
HETATM   23  C13 UNL     1      22.075   3.874  51.315  1.00  0.00     0.114 A 
ENDBRANCH  16  17
ENDBRANCH  15  16
ENDBRANCH  14  15
ENDBRANCH   8  14
TORSDOF 5
ENDMDL
MODEL 6
REMARK VINA RESULT:      -6.8      1.805      2.838
REMARK  5 active torsions:
REMARK  status: ('A' for Active; 'I' for Inactive)
REMARK    1  A    between atoms: C3_4  and  C4_5 
REMARK    2  A    between atoms: C6_8  and  O2_9 
REMARK    3  A    between atoms: O2_9  and  C7_10 
REMARK    4  A    between atoms: C7_10  and  C8_11 
REMARK    5  A    between atoms: C8_11  and  C9_12 
ROOT
HETATM    1  O1  UNL     1      26.132   0.827  55.527  1.00  0.00    -0.270 OA
HETATM    2  C1  UNL     1      26.857   0.898  54.531  1.00  0.00     0.273 A 
HETATM    3  C2  UNL     1      27.538  -0.186  54.987  1.00  0.00     0.068 A 
HETATM    4  C3  UNL     1      28.053   0.248  53.808  1.00  0.00     0.098 A 
HETATM    5  C4  UNL     1      28.132   1.071  52.726  1.00  0.00     0.259 A 
HETATM    6  C5  UNL     1      27.422   2.161  52.314  1.00  0.00     0.270 A 
HETATM    7  N1  UNL     1      26.979   1.666  53.453  1.00  0.00     0.037 N 
HETATM    8  C6  UNL     1      25.491   1.950  53.458  1.00  0.00     0.360 C 
HETATM    9  C14 UNL     1      24.963   0.500  53.660  1.00  0.00     0.030 C 
HETATM   10  C15 UNL     1      25.658  -0.397  52.911  1.00  0.00    -0.026 C 
HETATM   11  C16 UNL     1      26.588  -1.076  51.989  1.00  0.00     0.027 C 
HETATM   12  C17 UNL     1      27.634  -1.913  52.718  1.00  0.00     0.005 C 
HETATM   13  C18 UNL     1      28.743  -0.952  53.244  1.00  0.00     0.026 C 
ENDROOT
BRANCH   8  14
HETATM   14  O2  UNL     1      25.099   2.279  52.212  1.00  0.00    -0.355 OA
BRANCH  14  15
HETATM   15  C7  UNL     1      24.351   3.451  52.119  1.00  0.00     0.175 C 
BRANCH  15  16
HETATM   16  C8  UNL     1      22.908   3.004  52.033  1.00  0.00     0.063 C 
BRANCH  16  17
HETATM   17  C9  UNL     1      22.515   2.495  50.707  1.00  0.00    -0.047 A 
HETATM   18  C10 UNL     1      21.888   1.335  50.726  1.00  0.00     0.037 A 
HETATM   19 CL1  UNL     1      21.584   0.527  52.249  1.00  0.00    -0.084 Cl
HETATM   20  C11 UNL     1      21.404   0.647  49.537  1.00  0.00     0.031 A 
HETATM   21  C12 UNL     1      21.626   1.256  48.384  1.00  0.00     0.047 A 
HETATM   22  S1  UNL     1      22.440   2.811  48.065  1.00  0.00    -0.137 SA
HETATM   23  C13 UNL     1      22.952   3.468  49.675  1.00  0.00     0.114 A 
ENDBRANCH  16  17
ENDBRANCH  15  16
ENDBRANCH  14  15
ENDBRANCH   8  14
TORSDOF 5
ENDMDL
MODEL 7
REMARK VINA RESULT:      -6.8      2.938      6.512
REMARK  5 active torsions:
REMARK  status: ('A' for Active; 'I' for Inactive)
REMARK    1  A    between atoms: C3_4  and  C4_5 
REMARK    2  A    between atoms: C6_8  and  O2_9 
REMARK    3  A    between atoms: O2_9  and  C7_10 
REMARK    4  A    between atoms: C7_10  and  C8_11 
REMARK    5  A    between atoms: C8_11  and  C9_12 
ROOT
HETATM    1  O1  UNL     1      22.610   1.701  49.487  1.00  0.00    -0.270 OA
HETATM    2  C1  UNL     1      22.505   2.536  50.389  1.00  0.00     0.273 A 
HETATM    3  C2  UNL     1      21.383   3.005  49.784  1.00  0.00     0.068 A 
HETATM    4  C3  UNL     1      21.648   3.703  50.918  1.00  0.00     0.098 A 
HETATM    5  C4  UNL     1      22.364   4.015  52.034  1.00  0.00     0.259 A 
HETATM    6  C5  UNL     1      23.500   3.514  52.600  1.00  0.00     0.270 A 
HETATM    7  N1  UNL     1      23.160   2.882  51.493  1.00  0.00     0.037 N 
HETATM    8  C6  UNL     1      23.635   1.457  51.687  1.00  0.00     0.360 C 
HETATM    9  C14 UNL     1      22.287   0.714  51.457  1.00  0.00     0.030 C 
HETATM   10  C15 UNL     1      21.250   1.357  52.056  1.00  0.00    -0.026 C 
HETATM   11  C16 UNL     1      20.383   2.282  52.812  1.00  0.00     0.027 C 
HETATM   12  C17 UNL     1      19.479   3.113  51.908  1.00  0.00     0.005 C 
HETATM   13  C18 UNL     1      20.327   4.279  51.314  1.00  0.00     0.026 C 
ENDROOT
BRANCH   8  14
HETATM   14  O2  UNL     1      23.910   1.255  52.991  1.00  0.00    -0.355 OA
BRANCH  14  15
HETATM   15  C7  UNL     1      24.785   0.203  53.252  1.00  0.00     0.175 C 
BRANCH  15  16
HETATM   16  C8  UNL     1      25.956   0.411  52.316  1.00  0.00     0.063 C 
BRANCH  16  17
HETATM   17  C9  UNL     1      27.196  -0.259  52.746  1.00  0.00    -0.047 A 
HETATM   18  C10 UNL     1      28.127   0.552  53.208  1.00  0.00     0.037 A 
HETATM   19 CL1  UNL     1      27.836   2.277  53.273  1.00  0.00    -0.084 Cl
HETATM   20  C11 UNL     1      29.428   0.112  53.693  1.00  0.00     0.031 A 
HETATM   21  C12 UNL     1      29.652  -1.192  53.652  1.00  0.00     0.047 A 
HETATM   22  S1  UNL     1      28.586  -2.504  53.084  1.00  0.00    -0.137 SA
HETATM   23  C13 UNL     1      27.047  -1.720  52.532  1.00  0.00     0.114 A 
ENDBRANCH  16  17
ENDBRANCH  15  16
ENDBRANCH  14  15
ENDBRANCH   8  14
TORSDOF 5
ENDMDL
MODEL 8
REMARK VINA RESULT:      -6.7      8.304      9.865
REMARK  5 active torsions:
REMARK  status: ('A' for Active; 'I' for Inactive)
REMARK    1  A    between atoms: C3_4  and  C4_5 
REMARK    2  A    between atoms: C6_8  and  O2_9 
REMARK    3  A    between atoms: O2_9  and  C7_10 
REMARK    4  A    between atoms: C7_10  and  C8_11 
REMARK    5  A    between atoms: C8_11  and  C9_12 
ROOT
HETATM    1  O1  UNL     1      34.510   5.672  49.206  1.00  0.00    -0.270 OA
HETATM    2  C1  UNL     1      34.334   5.488  47.998  1.00  0.00     0.273 A 
HETATM    3  C2  UNL     1      34.989   4.304  48.113  1.00  0.00     0.068 A 
HETATM    4  C3  UNL     1      34.585   4.511  46.834  1.00  0.00     0.098 A 
HETATM    5  C4  UNL     1      33.992   5.210  45.826  1.00  0.00     0.259 A 
HETATM    6  C5  UNL     1      33.347   6.411  45.760  1.00  0.00     0.270 A 
HETATM    7  N1  UNL     1      33.767   6.123  46.977  1.00  0.00     0.037 N 
HETATM    8  C6  UNL     1      32.761   6.771  47.907  1.00  0.00     0.360 C 
HETATM    9  C14 UNL     1      32.340   5.516  48.727  1.00  0.00     0.030 C 
HETATM   10  C15 UNL     1      32.188   4.424  47.932  1.00  0.00    -0.026 C 
HETATM   11  C16 UNL     1      32.110   3.470  46.809  1.00  0.00     0.027 C 
HETATM   12  C17 UNL     1      33.245   2.452  46.821  1.00  0.00     0.005 C 
HETATM   13  C18 UNL     1      34.519   3.140  46.242  1.00  0.00     0.026 C 
ENDROOT
BRANCH   8  14
HETATM   14  O2  UNL     1      31.657   7.098  47.207  1.00  0.00    -0.355 OA
BRANCH  14  15
HETATM   15  C7  UNL     1      30.581   7.539  47.975  1.00  0.00     0.175 C 
BRANCH  15  16
HETATM   16  C8  UNL     1      29.365   7.398  47.085  1.00  0.00     0.063 C 
BRANCH  16  17
HETATM   17  C9  UNL     1      28.213   6.756  47.741  1.00  0.00    -0.047 A 
HETATM   18  C10 UNL     1      27.106   7.472  47.732  1.00  0.00     0.037 A 
HETATM   19 CL1  UNL     1      27.089   9.053  46.980  1.00  0.00    -0.084 Cl
HETATM   20  C11 UNL     1      25.845   7.036  48.317  1.00  0.00     0.031 A 
HETATM   21  C12 UNL     1      25.850   5.840  48.882  1.00  0.00     0.047 A 
HETATM   22  S1  UNL     1      27.187   4.669  49.037  1.00  0.00    -0.137 SA
HETATM   23  C13 UNL     1      28.633   5.427  48.250  1.00  0.00     0.114 A 
ENDBRANCH  16  17
ENDBRANCH  15  16
ENDBRANCH  14  15
ENDBRANCH   8  14
TORSDOF 5
ENDMDL
MODEL 9
REMARK VINA RESULT:      -6.7      3.641      5.988
REMARK  5 active torsions:
REMARK  status: ('A' for Active; 'I' for Inactive)
REMARK    1  A    between atoms: C3_4  and  C4_5 
REMARK    2  A    between atoms: C6_8  and  O2_9 
REMARK    3  A    between atoms: O2_9  and  C7_10 
REMARK    4  A    between atoms: C7_10  and  C8_11 
REMARK    5  A    between atoms: C8_11  and  C9_12 
ROOT
HETATM    1  O1  UNL     1      23.537   5.813  51.887  1.00  0.00    -0.270 OA
HETATM    2  C1  UNL     1      23.658   5.195  50.825  1.00  0.00     0.273 A 
HETATM    3  C2  UNL     1      24.759   5.942  50.551  1.00  0.00     0.068 A 
HETATM    4  C3  UNL     1      24.517   5.054  49.553  1.00  0.00     0.098 A 
HETATM    5  C4  UNL     1      23.828   4.057  48.931  1.00  0.00     0.259 A 
HETATM    6  C5  UNL     1      22.713   3.338  49.247  1.00  0.00     0.270 A 
HETATM    7  N1  UNL     1      23.029   4.222  50.173  1.00  0.00     0.037 N 
HETATM    8  C6  UNL     1      22.573   3.609  51.481  1.00  0.00     0.360 C 
HETATM    9  C14 UNL     1      23.922   3.650  52.257  1.00  0.00     0.030 C 
HETATM   10  C15 UNL     1      24.968   3.294  51.466  1.00  0.00    -0.026 C 
HETATM   11  C16 UNL     1      25.846   2.865  50.360  1.00  0.00     0.027 C 
HETATM   12  C17 UNL     1      26.717   3.996  49.826  1.00  0.00     0.005 C 
HETATM   13  C18 UNL     1      25.842   4.879  48.885  1.00  0.00     0.026 C 
ENDROOT
BRANCH   8  14
HETATM   14  O2  UNL     1      22.335   2.295  51.295  1.00  0.00    -0.355 OA
BRANCH  14  15
HETATM   15  C7  UNL     1      21.776   1.637  52.388  1.00  0.00     0.175 C 
BRANCH  15  16
HETATM   16  C8  UNL     1      22.220   0.196  52.261  1.00  0.00     0.063 C 
BRANCH  16  17
HETATM   17  C9  UNL     1      23.103  -0.258  53.349  1.00  0.00    -0.047 A 
HETATM   18  C10 UNL     1      22.489  -0.897  54.326  1.00  0.00     0.037 A 
HETATM   19 CL1  UNL     1      20.758  -1.146  54.260  1.00  0.00    -0.084 Cl
HETATM   20  C11 UNL     1      23.162  -1.438  55.500  1.00  0.00     0.031 A 
HETATM   21  C12 UNL     1      24.472  -1.258  55.552  1.00  0.00     0.047 A 
HETATM   22  S1  UNL     1      25.548  -0.441  54.387  1.00  0.00    -0.137 SA
HETATM   23  C13 UNL     1      24.496   0.145  53.033  1.00  0.00     0.114 A 
ENDBRANCH  16  17
ENDBRANCH  15  16
ENDBRANCH  14  15
ENDBRANCH   8  14
TORSDOF 5
ENDMDL
