MODEL 1
REMARK VINA RESULT:      -7.5      0.000      0.000
REMARK  3 active torsions:
REMARK  status: ('A' for Active; 'I' for Inactive)
REMARK    1  A    between atoms: C3_4  and  S1_5 
REMARK    2  A    between atoms: N4_11  and  C7_12 
REMARK    3  A    between atoms: C7_12  and  C8_13 
ROOT
HETATM    1  S1  UNL     1      24.548  -0.190  53.225  1.00  0.00    -0.118 SA
HETATM    2  C4  UNL     1      23.990   1.077  52.358  1.00  0.00     0.049 A 
HETATM    3  C5  UNL     1      22.727   1.313  52.581  1.00  0.00     0.104 A 
HETATM    4  C6  UNL     1      21.735   0.684  53.433  1.00  0.00     0.147 A 
HETATM    5  N2  UNL     1      20.621   1.315  53.279  1.00  0.00    -0.154 NA
HETATM    6  N3  UNL     1      20.721   2.362  52.376  1.00  0.00    -0.216 N 
HETATM    7  N4  UNL     1      22.056   2.393  51.908  1.00  0.00    -0.268 N 
HETATM    8  C12 UNL     1      22.010  -0.462  54.294  1.00  0.00     0.155 A 
HETATM    9  F1  UNL     1      21.082  -1.050  55.091  1.00  0.00    -0.203 F 
HETATM   10  C13 UNL     1      23.250  -0.929  54.269  1.00  0.00     0.089 A 
HETATM   11  H5  UNL     1      19.901   2.962  52.151  1.00  0.00     0.211 HD
ENDROOT
BRANCH   1  12
HETATM   12  C3  UNL     1      26.251  -0.239  53.801  1.00  0.00     0.036 A 
HETATM   13  C2  UNL     1      27.342  -0.703  53.055  1.00  0.00     0.131 A 
HETATM   14  N1  UNL     1      28.441  -0.576  53.833  1.00  0.00    -0.284 N 
HETATM   15  C1  UNL     1      29.829  -0.925  53.506  1.00  0.00     0.179 C 
HETATM   16  N5  UNL     1      28.087  -0.066  55.005  1.00  0.00    -0.184 NA
HETATM   17  C14 UNL     1      26.757   0.161  55.043  1.00  0.00     0.158 A 
ENDBRANCH   1  12
BRANCH   7  18
HETATM   18  C7  UNL     1      22.492   3.382  50.942  1.00  0.00     0.189 C 
BRANCH  18  19
HETATM   19  C8  UNL     1      22.457   2.907  49.546  1.00  0.00    -0.038 A 
HETATM   20  C9  UNL     1      22.739   3.329  48.313  1.00  0.00     0.009 A 
HETATM   21  C10 UNL     1      22.319   2.050  47.758  1.00  0.00     0.001 A 
HETATM   22  C11 UNL     1      22.040   1.636  48.986  1.00  0.00     0.009 A 
ENDBRANCH  18  19
ENDBRANCH   7  18
TORSDOF 3
ENDMDL
MODEL 2
REMARK VINA RESULT:      -7.4      3.394      6.204
REMARK  3 active torsions:
REMARK  status: ('A' for Active; 'I' for Inactive)
REMARK    1  A    between atoms: C3_4  and  S1_5 
REMARK    2  A    between atoms: N4_11  and  C7_12 
REMARK    3  A    between atoms: C7_12  and  C8_13 
ROOT
HETATM    1  S1  UNL     1      26.559   1.983  51.507  1.00  0.00    -0.118 SA
HETATM    2  C4  UNL     1      25.423   0.920  52.006  1.00  0.00     0.049 A 
HETATM    3  C5  UNL     1      25.708   0.396  53.165  1.00  0.00     0.104 A 
HETATM    4  C6  UNL     1      26.816   0.566  54.085  1.00  0.00     0.147 A 
HETATM    5  N2  UNL     1      26.609  -0.198  55.103  1.00  0.00    -0.154 NA
HETATM    6  N3  UNL     1      25.430  -0.919  54.999  1.00  0.00    -0.216 N 
HETATM    7  N4  UNL     1      24.824  -0.565  53.769  1.00  0.00    -0.268 N 
HETATM    8  C12 UNL     1      27.943   1.464  53.846  1.00  0.00     0.155 A 
HETATM    9  F1  UNL     1      28.980   1.623  54.708  1.00  0.00    -0.203 F 
HETATM   10  C13 UNL     1      27.917   2.145  52.710  1.00  0.00     0.089 A 
HETATM   11  H5  UNL     1      25.131  -1.578  55.746  1.00  0.00     0.211 HD
ENDROOT
BRANCH   1  12
HETATM   12  C3  UNL     1      26.114   3.411  50.508  1.00  0.00     0.036 A 
HETATM   13  C2  UNL     1      24.946   4.169  50.658  1.00  0.00     0.131 A 
HETATM   14  N1  UNL     1      24.982   5.147  49.726  1.00  0.00    -0.284 N 
HETATM   15  C1  UNL     1      23.989   6.199  49.476  1.00  0.00     0.179 C 
HETATM   16  N5  UNL     1      26.097   5.033  49.017  1.00  0.00    -0.184 NA
HETATM   17  C14 UNL     1      26.831   3.986  49.452  1.00  0.00     0.158 A 
ENDBRANCH   1  12
BRANCH   7  18
HETATM   18  C7  UNL     1      23.563  -1.149  53.356  1.00  0.00     0.189 C 
BRANCH  18  19
HETATM   19  C8  UNL     1      22.382  -0.372  53.775  1.00  0.00    -0.038 A 
HETATM   20  C9  UNL     1      21.682   0.704  53.413  1.00  0.00     0.009 A 
HETATM   21  C10 UNL     1      20.766   0.507  54.527  1.00  0.00     0.001 A 
HETATM   22  C11 UNL     1      21.464  -0.562  54.881  1.00  0.00     0.009 A 
ENDBRANCH  18  19
ENDBRANCH   7  18
TORSDOF 3
ENDMDL
MODEL 3
REMARK VINA RESULT:      -7.1      2.480      4.169
REMARK  3 active torsions:
REMARK  status: ('A' for Active; 'I' for Inactive)
REMARK    1  A    between atoms: C3_4  and  S1_5 
REMARK    2  A    between atoms: N4_11  and  C7_12 
REMARK    3  A    between atoms: C7_12  and  C8_13 
ROOT
HETATM    1  S1  UNL     1      25.576   2.115  52.805  1.00  0.00    -0.118 SA
HETATM    2  C4  UNL     1      23.968   1.906  53.002  1.00  0.00     0.049 A 
HETATM    3  C5  UNL     1      23.287   2.284  51.957  1.00  0.00     0.104 A 
HETATM    4  C6  UNL     1      23.667   2.844  50.674  1.00  0.00     0.147 A 
HETATM    5  N2  UNL     1      22.590   3.040  49.991  1.00  0.00    -0.154 NA
HETATM    6  N3  UNL     1      21.446   2.666  50.678  1.00  0.00    -0.216 N 
HETATM    7  N4  UNL     1      21.852   2.176  51.942  1.00  0.00    -0.268 N 
HETATM    8  C12 UNL     1      25.046   3.116  50.280  1.00  0.00     0.155 A 
HETATM    9  F1  UNL     1      25.401   3.640  49.079  1.00  0.00    -0.203 F 
HETATM   10  C13 UNL     1      25.979   2.821  51.174  1.00  0.00     0.089 A 
HETATM   11  H5  UNL     1      20.503   2.767  50.252  1.00  0.00     0.211 HD
ENDROOT
BRANCH   1  12
HETATM   12  C3  UNL     1      26.756   0.999  53.578  1.00  0.00     0.036 A 
HETATM   13  C2  UNL     1      27.959   0.572  53.002  1.00  0.00     0.131 A 
HETATM   14  N1  UNL     1      28.557  -0.253  53.891  1.00  0.00    -0.284 N 
HETATM   15  C1  UNL     1      29.838  -0.957  53.756  1.00  0.00     0.179 C 
HETATM   16  N5  UNL     1      27.794  -0.356  54.970  1.00  0.00    -0.184 NA
HETATM   17  C14 UNL     1      26.676   0.390  54.835  1.00  0.00     0.158 A 
ENDBRANCH   1  12
BRANCH   7  18
HETATM   18  C7  UNL     1      20.884   1.699  52.911  1.00  0.00     0.189 C 
BRANCH  18  19
HETATM   19  C8  UNL     1      21.195   0.364  53.456  1.00  0.00    -0.038 A 
HETATM   20  C9  UNL     1      21.508  -0.864  53.042  1.00  0.00     0.009 A 
HETATM   21  C10 UNL     1      21.583  -1.331  54.418  1.00  0.00     0.001 A 
HETATM   22  C11 UNL     1      21.272  -0.107  54.824  1.00  0.00     0.009 A 
ENDBRANCH  18  19
ENDBRANCH   7  18
TORSDOF 3
ENDMDL
MODEL 4
REMARK VINA RESULT:      -7.0      2.004      6.320
REMARK  3 active torsions:
REMARK  status: ('A' for Active; 'I' for Inactive)
REMARK    1  A    between atoms: C3_4  and  S1_5 
REMARK    2  A    between atoms: N4_11  and  C7_12 
REMARK    3  A    between atoms: C7_12  and  C8_13 
ROOT
HETATM    1  S1  UNL     1      23.172   1.649  52.515  1.00  0.00    -0.118 SA
HETATM    2  C4  UNL     1      24.604   1.328  53.232  1.00  0.00     0.049 A 
HETATM    3  C5  UNL     1      24.542   0.296  54.025  1.00  0.00     0.104 A 
HETATM    4  C6  UNL     1      23.470  -0.611  54.392  1.00  0.00     0.147 A 
HETATM    5  N2  UNL     1      23.946  -1.473  55.225  1.00  0.00    -0.154 NA
HETATM    6  N3  UNL     1      25.289  -1.267  55.498  1.00  0.00    -0.216 N 
HETATM    7  N4  UNL     1      25.707  -0.142  54.747  1.00  0.00    -0.268 N 
HETATM    8  C12 UNL     1      22.108  -0.514  53.875  1.00  0.00     0.155 A 
HETATM    9  F1  UNL     1      21.106  -1.362  54.219  1.00  0.00    -0.203 F 
HETATM   10  C13 UNL     1      21.876   0.474  53.022  1.00  0.00     0.089 A 
HETATM   11  H5  UNL     1      25.809  -1.886  56.154  1.00  0.00     0.211 HD
ENDROOT
BRANCH   1  12
HETATM   12  C3  UNL     1      23.102   2.351  50.861  1.00  0.00     0.036 A 
HETATM   13  C2  UNL     1      22.447   1.773  49.766  1.00  0.00     0.131 A 
HETATM   14  N1  UNL     1      22.624   2.601  48.712  1.00  0.00    -0.284 N 
HETATM   15  C1  UNL     1      22.131   2.439  47.339  1.00  0.00     0.179 C 
HETATM   16  N5  UNL     1      23.346   3.645  49.095  1.00  0.00    -0.184 NA
HETATM   17  C14 UNL     1      23.668   3.547  50.403  1.00  0.00     0.158 A 
ENDBRANCH   1  12
BRANCH   7  18
HETATM   18  C7  UNL     1      27.073   0.339  54.809  1.00  0.00     0.189 C 
BRANCH  18  19
HETATM   19  C8  UNL     1      28.029  -0.480  54.042  1.00  0.00    -0.038 A 
HETATM   20  C9  UNL     1      28.045  -1.411  53.087  1.00  0.00     0.009 A 
HETATM   21  C10 UNL     1      29.498  -1.469  53.140  1.00  0.00     0.001 A 
HETATM   22  C11 UNL     1      29.476  -0.543  54.088  1.00  0.00     0.009 A 
ENDBRANCH  18  19
ENDBRANCH   7  18
TORSDOF 3
ENDMDL
MODEL 5
REMARK VINA RESULT:      -6.8      1.012      1.825
REMARK  3 active torsions:
REMARK  status: ('A' for Active; 'I' for Inactive)
REMARK    1  A    between atoms: C3_4  and  S1_5 
REMARK    2  A    between atoms: N4_11  and  C7_12 
REMARK    3  A    between atoms: C7_12  and  C8_13 
ROOT
HETATM    1  S1  UNL     1      24.591  -0.162  53.192  1.00  0.00    -0.118 SA
HETATM    2  C4  UNL     1      24.006   0.957  52.156  1.00  0.00     0.049 A 
HETATM    3  C5  UNL     1      22.735   1.186  52.339  1.00  0.00     0.104 A 
HETATM    4  C6  UNL     1      21.754   0.654  53.265  1.00  0.00     0.147 A 
HETATM    5  N2  UNL     1      20.624   1.226  53.020  1.00  0.00    -0.154 NA
HETATM    6  N3  UNL     1      20.703   2.141  51.982  1.00  0.00    -0.216 N 
HETATM    7  N4  UNL     1      22.041   2.144  51.519  1.00  0.00    -0.268 N 
HETATM    8  C12 UNL     1      22.053  -0.354  54.278  1.00  0.00     0.155 A 
HETATM    9  F1  UNL     1      21.134  -0.852  55.144  1.00  0.00    -0.203 F 
HETATM   10  C13 UNL     1      23.305  -0.785  54.322  1.00  0.00     0.089 A 
HETATM   11  H5  UNL     1      19.869   2.680  51.672  1.00  0.00     0.211 HD
ENDROOT
BRANCH   1  12
HETATM   12  C3  UNL     1      26.290  -0.082  53.776  1.00  0.00     0.036 A 
HETATM   13  C2  UNL     1      27.386  -0.697  53.158  1.00  0.00     0.131 A 
HETATM   14  N1  UNL     1      28.479  -0.403  53.897  1.00  0.00    -0.284 N 
HETATM   15  C1  UNL     1      29.869  -0.814  53.664  1.00  0.00     0.179 C 
HETATM   16  N5  UNL     1      28.118   0.351  54.926  1.00  0.00    -0.184 NA
HETATM   17  C14 UNL     1      26.788   0.580  54.904  1.00  0.00     0.158 A 
ENDBRANCH   1  12
BRANCH   7  18
HETATM   18  C7  UNL     1      22.458   3.001  50.427  1.00  0.00     0.189 C 
BRANCH  18  19
HETATM   19  C8  UNL     1      23.111   4.249  50.866  1.00  0.00    -0.038 A 
HETATM   20  C9  UNL     1      24.304   4.844  50.842  1.00  0.00     0.009 A 
HETATM   21  C10 UNL     1      23.766   5.996  51.549  1.00  0.00     0.001 A 
HETATM   22  C11 UNL     1      22.582   5.400  51.570  1.00  0.00     0.009 A 
ENDBRANCH  18  19
ENDBRANCH   7  18
TORSDOF 3
ENDMDL
MODEL 6
REMARK VINA RESULT:      -6.7      8.745     11.297
REMARK  3 active torsions:
REMARK  status: ('A' for Active; 'I' for Inactive)
REMARK    1  A    between atoms: C3_4  and  S1_5 
REMARK    2  A    between atoms: N4_11  and  C7_12 
REMARK    3  A    between atoms: C7_12  and  C8_13 
ROOT
HETATM    1  S1  UNL     1      28.867   6.514  48.115  1.00  0.00    -0.118 SA
HETATM    2  C4  UNL     1      30.122   5.483  47.942  1.00  0.00     0.049 A 
HETATM    3  C5  UNL     1      31.258   6.021  48.289  1.00  0.00     0.104 A 
HETATM    4  C6  UNL     1      31.623   7.332  48.791  1.00  0.00     0.147 A 
HETATM    5  N2  UNL     1      32.899   7.345  48.978  1.00  0.00    -0.154 NA
HETATM    6  N3  UNL     1      33.499   6.139  48.652  1.00  0.00    -0.216 N 
HETATM    7  N4  UNL     1      32.479   5.265  48.206  1.00  0.00    -0.268 N 
HETATM    8  C12 UNL     1      30.666   8.410  49.023  1.00  0.00     0.155 A 
HETATM    9  F1  UNL     1      31.008   9.637  49.492  1.00  0.00    -0.203 F 
HETATM   10  C13 UNL     1      29.399   8.138  48.747  1.00  0.00     0.089 A 
HETATM   11  H5  UNL     1      34.526   6.002  48.752  1.00  0.00     0.211 HD
ENDROOT
BRANCH   1  12
HETATM   12  C3  UNL     1      27.229   5.913  48.549  1.00  0.00     0.036 A 
HETATM   13  C2  UNL     1      26.938   4.621  49.006  1.00  0.00     0.131 A 
HETATM   14  N1  UNL     1      25.604   4.564  49.221  1.00  0.00    -0.284 N 
HETATM   15  C1  UNL     1      24.811   3.427  49.702  1.00  0.00     0.179 C 
HETATM   16  N5  UNL     1      25.065   5.738  48.924  1.00  0.00    -0.184 NA
HETATM   17  C14 UNL     1      26.013   6.605  48.506  1.00  0.00     0.158 A 
ENDBRANCH   1  12
BRANCH   7  18
HETATM   18  C7  UNL     1      32.780   3.910  47.786  1.00  0.00     0.189 C 
BRANCH  18  19
HETATM   19  C8  UNL     1      33.836   3.826  46.760  1.00  0.00    -0.038 A 
HETATM   20  C9  UNL     1      35.045   3.292  46.575  1.00  0.00     0.009 A 
HETATM   21  C10 UNL     1      35.109   3.853  45.234  1.00  0.00     0.001 A 
HETATM   22  C11 UNL     1      33.908   4.381  45.424  1.00  0.00     0.009 A 
ENDBRANCH  18  19
ENDBRANCH   7  18
TORSDOF 3
ENDMDL
MODEL 7
REMARK VINA RESULT:      -6.7      2.970      5.457
REMARK  3 active torsions:
REMARK  status: ('A' for Active; 'I' for Inactive)
REMARK    1  A    between atoms: C3_4  and  S1_5 
REMARK    2  A    between atoms: N4_11  and  C7_12 
REMARK    3  A    between atoms: C7_12  and  C8_13 
ROOT
HETATM    1  S1  UNL     1      23.460   1.422  52.962  1.00  0.00    -0.118 SA
HETATM    2  C4  UNL     1      23.633   2.849  52.185  1.00  0.00     0.049 A 
HETATM    3  C5  UNL     1      24.800   2.965  51.615  1.00  0.00     0.104 A 
HETATM    4  C6  UNL     1      25.956   2.092  51.535  1.00  0.00     0.147 A 
HETATM    5  N2  UNL     1      26.862   2.694  50.841  1.00  0.00    -0.154 NA
HETATM    6  N3  UNL     1      26.456   3.946  50.405  1.00  0.00    -0.216 N 
HETATM    7  N4  UNL     1      25.140   4.155  50.881  1.00  0.00    -0.268 N 
HETATM    8  C12 UNL     1      26.024   0.771  52.153  1.00  0.00     0.155 A 
HETATM    9  F1  UNL     1      27.106  -0.045  52.078  1.00  0.00    -0.203 F 
HETATM   10  C13 UNL     1      24.947   0.381  52.819  1.00  0.00     0.089 A 
HETATM   11  H5  UNL     1      27.083   4.548  49.834  1.00  0.00     0.211 HD
ENDROOT
BRANCH   1  12
HETATM   12  C3  UNL     1      21.853   0.622  53.078  1.00  0.00     0.036 A 
HETATM   13  C2  UNL     1      20.836   0.712  52.120  1.00  0.00     0.131 A 
HETATM   14  N1  UNL     1      19.795  -0.024  52.571  1.00  0.00    -0.284 N 
HETATM   15  C1  UNL     1      18.494  -0.246  51.928  1.00  0.00     0.179 C 
HETATM   16  N5  UNL     1      20.114  -0.555  53.744  1.00  0.00    -0.184 NA
HETATM   17  C14 UNL     1      21.364  -0.193  54.105  1.00  0.00     0.158 A 
ENDBRANCH   1  12
BRANCH   7  18
HETATM   18  C7  UNL     1      24.422   5.381  50.595  1.00  0.00     0.189 C 
BRANCH  18  19
HETATM   19  C8  UNL     1      23.735   5.379  49.290  1.00  0.00    -0.038 A 
HETATM   20  C9  UNL     1      23.511   6.181  48.248  1.00  0.00     0.009 A 
HETATM   21  C10 UNL     1      22.744   5.138  47.584  1.00  0.00     0.001 A 
HETATM   22  C11 UNL     1      22.969   4.345  48.622  1.00  0.00     0.009 A 
ENDBRANCH  18  19
ENDBRANCH   7  18
TORSDOF 3
ENDMDL
MODEL 8
REMARK VINA RESULT:      -6.6      4.128      6.352
REMARK  3 active torsions:
REMARK  status: ('A' for Active; 'I' for Inactive)
REMARK    1  A    between atoms: C3_4  and  S1_5 
REMARK    2  A    between atoms: N4_11  and  C7_12 
REMARK    3  A    between atoms: C7_12  and  C8_13 
ROOT
HETATM    1  S1  UNL     1      24.407   4.515  49.596  1.00  0.00    -0.118 SA
HETATM    2  C4  UNL     1      24.454   3.469  50.848  1.00  0.00     0.049 A 
HETATM    3  C5  UNL     1      23.553   2.532  50.747  1.00  0.00     0.104 A 
HETATM    4  C6  UNL     1      22.534   2.239  49.757  1.00  0.00     0.147 A 
HETATM    5  N2  UNL     1      21.900   1.182  50.139  1.00  0.00    -0.154 NA
HETATM    6  N3  UNL     1      22.379   0.676  51.337  1.00  0.00    -0.216 N 
HETATM    7  N4  UNL     1      23.440   1.514  51.757  1.00  0.00    -0.268 N 
HETATM    8  C12 UNL     1      22.310   3.039  48.556  1.00  0.00     0.155 A 
HETATM    9  F1  UNL     1      21.356   2.765  47.631  1.00  0.00    -0.203 F 
HETATM   10  C13 UNL     1      23.106   4.087  48.396  1.00  0.00     0.089 A 
HETATM   11  H5  UNL     1      21.965  -0.175  51.769  1.00  0.00     0.211 HD
ENDROOT
BRANCH   1  12
HETATM   12  C3  UNL     1      25.906   5.310  48.997  1.00  0.00     0.036 A 
HETATM   13  C2  UNL     1      27.159   4.694  48.892  1.00  0.00     0.131 A 
HETATM   14  N1  UNL     1      28.019   5.616  48.405  1.00  0.00    -0.284 N 
HETATM   15  C1  UNL     1      29.450   5.460  48.116  1.00  0.00     0.179 C 
HETATM   16  N5  UNL     1      27.369   6.755  48.207  1.00  0.00    -0.184 NA
HETATM   17  C14 UNL     1      26.070   6.627  48.553  1.00  0.00     0.158 A 
ENDBRANCH   1  12
BRANCH   7  18
HETATM   18  C7  UNL     1      24.161   1.255  52.988  1.00  0.00     0.189 C 
BRANCH  18  19
HETATM   19  C8  UNL     1      25.293   0.323  52.830  1.00  0.00    -0.038 A 
HETATM   20  C9  UNL     1      25.722  -0.854  53.287  1.00  0.00     0.009 A 
HETATM   21  C10 UNL     1      26.910  -0.768  52.451  1.00  0.00     0.001 A 
HETATM   22  C11 UNL     1      26.479   0.401  52.000  1.00  0.00     0.009 A 
ENDBRANCH  18  19
ENDBRANCH   7  18
TORSDOF 3
ENDMDL
MODEL 9
REMARK VINA RESULT:      -6.6      3.070      4.602
REMARK  3 active torsions:
REMARK  status: ('A' for Active; 'I' for Inactive)
REMARK    1  A    between atoms: C3_4  and  S1_5 
REMARK    2  A    between atoms: N4_11  and  C7_12 
REMARK    3  A    between atoms: C7_12  and  C8_13 
ROOT
HETATM    1  S1  UNL     1      23.676   1.175  52.955  1.00  0.00    -0.118 SA
HETATM    2  C4  UNL     1      22.267   0.470  53.385  1.00  0.00     0.049 A 
HETATM    3  C5  UNL     1      21.393   0.476  52.417  1.00  0.00     0.104 A 
HETATM    4  C6  UNL     1      21.423   0.977  51.056  1.00  0.00     0.147 A 
HETATM    5  N2  UNL     1      20.280   0.726  50.514  1.00  0.00    -0.154 NA
HETATM    6  N3  UNL     1      19.411   0.076  51.377  1.00  0.00    -0.216 N 
HETATM    7  N4  UNL     1      20.089  -0.102  52.607  1.00  0.00    -0.268 N 
HETATM    8  C12 UNL     1      22.577   1.643  50.459  1.00  0.00     0.155 A 
HETATM    9  F1  UNL     1      22.605   2.112  49.185  1.00  0.00    -0.203 F 
HETATM   10  C13 UNL     1      23.641   1.779  51.237  1.00  0.00     0.089 A 
HETATM   11  H5  UNL     1      18.452  -0.191  51.077  1.00  0.00     0.211 HD
ENDROOT
BRANCH   1  12
HETATM   12  C3  UNL     1      25.240   0.610  53.640  1.00  0.00     0.036 A 
HETATM   13  C2  UNL     1      26.449   1.315  53.581  1.00  0.00     0.131 A 
HETATM   14  N1  UNL     1      27.382   0.561  54.205  1.00  0.00    -0.284 N 
HETATM   15  C1  UNL     1      28.804   0.863  54.407  1.00  0.00     0.179 C 
HETATM   16  N5  UNL     1      26.819  -0.558  54.639  1.00  0.00    -0.184 NA
HETATM   17  C14 UNL     1      25.507  -0.584  54.321  1.00  0.00     0.158 A 
ENDBRANCH   1  12
BRANCH   7  18
HETATM   18  C7  UNL     1      19.449  -0.756  53.731  1.00  0.00     0.189 C 
BRANCH  18  19
HETATM   19  C8  UNL     1      18.210  -1.473  53.376  1.00  0.00    -0.038 A 
HETATM   20  C9  UNL     1      17.019  -1.246  52.820  1.00  0.00     0.009 A 
HETATM   21  C10 UNL     1      16.651  -2.644  52.993  1.00  0.00     0.001 A 
HETATM   22  C11 UNL     1      17.836  -2.863  53.545  1.00  0.00     0.009 A 
ENDBRANCH  18  19
ENDBRANCH   7  18
TORSDOF 3
ENDMDL
