MODEL 1
REMARK VINA RESULT:      -7.2      0.000      0.000
REMARK  6 active torsions:
REMARK  status: ('A' for Active; 'I' for Inactive)
REMARK    1  A    between atoms: N1_2  and  C2_3 
REMARK    2  A    between atoms: C2_3  and  C3_4 
REMARK    3  A    between atoms: C3_4  and  O1_5 
REMARK    4  A    between atoms: O1_5  and  C4_6 
REMARK    5  A    between atoms: C5_7  and  C6_8 
REMARK    6  A    between atoms: C9_13  and  C10_14 
ROOT
HETATM    1  C6  UNL     1      23.264  -0.390  53.857  1.00  0.00     0.013 A 
HETATM    2  C7  UNL     1      22.703  -1.364  54.641  1.00  0.00     0.132 A 
HETATM    3  N2  UNL     1      21.381  -1.156  54.896  1.00  0.00    -0.253 NA
HETATM    4  C8  UNL     1      20.749  -0.089  54.401  1.00  0.00     0.233 A 
HETATM    5  N3  UNL     1      21.335   0.866  53.620  1.00  0.00    -0.241 NA
HETATM    6  C9  UNL     1      22.670   0.721  53.322  1.00  0.00     0.079 A 
ENDROOT
BRANCH   1   7
HETATM    7  C5  UNL     1      24.669  -0.456  53.500  1.00  0.00     0.039 C 
HETATM    8  C4  UNL     1      25.709  -0.473  54.302  1.00  0.00     0.135 C 
BRANCH   8   9
HETATM    9  O1  UNL     1      27.032  -0.517  54.641  1.00  0.00    -0.361 OA
BRANCH   9  10
HETATM   10  C3  UNL     1      28.037  -0.518  53.646  1.00  0.00     0.204 C 
BRANCH  10  11
HETATM   11  C2  UNL     1      29.280   0.192  54.124  1.00  0.00     0.295 C 
BRANCH  11  12
HETATM   12  N1  UNL     1      28.959   1.497  54.646  1.00  0.00     0.081 N 
HETATM   13  C1  UNL     1      28.637   2.462  53.617  1.00  0.00     0.306 C 
HETATM   14  H4  UNL     1      29.787   1.855  55.192  1.00  0.00     0.315 HD
ENDBRANCH  11  12
ENDBRANCH  10  11
ENDBRANCH   9  10
ENDBRANCH   8   9
ENDBRANCH   1   7
BRANCH   6  15
HETATM   15  C10 UNL     1      23.252   1.763  52.497  1.00  0.00     0.010 C 
HETATM   16  C11 UNL     1      22.981   1.666  51.190  1.00  0.00     0.107 C 
HETATM   17  F1  UNL     1      22.210   0.662  50.662  1.00  0.00    -0.210 F 
HETATM   18  C12 UNL     1      23.513   2.671  50.229  1.00  0.00     0.121 C 
HETATM   19  C13 UNL     1      23.190   4.018  50.793  1.00  0.00     0.014 C 
HETATM   20 CL1  UNL     1      22.466   5.255  49.784  1.00  0.00    -0.089 Cl
HETATM   21  C14 UNL     1      23.486   4.183  52.077  1.00  0.00    -0.002 C 
HETATM   22  C15 UNL     1      24.099   2.961  52.726  1.00  0.00     0.072 C 
ENDBRANCH   6  15
TORSDOF 6
ENDMDL
MODEL 2
REMARK VINA RESULT:      -7.1      1.957      5.243
REMARK  6 active torsions:
REMARK  status: ('A' for Active; 'I' for Inactive)
REMARK    1  A    between atoms: N1_2  and  C2_3 
REMARK    2  A    between atoms: C2_3  and  C3_4 
REMARK    3  A    between atoms: C3_4  and  O1_5 
REMARK    4  A    between atoms: O1_5  and  C4_6 
REMARK    5  A    between atoms: C5_7  and  C6_8 
REMARK    6  A    between atoms: C9_13  and  C10_14 
ROOT
HETATM    1  C6  UNL     1      26.910   0.457  54.071  1.00  0.00     0.013 A 
HETATM    2  C7  UNL     1      27.996  -0.044  54.740  1.00  0.00     0.132 A 
HETATM    3  N2  UNL     1      29.020   0.847  54.850  1.00  0.00    -0.253 NA
HETATM    4  C8  UNL     1      28.916   2.075  54.335  1.00  0.00     0.233 A 
HETATM    5  N3  UNL     1      27.818   2.547  53.673  1.00  0.00    -0.241 NA
HETATM    6  C9  UNL     1      26.745   1.701  53.524  1.00  0.00     0.079 A 
ENDROOT
BRANCH   1   7
HETATM    7  C5  UNL     1      25.735  -0.369  53.859  1.00  0.00     0.039 C 
HETATM    8  C4  UNL     1      24.817  -0.711  54.734  1.00  0.00     0.135 C 
BRANCH   8   9
HETATM    9  O1  UNL     1      23.678  -1.316  55.186  1.00  0.00    -0.361 OA
BRANCH   9  10
HETATM   10  C3  UNL     1      22.406  -0.753  54.932  1.00  0.00     0.204 C 
BRANCH  10  11
HETATM   11  C2  UNL     1      21.452  -1.786  54.383  1.00  0.00     0.295 C 
BRANCH  11  12
HETATM   12  N1  UNL     1      20.151  -1.211  54.148  1.00  0.00     0.081 N 
HETATM   13  C1  UNL     1      20.167  -0.129  53.188  1.00  0.00     0.306 C 
HETATM   14  H4  UNL     1      19.777  -0.841  55.061  1.00  0.00     0.315 HD
ENDBRANCH  11  12
ENDBRANCH  10  11
ENDBRANCH   9  10
ENDBRANCH   8   9
ENDBRANCH   1   7
BRANCH   6  15
HETATM   15  C10 UNL     1      25.605   2.242  52.808  1.00  0.00     0.010 C 
HETATM   16  C11 UNL     1      25.693   2.178  51.474  1.00  0.00     0.107 C 
HETATM   17  F1  UNL     1      26.776   1.640  50.825  1.00  0.00    -0.210 F 
HETATM   18  C12 UNL     1      24.592   2.695  50.615  1.00  0.00     0.121 C 
HETATM   19  C13 UNL     1      23.323   2.106  51.144  1.00  0.00     0.014 C 
HETATM   20 CL1  UNL     1      22.164   1.366  50.058  1.00  0.00    -0.089 Cl
HETATM   21  C14 UNL     1      23.163   2.188  52.461  1.00  0.00    -0.002 C 
HETATM   22  C15 UNL     1      24.310   2.869  53.175  1.00  0.00     0.072 C 
ENDBRANCH   6  15
TORSDOF 6
ENDMDL
MODEL 3
REMARK VINA RESULT:      -7.1      3.921      5.682
REMARK  6 active torsions:
REMARK  status: ('A' for Active; 'I' for Inactive)
REMARK    1  A    between atoms: N1_2  and  C2_3 
REMARK    2  A    between atoms: C2_3  and  C3_4 
REMARK    3  A    between atoms: C3_4  and  O1_5 
REMARK    4  A    between atoms: O1_5  and  C4_6 
REMARK    5  A    between atoms: C5_7  and  C6_8 
REMARK    6  A    between atoms: C9_13  and  C10_14 
ROOT
HETATM    1  C6  UNL     1      24.632   1.375  52.256  1.00  0.00     0.013 A 
HETATM    2  C7  UNL     1      23.466   1.817  51.691  1.00  0.00     0.132 A 
HETATM    3  N2  UNL     1      22.396   1.019  51.964  1.00  0.00    -0.253 NA
HETATM    4  C8  UNL     1      22.536  -0.075  52.717  1.00  0.00     0.233 A 
HETATM    5  N3  UNL     1      23.713  -0.491  53.270  1.00  0.00    -0.241 NA
HETATM    6  C9  UNL     1      24.836   0.268  53.035  1.00  0.00     0.079 A 
ENDROOT
BRANCH   1   7
HETATM    7  C5  UNL     1      25.869   2.107  52.053  1.00  0.00     0.039 C 
HETATM    8  C4  UNL     1      26.275   2.726  50.968  1.00  0.00     0.135 C 
BRANCH   8   9
HETATM    9  O1  UNL     1      27.117   3.467  50.186  1.00  0.00    -0.361 OA
BRANCH   9  10
HETATM   10  C3  UNL     1      26.608   4.359  49.214  1.00  0.00     0.204 C 
BRANCH  10  11
HETATM   11  C2  UNL     1      27.713   5.175  48.590  1.00  0.00     0.295 C 
BRANCH  11  12
HETATM   12  N1  UNL     1      27.648   6.548  49.024  1.00  0.00     0.081 N 
HETATM   13  C1  UNL     1      26.313   6.970  49.391  1.00  0.00     0.306 C 
HETATM   14  H4  UNL     1      27.989   7.166  48.241  1.00  0.00     0.315 HD
ENDBRANCH  11  12
ENDBRANCH  10  11
ENDBRANCH   9  10
ENDBRANCH   8   9
ENDBRANCH   1   7
BRANCH   6  15
HETATM   15  C10 UNL     1      26.065  -0.216  53.634  1.00  0.00     0.010 C 
HETATM   16  C11 UNL     1      26.797  -1.019  52.853  1.00  0.00     0.107 C 
HETATM   17  F1  UNL     1      26.421  -1.362  51.579  1.00  0.00    -0.210 F 
HETATM   18  C12 UNL     1      28.085  -1.586  53.341  1.00  0.00     0.121 C 
HETATM   19  C13 UNL     1      28.871  -0.443  53.902  1.00  0.00     0.014 C 
HETATM   20 CL1  UNL     1      30.554  -0.221  53.465  1.00  0.00    -0.089 Cl
HETATM   21  C14 UNL     1      28.203   0.358  54.725  1.00  0.00    -0.002 C 
HETATM   22  C15 UNL     1      26.760  -0.047  54.936  1.00  0.00     0.072 C 
ENDBRANCH   6  15
TORSDOF 6
ENDMDL
MODEL 4
REMARK VINA RESULT:      -6.8      3.445      6.043
REMARK  6 active torsions:
REMARK  status: ('A' for Active; 'I' for Inactive)
REMARK    1  A    between atoms: N1_2  and  C2_3 
REMARK    2  A    between atoms: C2_3  and  C3_4 
REMARK    3  A    between atoms: C3_4  and  O1_5 
REMARK    4  A    between atoms: O1_5  and  C4_6 
REMARK    5  A    between atoms: C5_7  and  C6_8 
REMARK    6  A    between atoms: C9_13  and  C10_14 
ROOT
HETATM    1  C6  UNL     1      27.014   1.354  53.776  1.00  0.00     0.013 A 
HETATM    2  C7  UNL     1      28.282   1.872  53.780  1.00  0.00     0.132 A 
HETATM    3  N2  UNL     1      29.254   0.920  53.846  1.00  0.00    -0.253 NA
HETATM    4  C8  UNL     1      28.938  -0.376  53.899  1.00  0.00     0.233 A 
HETATM    5  N3  UNL     1      27.662  -0.864  53.892  1.00  0.00    -0.241 NA
HETATM    6  C9  UNL     1      26.629   0.042  53.828  1.00  0.00     0.079 A 
ENDROOT
BRANCH   1   7
HETATM    7  C5  UNL     1      25.862   2.236  53.719  1.00  0.00     0.039 C 
HETATM    8  C4  UNL     1      25.236   2.682  52.655  1.00  0.00     0.135 C 
BRANCH   8   9
HETATM    9  O1  UNL     1      24.292   3.380  51.954  1.00  0.00    -0.361 OA
BRANCH   9  10
HETATM   10  C3  UNL     1      23.649   4.504  52.523  1.00  0.00     0.204 C 
BRANCH  10  11
HETATM   11  C2  UNL     1      23.475   5.606  51.507  1.00  0.00     0.295 C 
BRANCH  11  12
HETATM   12  N1  UNL     1      24.359   6.709  51.788  1.00  0.00     0.081 N 
HETATM   13  C1  UNL     1      25.152   7.113  50.647  1.00  0.00     0.306 C 
HETATM   14  H4  UNL     1      25.014   6.426  52.564  1.00  0.00     0.315 HD
ENDBRANCH  11  12
ENDBRANCH  10  11
ENDBRANCH   9  10
ENDBRANCH   8   9
ENDBRANCH   1   7
BRANCH   6  15
HETATM   15  C10 UNL     1      25.292  -0.521  53.831  1.00  0.00     0.010 C 
HETATM   16  C11 UNL     1      24.803  -0.811  55.043  1.00  0.00     0.107 C 
HETATM   17  F1  UNL     1      25.508  -0.593  56.200  1.00  0.00    -0.210 F 
HETATM   18  C12 UNL     1      23.440  -1.391  55.193  1.00  0.00     0.121 C 
HETATM   19  C13 UNL     1      22.518  -0.537  54.382  1.00  0.00     0.014 C 
HETATM   20 CL1  UNL     1      21.008   0.038  55.062  1.00  0.00    -0.089 Cl
HETATM   21  C14 UNL     1      22.934  -0.260  53.151  1.00  0.00    -0.002 C 
HETATM   22  C15 UNL     1      24.275  -0.871  52.806  1.00  0.00     0.072 C 
ENDBRANCH   6  15
TORSDOF 6
ENDMDL
MODEL 5
REMARK VINA RESULT:      -6.8      2.138      5.371
REMARK  6 active torsions:
REMARK  status: ('A' for Active; 'I' for Inactive)
REMARK    1  A    between atoms: N1_2  and  C2_3 
REMARK    2  A    between atoms: C2_3  and  C3_4 
REMARK    3  A    between atoms: C3_4  and  O1_5 
REMARK    4  A    between atoms: O1_5  and  C4_6 
REMARK    5  A    between atoms: C5_7  and  C6_8 
REMARK    6  A    between atoms: C9_13  and  C10_14 
ROOT
HETATM    1  C6  UNL     1      27.139   0.554  53.164  1.00  0.00     0.013 A 
HETATM    2  C7  UNL     1      27.911  -0.005  54.147  1.00  0.00     0.132 A 
HETATM    3  N2  UNL     1      28.944   0.791  54.540  1.00  0.00    -0.253 NA
HETATM    4  C8  UNL     1      29.133   1.990  53.984  1.00  0.00     0.233 A 
HETATM    5  N3  UNL     1      28.343   2.524  53.005  1.00  0.00    -0.241 NA
HETATM    6  C9  UNL     1      27.281   1.774  52.558  1.00  0.00     0.079 A 
ENDROOT
BRANCH   1   7
HETATM    7  C5  UNL     1      26.001  -0.168  52.624  1.00  0.00     0.039 C 
HETATM    8  C4  UNL     1      24.878  -0.479  53.230  1.00  0.00     0.135 C 
BRANCH   8   9
HETATM    9  O1  UNL     1      23.627  -1.015  53.357  1.00  0.00    -0.361 OA
BRANCH   9  10
HETATM   10  C3  UNL     1      22.494  -0.185  53.524  1.00  0.00     0.204 C 
BRANCH  10  11
HETATM   11  C2  UNL     1      21.720  -0.560  54.764  1.00  0.00     0.295 C 
BRANCH  11  12
HETATM   12  N1  UNL     1      20.341  -0.159  54.650  1.00  0.00     0.081 N 
HETATM   13  C1  UNL     1      19.844  -0.190  53.291  1.00  0.00     0.306 C 
HETATM   14  H4  UNL     1      20.244   0.825  55.017  1.00  0.00     0.315 HD
ENDBRANCH  11  12
ENDBRANCH  10  11
ENDBRANCH   9  10
ENDBRANCH   8   9
ENDBRANCH   1   7
BRANCH   6  15
HETATM   15  C10 UNL     1      26.475   2.376  51.512  1.00  0.00     0.010 C 
HETATM   16  C11 UNL     1      25.347   2.960  51.933  1.00  0.00     0.107 C 
HETATM   17  F1  UNL     1      24.974   2.992  53.253  1.00  0.00    -0.210 F 
HETATM   18  C12 UNL     1      24.427   3.619  50.965  1.00  0.00     0.121 C 
HETATM   19  C13 UNL     1      25.269   4.520  50.119  1.00  0.00     0.014 C 
HETATM   20 CL1  UNL     1      24.781   6.178  49.825  1.00  0.00    -0.089 Cl
HETATM   21  C14 UNL     1      26.379   3.973  49.634  1.00  0.00    -0.002 C 
HETATM   22  C15 UNL     1      26.575   2.528  50.038  1.00  0.00     0.072 C 
ENDBRANCH   6  15
TORSDOF 6
ENDMDL
MODEL 6
REMARK VINA RESULT:      -6.7      3.355      5.279
REMARK  6 active torsions:
REMARK  status: ('A' for Active; 'I' for Inactive)
REMARK    1  A    between atoms: N1_2  and  C2_3 
REMARK    2  A    between atoms: C2_3  and  C3_4 
REMARK    3  A    between atoms: C3_4  and  O1_5 
REMARK    4  A    between atoms: O1_5  and  C4_6 
REMARK    5  A    between atoms: C5_7  and  C6_8 
REMARK    6  A    between atoms: C9_13  and  C10_14 
ROOT
HETATM    1  C6  UNL     1      22.868   0.193  53.168  1.00  0.00     0.013 A 
HETATM    2  C7  UNL     1      21.620   0.012  53.701  1.00  0.00     0.132 A 
HETATM    3  N2  UNL     1      21.621  -0.740  54.837  1.00  0.00    -0.253 NA
HETATM    4  C8  UNL     1      22.762  -1.225  55.333  1.00  0.00     0.233 A 
HETATM    5  N3  UNL     1      23.995  -1.027  54.780  1.00  0.00    -0.241 NA
HETATM    6  C9  UNL     1      24.069  -0.277  53.630  1.00  0.00     0.079 A 
ENDROOT
BRANCH   1   7
HETATM    7  C5  UNL     1      23.041   0.963  51.950  1.00  0.00     0.039 C 
HETATM    8  C4  UNL     1      22.521   2.131  51.650  1.00  0.00     0.135 C 
BRANCH   8   9
HETATM    9  O1  UNL     1      22.275   3.236  50.883  1.00  0.00    -0.361 OA
BRANCH   9  10
HETATM   10  C3  UNL     1      23.170   4.330  50.879  1.00  0.00     0.204 C 
BRANCH  10  11
HETATM   11  C2  UNL     1      23.671   4.631  52.270  1.00  0.00     0.295 C 
BRANCH  11  12
HETATM   12  N1  UNL     1      23.986   6.030  52.413  1.00  0.00     0.081 N 
HETATM   13  C1  UNL     1      24.178   6.706  51.148  1.00  0.00     0.306 C 
HETATM   14  H4  UNL     1      24.873   6.120  52.976  1.00  0.00     0.315 HD
ENDBRANCH  11  12
ENDBRANCH  10  11
ENDBRANCH   9  10
ENDBRANCH   8   9
ENDBRANCH   1   7
BRANCH   6  15
HETATM   15  C10 UNL     1      25.397  -0.100  53.073  1.00  0.00     0.010 C 
HETATM   16  C11 UNL     1      25.973   1.076  53.349  1.00  0.00     0.107 C 
HETATM   17  F1  UNL     1      25.362   2.045  54.104  1.00  0.00    -0.210 F 
HETATM   18  C12 UNL     1      27.337   1.390  52.842  1.00  0.00     0.121 C 
HETATM   19  C13 UNL     1      28.203   0.220  53.188  1.00  0.00     0.014 C 
HETATM   20 CL1  UNL     1      29.767   0.462  53.942  1.00  0.00    -0.089 Cl
HETATM   21  C14 UNL     1      27.697  -0.971  52.888  1.00  0.00    -0.002 C 
HETATM   22  C15 UNL     1      26.328  -0.910  52.247  1.00  0.00     0.072 C 
ENDBRANCH   6  15
TORSDOF 6
ENDMDL
MODEL 7
REMARK VINA RESULT:      -6.6      1.882      2.549
REMARK  6 active torsions:
REMARK  status: ('A' for Active; 'I' for Inactive)
REMARK    1  A    between atoms: N1_2  and  C2_3 
REMARK    2  A    between atoms: C2_3  and  C3_4 
REMARK    3  A    between atoms: C3_4  and  O1_5 
REMARK    4  A    between atoms: O1_5  and  C4_6 
REMARK    5  A    between atoms: C5_7  and  C6_8 
REMARK    6  A    between atoms: C9_13  and  C10_14 
ROOT
HETATM    1  C6  UNL     1      23.976   0.952  52.504  1.00  0.00     0.013 A 
HETATM    2  C7  UNL     1      23.778  -0.153  53.289  1.00  0.00     0.132 A 
HETATM    3  N2  UNL     1      22.522  -0.672  53.184  1.00  0.00    -0.253 NA
HETATM    4  C8  UNL     1      21.618  -0.112  52.377  1.00  0.00     0.233 A 
HETATM    5  N3  UNL     1      21.845   0.990  51.603  1.00  0.00    -0.241 NA
HETATM    6  C9  UNL     1      23.092   1.567  51.660  1.00  0.00     0.079 A 
ENDROOT
BRANCH   1   7
HETATM    7  C5  UNL     1      25.258   1.632  52.507  1.00  0.00     0.039 C 
HETATM    8  C4  UNL     1      26.039   1.884  53.532  1.00  0.00     0.135 C 
BRANCH   8   9
HETATM    9  O1  UNL     1      27.142   2.364  54.182  1.00  0.00    -0.361 OA
BRANCH   9  10
HETATM   10  C3  UNL     1      28.428   2.263  53.602  1.00  0.00     0.204 C 
BRANCH  10  11
HETATM   11  C2  UNL     1      29.308   1.321  54.387  1.00  0.00     0.295 C 
BRANCH  11  12
HETATM   12  N1  UNL     1      30.018   0.427  53.507  1.00  0.00     0.081 N 
HETATM   13  C1  UNL     1      29.507  -0.926  53.531  1.00  0.00     0.306 C 
HETATM   14  H4  UNL     1      31.032   0.405  53.795  1.00  0.00     0.315 HD
ENDBRANCH  11  12
ENDBRANCH  10  11
ENDBRANCH   9  10
ENDBRANCH   8   9
ENDBRANCH   1   7
BRANCH   6  15
HETATM   15  C10 UNL     1      23.286   2.741  50.828  1.00  0.00     0.010 C 
HETATM   16  C11 UNL     1      22.949   3.902  51.402  1.00  0.00     0.107 C 
HETATM   17  F1  UNL     1      22.458   3.985  52.680  1.00  0.00    -0.210 F 
HETATM   18  C12 UNL     1      23.100   5.185  50.662  1.00  0.00     0.121 C 
HETATM   19  C13 UNL     1      24.484   5.195  50.097  1.00  0.00     0.014 C 
HETATM   20 CL1  UNL     1      25.511   6.603  50.280  1.00  0.00    -0.089 Cl
HETATM   21  C14 UNL     1      24.852   4.081  49.472  1.00  0.00    -0.002 C 
HETATM   22  C15 UNL     1      23.784   3.009  49.455  1.00  0.00     0.072 C 
ENDBRANCH   6  15
TORSDOF 6
ENDMDL
MODEL 8
REMARK VINA RESULT:      -6.5      2.861      4.510
REMARK  6 active torsions:
REMARK  status: ('A' for Active; 'I' for Inactive)
REMARK    1  A    between atoms: N1_2  and  C2_3 
REMARK    2  A    between atoms: C2_3  and  C3_4 
REMARK    3  A    between atoms: C3_4  and  O1_5 
REMARK    4  A    between atoms: O1_5  and  C4_6 
REMARK    5  A    between atoms: C5_7  and  C6_8 
REMARK    6  A    between atoms: C9_13  and  C10_14 
ROOT
HETATM    1  C6  UNL     1      24.272   2.378  51.895  1.00  0.00     0.013 A 
HETATM    2  C7  UNL     1      24.819   3.172  50.923  1.00  0.00     0.132 A 
HETATM    3  N2  UNL     1      24.147   3.118  49.740  1.00  0.00    -0.253 NA
HETATM    4  C8  UNL     1      23.065   2.347  49.604  1.00  0.00     0.233 A 
HETATM    5  N3  UNL     1      22.540   1.565  50.594  1.00  0.00    -0.241 NA
HETATM    6  C9  UNL     1      23.170   1.570  51.817  1.00  0.00     0.079 A 
ENDROOT
BRANCH   1   7
HETATM    7  C5  UNL     1      24.875   2.312  53.214  1.00  0.00     0.039 C 
HETATM    8  C4  UNL     1      26.093   1.936  53.530  1.00  0.00     0.135 C 
BRANCH   8   9
HETATM    9  O1  UNL     1      27.150   1.668  54.354  1.00  0.00    -0.361 OA
BRANCH   9  10
HETATM   10  C3  UNL     1      27.442   0.344  54.755  1.00  0.00     0.204 C 
BRANCH  10  11
HETATM   11  C2  UNL     1      26.925  -0.657  53.751  1.00  0.00     0.295 C 
BRANCH  11  12
HETATM   12  N1  UNL     1      28.005  -1.431  53.193  1.00  0.00     0.081 N 
HETATM   13  C1  UNL     1      29.313  -0.968  53.603  1.00  0.00     0.306 C 
HETATM   14  H4  UNL     1      27.948  -1.380  52.141  1.00  0.00     0.315 HD
ENDBRANCH  11  12
ENDBRANCH  10  11
ENDBRANCH   9  10
ENDBRANCH   8   9
ENDBRANCH   1   7
BRANCH   6  15
HETATM   15  C10 UNL     1      22.583   0.719  52.835  1.00  0.00     0.010 C 
HETATM   16  C11 UNL     1      21.404   1.138  53.311  1.00  0.00     0.107 C 
HETATM   17  F1  UNL     1      20.789   2.283  52.872  1.00  0.00    -0.210 F 
HETATM   18  C12 UNL     1      20.689   0.358  54.358  1.00  0.00     0.121 C 
HETATM   19  C13 UNL     1      20.658  -1.062  53.890  1.00  0.00     0.014 C 
HETATM   20 CL1  UNL     1      19.166  -1.981  53.932  1.00  0.00    -0.089 Cl
HETATM   21  C14 UNL     1      21.817  -1.543  53.453  1.00  0.00    -0.002 C 
HETATM   22  C15 UNL     1      22.955  -0.547  53.515  1.00  0.00     0.072 C 
ENDBRANCH   6  15
TORSDOF 6
ENDMDL
MODEL 9
REMARK VINA RESULT:      -6.4      1.784      2.296
REMARK  6 active torsions:
REMARK  status: ('A' for Active; 'I' for Inactive)
REMARK    1  A    between atoms: N1_2  and  C2_3 
REMARK    2  A    between atoms: C2_3  and  C3_4 
REMARK    3  A    between atoms: C3_4  and  O1_5 
REMARK    4  A    between atoms: O1_5  and  C4_6 
REMARK    5  A    between atoms: C5_7  and  C6_8 
REMARK    6  A    between atoms: C9_13  and  C10_14 
ROOT
HETATM    1  C6  UNL     1      22.640  -0.211  53.485  1.00  0.00     0.013 A 
HETATM    2  C7  UNL     1      22.805  -1.009  54.586  1.00  0.00     0.132 A 
HETATM    3  N2  UNL     1      21.666  -1.658  54.957  1.00  0.00    -0.253 NA
HETATM    4  C8  UNL     1      20.531  -1.492  54.274  1.00  0.00     0.233 A 
HETATM    5  N3  UNL     1      20.397  -0.688  53.177  1.00  0.00    -0.241 NA
HETATM    6  C9  UNL     1      21.507  -0.001  52.746  1.00  0.00     0.079 A 
ENDROOT
BRANCH   1   7
HETATM    7  C5  UNL     1      23.755   0.559  52.965  1.00  0.00     0.039 C 
HETATM    8  C4  UNL     1      25.039   0.312  53.089  1.00  0.00     0.135 C 
BRANCH   8   9
HETATM    9  O1  UNL     1      26.380   0.518  52.920  1.00  0.00    -0.361 OA
BRANCH   9  10
HETATM   10  C3  UNL     1      27.107   1.338  53.813  1.00  0.00     0.204 C 
BRANCH  10  11
HETATM   11  C2  UNL     1      28.472   0.762  54.095  1.00  0.00     0.295 C 
BRANCH  11  12
HETATM   12  N1  UNL     1      28.407  -0.671  54.233  1.00  0.00     0.081 N 
HETATM   13  C1  UNL     1      29.432  -1.366  53.483  1.00  0.00     0.306 C 
HETATM   14  H4  UNL     1      27.465  -1.001  53.893  1.00  0.00     0.315 HD
ENDBRANCH  11  12
ENDBRANCH  10  11
ENDBRANCH   9  10
ENDBRANCH   8   9
ENDBRANCH   1   7
BRANCH   6  15
HETATM   15  C10 UNL     1      21.317   0.846  51.583  1.00  0.00     0.010 C 
HETATM   16  C11 UNL     1      20.831   2.065  51.846  1.00  0.00     0.107 C 
HETATM   17  F1  UNL     1      20.534   2.490  53.116  1.00  0.00    -0.210 F 
HETATM   18  C12 UNL     1      20.589   3.038  50.746  1.00  0.00     0.121 C 
HETATM   19  C13 UNL     1      21.836   3.073  49.921  1.00  0.00     0.014 C 
HETATM   20 CL1  UNL     1      22.554   4.604  49.457  1.00  0.00    -0.089 Cl
HETATM   21  C14 UNL     1      22.334   1.886  49.591  1.00  0.00    -0.002 C 
HETATM   22  C15 UNL     1      21.530   0.718  50.119  1.00  0.00     0.072 C 
ENDBRANCH   6  15
TORSDOF 6
ENDMDL
