MODEL 1
REMARK VINA RESULT:      -9.7      0.000      0.000
REMARK  4 active torsions:
REMARK  status: ('A' for Active; 'I' for Inactive)
REMARK    1  A    between atoms: C7_11  and  N3_12 
REMARK    2  A    between atoms: N3_12  and  C8_13 
REMARK    3  A    between atoms: N4_23  and  C17_24 
REMARK    4  A    between atoms: C17_24  and  C18_25 
ROOT
HETATM    1  O1  UNL     1      18.946   1.690  49.370  1.00  0.00    -0.271 OA
HETATM    2  C1  UNL     1      19.365   1.029  50.370  1.00  0.00     0.248 C 
HETATM    3  C2  UNL     1      18.273   0.394  51.192  1.00  0.00     0.279 C 
HETATM    4  O2  UNL     1      18.793  -0.015  52.446  1.00  0.00    -0.340 OA
HETATM    5  C3  UNL     1      20.162  -0.088  52.688  1.00  0.00     0.098 A 
HETATM    6  C4  UNL     1      20.560  -0.661  53.876  1.00  0.00     0.071 A 
HETATM    7  C5  UNL     1      21.906  -0.749  54.146  1.00  0.00     0.075 A 
HETATM    8  N1  UNL     1      22.221  -1.322  55.326  1.00  0.00    -0.241 NA
HETATM    9  C6  UNL     1      23.504  -1.461  55.692  1.00  0.00     0.236 A 
HETATM   10  N2  UNL     1      24.442  -1.019  54.864  1.00  0.00    -0.224 NA
HETATM   11  C7  UNL     1      24.241  -0.449  53.696  1.00  0.00     0.142 A 
HETATM   12  C14 UNL     1      22.924  -0.304  53.316  1.00  0.00     0.041 A 
HETATM   13  C15 UNL     1      22.466   0.259  52.145  1.00  0.00     0.050 A 
HETATM   14  C16 UNL     1      21.138   0.370  51.830  1.00  0.00     0.071 A 
HETATM   15  N4  UNL     1      20.792   0.972  50.587  1.00  0.00    -0.311 N 
ENDROOT
BRANCH  11  16
HETATM   16  N3  UNL     1      25.242   0.020  52.817  1.00  0.00    -0.340 N 
HETATM   17  H5  UNL     1      25.107   0.075  51.793  1.00  0.00     0.167 HD
BRANCH  16  18
HETATM   18  C8  UNL     1      26.540   0.473  53.149  1.00  0.00     0.035 A 
HETATM   19  C9  UNL     1      26.851   1.796  53.362  1.00  0.00     0.029 A 
HETATM   20  C10 UNL     1      28.094   2.263  53.677  1.00  0.00     0.004 A 
HETATM   21  C11 UNL     1      29.151   1.393  53.805  1.00  0.00     0.024 A 
HETATM   22  C12 UNL     1      28.901   0.057  53.605  1.00  0.00     0.036 A 
HETATM   23 CL1  UNL     1      30.197  -1.091  53.753  1.00  0.00    -0.084 Cl
HETATM   24  C13 UNL     1      27.643  -0.343  53.293  1.00  0.00     0.053 A 
ENDBRANCH  16  18
ENDBRANCH  11  16
BRANCH  15  25
HETATM   25  C17 UNL     1      21.666   1.491  49.597  1.00  0.00     0.167 C 
BRANCH  25  26
HETATM   26  C18 UNL     1      22.191   2.880  49.837  1.00  0.00     0.240 C 
HETATM   27  C19 UNL     1      23.292   3.232  48.856  1.00  0.00     0.063 C 
HETATM   28  C20 UNL     1      24.266   4.227  49.451  1.00  0.00     0.169 C 
HETATM   29  O3  UNL     1      23.570   5.426  49.601  1.00  0.00    -0.389 OA
HETATM   30  C21 UNL     1      22.907   5.392  50.807  1.00  0.00     0.197 C 
HETATM   31  C22 UNL     1      21.464   5.002  50.721  1.00  0.00     0.296 C 
HETATM   32  N5  UNL     1      21.216   3.911  49.808  1.00  0.00     0.091 N 
HETATM   33  H22 UNL     1      21.183   4.315  48.846  1.00  0.00     0.316 HD
ENDBRANCH  25  26
ENDBRANCH  15  25
TORSDOF 4
ENDMDL
MODEL 2
REMARK VINA RESULT:      -9.4      2.977      5.321
REMARK  4 active torsions:
REMARK  status: ('A' for Active; 'I' for Inactive)
REMARK    1  A    between atoms: C7_11  and  N3_12 
REMARK    2  A    between atoms: N3_12  and  C8_13 
REMARK    3  A    between atoms: N4_23  and  C17_24 
REMARK    4  A    between atoms: C17_24  and  C18_25 
ROOT
HETATM    1  O1  UNL     1      20.838  -1.510  53.964  1.00  0.00    -0.271 OA
HETATM    2  C1  UNL     1      22.072  -1.245  54.106  1.00  0.00     0.248 C 
HETATM    3  C2  UNL     1      22.690  -1.830  55.349  1.00  0.00     0.279 C 
HETATM    4  O2  UNL     1      23.941  -1.210  55.600  1.00  0.00    -0.340 OA
HETATM    5  C3  UNL     1      24.584  -0.434  54.641  1.00  0.00     0.098 A 
HETATM    6  C4  UNL     1      25.869  -0.024  54.922  1.00  0.00     0.071 A 
HETATM    7  C5  UNL     1      26.534   0.745  53.995  1.00  0.00     0.075 A 
HETATM    8  N1  UNL     1      27.786   1.107  54.339  1.00  0.00    -0.241 NA
HETATM    9  C6  UNL     1      28.527   1.857  53.509  1.00  0.00     0.236 A 
HETATM   10  N2  UNL     1      27.992   2.226  52.352  1.00  0.00    -0.224 NA
HETATM   11  C7  UNL     1      26.785   1.926  51.925  1.00  0.00     0.142 A 
HETATM   12  C14 UNL     1      26.019   1.155  52.774  1.00  0.00     0.041 A 
HETATM   13  C15 UNL     1      24.734   0.716  52.548  1.00  0.00     0.050 A 
HETATM   14  C16 UNL     1      24.031  -0.050  53.438  1.00  0.00     0.071 A 
HETATM   15  N4  UNL     1      22.707  -0.440  53.088  1.00  0.00    -0.311 N 
ENDROOT
BRANCH  11  16
HETATM   16  N3  UNL     1      26.218   2.319  50.693  1.00  0.00    -0.340 N 
HETATM   17  H5  UNL     1      25.866   1.641  49.995  1.00  0.00     0.167 HD
BRANCH  16  18
HETATM   18  C8  UNL     1      26.037   3.636  50.207  1.00  0.00     0.035 A 
HETATM   19  C9  UNL     1      26.851   4.214  49.261  1.00  0.00     0.029 A 
HETATM   20  C10 UNL     1      26.704   5.482  48.778  1.00  0.00     0.004 A 
HETATM   21  C11 UNL     1      25.685   6.286  49.234  1.00  0.00     0.024 A 
HETATM   22  C12 UNL     1      24.839   5.761  50.181  1.00  0.00     0.036 A 
HETATM   23 CL1  UNL     1      23.533   6.729  50.795  1.00  0.00    -0.084 Cl
HETATM   24  C13 UNL     1      25.039   4.494  50.620  1.00  0.00     0.053 A 
ENDBRANCH  16  18
ENDBRANCH  11  16
BRANCH  15  25
HETATM   25  C17 UNL     1      21.994  -0.133  51.900  1.00  0.00     0.167 C 
BRANCH  25  26
HETATM   26  C18 UNL     1      21.260   1.180  51.887  1.00  0.00     0.240 C 
HETATM   27  C19 UNL     1      19.787   0.993  52.188  1.00  0.00     0.063 C 
HETATM   28  C20 UNL     1      18.946   2.067  51.530  1.00  0.00     0.169 C 
HETATM   29  O3  UNL     1      19.258   3.266  52.171  1.00  0.00    -0.389 OA
HETATM   30  C21 UNL     1      20.373   3.802  51.565  1.00  0.00     0.197 C 
HETATM   31  C22 UNL     1      21.664   3.525  52.268  1.00  0.00     0.296 C 
HETATM   32  N5  UNL     1      21.775   2.172  52.760  1.00  0.00     0.091 N 
HETATM   33  H22 UNL     1      21.253   2.129  53.663  1.00  0.00     0.316 HD
ENDBRANCH  25  26
ENDBRANCH  15  25
TORSDOF 4
ENDMDL
MODEL 3
REMARK VINA RESULT:      -9.3      3.702      6.933
REMARK  4 active torsions:
REMARK  status: ('A' for Active; 'I' for Inactive)
REMARK    1  A    between atoms: C7_11  and  N3_12 
REMARK    2  A    between atoms: N3_12  and  C8_13 
REMARK    3  A    between atoms: N4_23  and  C17_24 
REMARK    4  A    between atoms: C17_24  and  C18_25 
ROOT
HETATM    1  O1  UNL     1      24.967  -1.337  55.779  1.00  0.00    -0.271 OA
HETATM    2  C1  UNL     1      24.245  -0.784  54.893  1.00  0.00     0.248 C 
HETATM    3  C2  UNL     1      22.802  -1.217  54.913  1.00  0.00     0.279 C 
HETATM    4  O2  UNL     1      22.168  -0.829  53.705  1.00  0.00    -0.340 OA
HETATM    5  C3  UNL     1      22.747   0.085  52.829  1.00  0.00     0.098 A 
HETATM    6  C4  UNL     1      21.974   0.523  51.777  1.00  0.00     0.071 A 
HETATM    7  C5  UNL     1      22.516   1.427  50.893  1.00  0.00     0.075 A 
HETATM    8  N1  UNL     1      21.701   1.812  49.890  1.00  0.00    -0.241 NA
HETATM    9  C6  UNL     1      22.125   2.691  48.970  1.00  0.00     0.236 A 
HETATM   10  N2  UNL     1      23.361   3.164  49.079  1.00  0.00    -0.224 NA
HETATM   11  C7  UNL     1      24.230   2.853  50.015  1.00  0.00     0.142 A 
HETATM   12  C14 UNL     1      23.799   1.950  50.963  1.00  0.00     0.041 A 
HETATM   13  C15 UNL     1      24.524   1.476  52.034  1.00  0.00     0.050 A 
HETATM   14  C16 UNL     1      24.030   0.577  52.940  1.00  0.00     0.071 A 
HETATM   15  N4  UNL     1      24.880   0.163  54.005  1.00  0.00    -0.311 N 
ENDROOT
BRANCH  11  16
HETATM   16  N3  UNL     1      25.545   3.358  50.129  1.00  0.00    -0.340 N 
HETATM   17  H5  UNL     1      26.311   2.830  50.580  1.00  0.00     0.167 HD
BRANCH  16  18
HETATM   18  C8  UNL     1      26.032   4.607  49.677  1.00  0.00     0.035 A 
HETATM   19  C9  UNL     1      27.119   4.741  48.844  1.00  0.00     0.029 A 
HETATM   20  C10 UNL     1      27.615   5.932  48.396  1.00  0.00     0.004 A 
HETATM   21  C11 UNL     1      27.025   7.115  48.774  1.00  0.00     0.024 A 
HETATM   22  C12 UNL     1      25.934   7.044  49.605  1.00  0.00     0.036 A 
HETATM   23 CL1  UNL     1      25.147   8.507  50.115  1.00  0.00    -0.084 Cl
HETATM   24  C13 UNL     1      25.491   5.830  50.015  1.00  0.00     0.053 A 
ENDBRANCH  16  18
ENDBRANCH  11  16
BRANCH  15  25
HETATM   25  C17 UNL     1      26.214   0.569  54.262  1.00  0.00     0.167 C 
BRANCH  25  26
HETATM   26  C18 UNL     1      27.295  -0.376  53.814  1.00  0.00     0.240 C 
HETATM   27  C19 UNL     1      26.818  -1.268  52.686  1.00  0.00     0.063 C 
HETATM   28  C20 UNL     1      27.539  -2.599  52.690  1.00  0.00     0.169 C 
HETATM   29  O3  UNL     1      28.867  -2.335  52.353  1.00  0.00    -0.389 OA
HETATM   30  C21 UNL     1      29.543  -1.993  53.503  1.00  0.00     0.197 C 
HETATM   31  C22 UNL     1      29.700  -0.522  53.726  1.00  0.00     0.296 C 
HETATM   32  N5  UNL     1      28.512   0.239  53.417  1.00  0.00     0.091 N 
HETATM   33  H22 UNL     1      28.496   0.378  52.382  1.00  0.00     0.316 HD
ENDBRANCH  25  26
ENDBRANCH  15  25
TORSDOF 4
ENDMDL
MODEL 4
REMARK VINA RESULT:      -9.1      3.199      6.309
REMARK  4 active torsions:
REMARK  status: ('A' for Active; 'I' for Inactive)
REMARK    1  A    between atoms: C7_11  and  N3_12 
REMARK    2  A    between atoms: N3_12  and  C8_13 
REMARK    3  A    between atoms: N4_23  and  C17_24 
REMARK    4  A    between atoms: C17_24  and  C18_25 
ROOT
HETATM    1  O1  UNL     1      25.122  -1.927  55.045  1.00  0.00    -0.271 OA
HETATM    2  C1  UNL     1      24.211  -1.119  54.683  1.00  0.00     0.248 C 
HETATM    3  C2  UNL     1      23.058  -1.016  55.648  1.00  0.00     0.279 C 
HETATM    4  O2  UNL     1      21.959  -0.382  55.015  1.00  0.00    -0.340 OA
HETATM    5  C3  UNL     1      22.096   0.303  53.811  1.00  0.00     0.098 A 
HETATM    6  C4  UNL     1      21.010   1.028  53.373  1.00  0.00     0.071 A 
HETATM    7  C5  UNL     1      21.112   1.716  52.186  1.00  0.00     0.075 A 
HETATM    8  N1  UNL     1      20.010   2.404  51.822  1.00  0.00    -0.241 NA
HETATM    9  C6  UNL     1      19.999   3.113  50.684  1.00  0.00     0.236 A 
HETATM   10  N2  UNL     1      21.095   3.114  49.936  1.00  0.00    -0.224 NA
HETATM   11  C7  UNL     1      22.216   2.480  50.201  1.00  0.00     0.142 A 
HETATM   12  C14 UNL     1      22.233   1.750  51.371  1.00  0.00     0.041 A 
HETATM   13  C15 UNL     1      23.286   1.008  51.859  1.00  0.00     0.050 A 
HETATM   14  C16 UNL     1      23.234   0.306  53.033  1.00  0.00     0.071 A 
HETATM   15  N4  UNL     1      24.390  -0.423  53.430  1.00  0.00    -0.311 N 
ENDROOT
BRANCH  11  16
HETATM   16  N3  UNL     1      23.382   2.484  49.404  1.00  0.00    -0.340 N 
HETATM   17  H5  UNL     1      23.641   1.696  48.786  1.00  0.00     0.167 HD
BRANCH  16  18
HETATM   18  C8  UNL     1      24.357   3.504  49.305  1.00  0.00     0.035 A 
HETATM   19  C9  UNL     1      25.686   3.314  49.606  1.00  0.00     0.029 A 
HETATM   20  C10 UNL     1      26.648   4.280  49.526  1.00  0.00     0.004 A 
HETATM   21  C11 UNL     1      26.322   5.553  49.121  1.00  0.00     0.024 A 
HETATM   22  C12 UNL     1      25.009   5.801  48.806  1.00  0.00     0.036 A 
HETATM   23 CL1  UNL     1      24.537   7.392  48.286  1.00  0.00    -0.084 Cl
HETATM   24  C13 UNL     1      24.101   4.799  48.906  1.00  0.00     0.053 A 
ENDBRANCH  16  18
ENDBRANCH  11  16
BRANCH  15  25
HETATM   25  C17 UNL     1      25.632  -0.524  52.751  1.00  0.00     0.167 C 
BRANCH  25  26
HETATM   26  C18 UNL     1      26.765   0.290  53.313  1.00  0.00     0.240 C 
HETATM   27  C19 UNL     1      26.501   1.775  53.175  1.00  0.00     0.063 C 
HETATM   28  C20 UNL     1      27.792   2.558  53.061  1.00  0.00     0.169 C 
HETATM   29  O3  UNL     1      28.431   2.457  54.296  1.00  0.00    -0.389 OA
HETATM   30  C21 UNL     1      29.167   1.293  54.306  1.00  0.00     0.197 C 
HETATM   31  C22 UNL     1      28.501   0.134  54.978  1.00  0.00     0.296 C 
HETATM   32  N5  UNL     1      27.096   0.015  54.666  1.00  0.00     0.091 N 
HETATM   33  H22 UNL     1      26.586   0.688  55.279  1.00  0.00     0.316 HD
ENDBRANCH  25  26
ENDBRANCH  15  25
TORSDOF 4
ENDMDL
MODEL 5
REMARK VINA RESULT:      -8.9      2.080      3.358
REMARK  4 active torsions:
REMARK  status: ('A' for Active; 'I' for Inactive)
REMARK    1  A    between atoms: C7_11  and  N3_12 
REMARK    2  A    between atoms: N3_12  and  C8_13 
REMARK    3  A    between atoms: N4_23  and  C17_24 
REMARK    4  A    between atoms: C17_24  and  C18_25 
ROOT
HETATM    1  O1  UNL     1      23.292   4.762  47.922  1.00  0.00    -0.271 OA
HETATM    2  C1  UNL     1      23.027   3.723  48.603  1.00  0.00     0.248 C 
HETATM    3  C2  UNL     1      21.821   2.959  48.120  1.00  0.00     0.279 C 
HETATM    4  O2  UNL     1      21.404   2.042  49.118  1.00  0.00    -0.340 OA
HETATM    5  C3  UNL     1      22.210   1.717  50.205  1.00  0.00     0.098 A 
HETATM    6  C4  UNL     1      21.785   0.690  51.018  1.00  0.00     0.071 A 
HETATM    7  C5  UNL     1      22.560   0.343  52.101  1.00  0.00     0.075 A 
HETATM    8  N1  UNL     1      22.081  -0.671  52.850  1.00  0.00    -0.241 NA
HETATM    9  C6  UNL     1      22.756  -1.093  53.930  1.00  0.00     0.236 A 
HETATM   10  N2  UNL     1      23.896  -0.486  54.233  1.00  0.00    -0.224 NA
HETATM   11  C7  UNL     1      24.446   0.508  53.570  1.00  0.00     0.142 A 
HETATM   12  C14 UNL     1      23.756   0.945  52.459  1.00  0.00     0.041 A 
HETATM   13  C15 UNL     1      24.131   1.964  51.610  1.00  0.00     0.050 A 
HETATM   14  C16 UNL     1      23.395   2.346  50.521  1.00  0.00     0.071 A 
HETATM   15  N4  UNL     1      23.889   3.415  49.720  1.00  0.00    -0.311 N 
ENDROOT
BRANCH  11  16
HETATM   16  N3  UNL     1      25.660   1.152  53.894  1.00  0.00    -0.340 N 
HETATM   17  H5  UNL     1      25.700   2.108  54.287  1.00  0.00     0.167 HD
BRANCH  16  18
HETATM   18  C8  UNL     1      26.973   0.644  53.751  1.00  0.00     0.035 A 
HETATM   19  C9  UNL     1      28.103   1.419  53.863  1.00  0.00     0.029 A 
HETATM   20  C10 UNL     1      29.381   0.959  53.724  1.00  0.00     0.004 A 
HETATM   21  C11 UNL     1      29.614  -0.369  53.452  1.00  0.00     0.024 A 
HETATM   22  C12 UNL     1      28.522  -1.193  53.330  1.00  0.00     0.036 A 
HETATM   23 CL1  UNL     1      28.755  -2.881  52.988  1.00  0.00    -0.084 Cl
HETATM   24  C13 UNL     1      27.279  -0.674  53.479  1.00  0.00     0.053 A 
ENDBRANCH  16  18
ENDBRANCH  11  16
BRANCH  15  25
HETATM   25  C17 UNL     1      25.080   4.163  49.905  1.00  0.00     0.167 C 
BRANCH  25  26
HETATM   26  C18 UNL     1      24.915   5.651  50.049  1.00  0.00     0.240 C 
HETATM   27  C19 UNL     1      23.992   5.997  51.199  1.00  0.00     0.063 C 
HETATM   28  C20 UNL     1      23.275   7.309  50.958  1.00  0.00     0.169 C 
HETATM   29  O3  UNL     1      24.246   8.310  51.010  1.00  0.00    -0.389 OA
HETATM   30  C21 UNL     1      24.817   8.421  49.762  1.00  0.00     0.197 C 
HETATM   31  C22 UNL     1      26.114   7.693  49.597  1.00  0.00     0.296 C 
HETATM   32  N5  UNL     1      26.122   6.383  50.204  1.00  0.00     0.091 N 
HETATM   33  H22 UNL     1      26.304   6.516  51.223  1.00  0.00     0.316 HD
ENDBRANCH  25  26
ENDBRANCH  15  25
TORSDOF 4
ENDMDL
MODEL 6
REMARK VINA RESULT:      -8.8      2.981      4.874
REMARK  4 active torsions:
REMARK  status: ('A' for Active; 'I' for Inactive)
REMARK    1  A    between atoms: C7_11  and  N3_12 
REMARK    2  A    between atoms: N3_12  and  C8_13 
REMARK    3  A    between atoms: N4_23  and  C17_24 
REMARK    4  A    between atoms: C17_24  and  C18_25 
ROOT
HETATM    1  O1  UNL     1      19.512  -0.176  53.823  1.00  0.00    -0.271 OA
HETATM    2  C1  UNL     1      20.775  -0.268  53.720  1.00  0.00     0.248 C 
HETATM    3  C2  UNL     1      21.365  -1.473  54.406  1.00  0.00     0.279 C 
HETATM    4  O2  UNL     1      22.768  -1.311  54.537  1.00  0.00    -0.340 OA
HETATM    5  C3  UNL     1      23.465  -0.332  53.835  1.00  0.00     0.098 A 
HETATM    6  C4  UNL     1      24.841  -0.373  53.899  1.00  0.00     0.071 A 
HETATM    7  C5  UNL     1      25.561   0.580  53.216  1.00  0.00     0.075 A 
HETATM    8  N1  UNL     1      26.901   0.476  53.324  1.00  0.00    -0.241 NA
HETATM    9  C6  UNL     1      27.702   1.352  52.699  1.00  0.00     0.236 A 
HETATM   10  N2  UNL     1      27.136   2.313  51.978  1.00  0.00    -0.224 NA
HETATM   11  C7  UNL     1      25.846   2.499  51.810  1.00  0.00     0.142 A 
HETATM   12  C14 UNL     1      25.019   1.602  52.452  1.00  0.00     0.041 A 
HETATM   13  C15 UNL     1      23.642   1.592  52.424  1.00  0.00     0.050 A 
HETATM   14  C16 UNL     1      22.881   0.667  53.086  1.00  0.00     0.071 A 
HETATM   15  N4  UNL     1      21.464   0.764  52.980  1.00  0.00    -0.311 N 
ENDROOT
BRANCH  11  16
HETATM   16  N3  UNL     1      25.248   3.523  51.043  1.00  0.00    -0.340 N 
HETATM   17  H5  UNL     1      24.229   3.704  51.046  1.00  0.00     0.167 HD
BRANCH  16  18
HETATM   18  C8  UNL     1      25.888   4.439  50.175  1.00  0.00     0.035 A 
HETATM   19  C9  UNL     1      26.947   4.102  49.364  1.00  0.00     0.029 A 
HETATM   20  C10 UNL     1      27.588   4.965  48.523  1.00  0.00     0.004 A 
HETATM   21  C11 UNL     1      27.189   6.278  48.438  1.00  0.00     0.024 A 
HETATM   22  C12 UNL     1      26.135   6.672  49.225  1.00  0.00     0.036 A 
HETATM   23 CL1  UNL     1      25.585   8.320  49.161  1.00  0.00    -0.084 Cl
HETATM   24  C13 UNL     1      25.540   5.767  50.041  1.00  0.00     0.053 A 
ENDBRANCH  16  18
ENDBRANCH  11  16
BRANCH  15  25
HETATM   25  C17 UNL     1      20.709   1.722  52.257  1.00  0.00     0.167 C 
BRANCH  25  26
HETATM   26  C18 UNL     1      21.215   2.067  50.882  1.00  0.00     0.240 C 
HETATM   27  C19 UNL     1      20.662   1.121  49.836  1.00  0.00     0.063 C 
HETATM   28  C20 UNL     1      21.613   0.973  48.667  1.00  0.00     0.169 C 
HETATM   29  O3  UNL     1      21.634   2.204  48.011  1.00  0.00    -0.389 OA
HETATM   30  C21 UNL     1      22.564   3.008  48.633  1.00  0.00     0.197 C 
HETATM   31  C22 UNL     1      21.997   3.971  49.627  1.00  0.00     0.296 C 
HETATM   32  N5  UNL     1      20.966   3.400  50.461  1.00  0.00     0.091 N 
HETATM   33  H22 UNL     1      20.079   3.417  49.911  1.00  0.00     0.316 HD
ENDBRANCH  25  26
ENDBRANCH  15  25
TORSDOF 4
ENDMDL
MODEL 7
REMARK VINA RESULT:      -8.8      3.386      6.112
REMARK  4 active torsions:
REMARK  status: ('A' for Active; 'I' for Inactive)
REMARK    1  A    between atoms: C7_11  and  N3_12 
REMARK    2  A    between atoms: N3_12  and  C8_13 
REMARK    3  A    between atoms: N4_23  and  C17_24 
REMARK    4  A    between atoms: C17_24  and  C18_25 
ROOT
HETATM    1  O1  UNL     1      28.721   1.294  52.814  1.00  0.00    -0.271 OA
HETATM    2  C1  UNL     1      27.681   0.869  53.407  1.00  0.00     0.248 C 
HETATM    3  C2  UNL     1      27.925   0.390  54.814  1.00  0.00     0.279 C 
HETATM    4  O2  UNL     1      26.814  -0.369  55.261  1.00  0.00    -0.340 OA
HETATM    5  C3  UNL     1      25.596  -0.361  54.588  1.00  0.00     0.098 A 
HETATM    6  C4  UNL     1      24.535  -0.991  55.199  1.00  0.00     0.071 A 
HETATM    7  C5  UNL     1      23.316  -1.000  54.561  1.00  0.00     0.075 A 
HETATM    8  N1  UNL     1      22.325  -1.635  55.219  1.00  0.00    -0.241 NA
HETATM    9  C6  UNL     1      21.095  -1.704  54.690  1.00  0.00     0.236 A 
HETATM   10  N2  UNL     1      20.888  -1.134  53.509  1.00  0.00    -0.224 NA
HETATM   11  C7  UNL     1      21.784  -0.494  52.790  1.00  0.00     0.142 A 
HETATM   12  C14 UNL     1      23.050  -0.420  53.330  1.00  0.00     0.041 A 
HETATM   13  C15 UNL     1      24.147   0.195  52.767  1.00  0.00     0.050 A 
HETATM   14  C16 UNL     1      25.379   0.231  53.362  1.00  0.00     0.071 A 
HETATM   15  N4  UNL     1      26.434   0.898  52.678  1.00  0.00    -0.311 N 
ENDROOT
BRANCH  11  16
HETATM   16  N3  UNL     1      21.561   0.112  51.534  1.00  0.00    -0.340 N 
HETATM   17  H5  UNL     1      21.694  -0.388  50.638  1.00  0.00     0.167 HD
BRANCH  16  18
HETATM   18  C8  UNL     1      21.139   1.438  51.277  1.00  0.00     0.035 A 
HETATM   19  C9  UNL     1      20.435   2.199  52.181  1.00  0.00     0.029 A 
HETATM   20  C10 UNL     1      20.011   3.477  51.960  1.00  0.00     0.004 A 
HETATM   21  C11 UNL     1      20.279   4.100  50.763  1.00  0.00     0.024 A 
HETATM   22  C12 UNL     1      20.980   3.389  49.820  1.00  0.00     0.036 A 
HETATM   23 CL1  UNL     1      21.348   4.124  48.289  1.00  0.00    -0.084 Cl
HETATM   24  C13 UNL     1      21.373   2.122  50.102  1.00  0.00     0.053 A 
ENDBRANCH  16  18
ENDBRANCH  11  16
BRANCH  15  25
HETATM   25  C17 UNL     1      26.380   1.554  51.421  1.00  0.00     0.167 C 
BRANCH  25  26
HETATM   26  C18 UNL     1      25.554   2.809  51.361  1.00  0.00     0.240 C 
HETATM   27  C19 UNL     1      25.006   3.178  52.724  1.00  0.00     0.063 C 
HETATM   28  C20 UNL     1      23.700   3.934  52.611  1.00  0.00     0.169 C 
HETATM   29  O3  UNL     1      24.003   5.170  52.039  1.00  0.00    -0.389 OA
HETATM   30  C21 UNL     1      24.007   5.022  50.670  1.00  0.00     0.197 C 
HETATM   31  C22 UNL     1      25.362   4.832  50.063  1.00  0.00     0.296 C 
HETATM   32  N5  UNL     1      26.213   3.944  50.819  1.00  0.00     0.091 N 
HETATM   33  H22 UNL     1      26.622   4.500  51.602  1.00  0.00     0.316 HD
ENDBRANCH  25  26
ENDBRANCH  15  25
TORSDOF 4
ENDMDL
MODEL 8
REMARK VINA RESULT:      -8.6      3.577      6.658
REMARK  4 active torsions:
REMARK  status: ('A' for Active; 'I' for Inactive)
REMARK    1  A    between atoms: C7_11  and  N3_12 
REMARK    2  A    between atoms: N3_12  and  C8_13 
REMARK    3  A    between atoms: N4_23  and  C17_24 
REMARK    4  A    between atoms: C17_24  and  C18_25 
ROOT
HETATM    1  O1  UNL     1      26.895   3.226  50.310  1.00  0.00    -0.271 OA
HETATM    2  C1  UNL     1      26.373   2.536  51.241  1.00  0.00     0.248 C 
HETATM    3  C2  UNL     1      27.343   2.115  52.315  1.00  0.00     0.279 C 
HETATM    4  O2  UNL     1      26.767   1.085  53.102  1.00  0.00    -0.340 OA
HETATM    5  C3  UNL     1      25.409   0.786  53.048  1.00  0.00     0.098 A 
HETATM    6  C4  UNL     1      24.924  -0.109  53.976  1.00  0.00     0.071 A 
HETATM    7  C5  UNL     1      23.586  -0.425  53.951  1.00  0.00     0.075 A 
HETATM    8  N1  UNL     1      23.184  -1.306  54.889  1.00  0.00    -0.241 NA
HETATM    9  C6  UNL     1      21.900  -1.685  54.958  1.00  0.00     0.236 A 
HETATM   10  N2  UNL     1      21.047  -1.170  54.080  1.00  0.00    -0.224 NA
HETATM   11  C7  UNL     1      21.337  -0.308  53.131  1.00  0.00     0.142 A 
HETATM   12  C14 UNL     1      22.657   0.085  53.057  1.00  0.00     0.041 A 
HETATM   13  C15 UNL     1      23.198   0.974  52.154  1.00  0.00     0.050 A 
HETATM   14  C16 UNL     1      24.522   1.320  52.138  1.00  0.00     0.071 A 
HETATM   15  N4  UNL     1      24.960   2.251  51.153  1.00  0.00    -0.311 N 
ENDROOT
BRANCH  11  16
HETATM   16  N3  UNL     1      20.428   0.239  52.199  1.00  0.00    -0.340 N 
HETATM   17  H5  UNL     1      20.681   1.005  51.551  1.00  0.00     0.167 HD
BRANCH  16  18
HETATM   18  C8  UNL     1      19.079  -0.132  51.989  1.00  0.00     0.035 A 
HETATM   19  C9  UNL     1      18.353  -0.890  52.878  1.00  0.00     0.029 A 
HETATM   20  C10 UNL     1      17.054  -1.269  52.700  1.00  0.00     0.004 A 
HETATM   21  C11 UNL     1      16.370  -0.893  51.567  1.00  0.00     0.024 A 
HETATM   22  C12 UNL     1      17.044  -0.133  50.642  1.00  0.00     0.036 A 
HETATM   23 CL1  UNL     1      16.232   0.373  49.191  1.00  0.00    -0.084 Cl
HETATM   24  C13 UNL     1      18.335   0.210  50.879  1.00  0.00     0.053 A 
ENDBRANCH  16  18
ENDBRANCH  11  16
BRANCH  15  25
HETATM   25  C17 UNL     1      24.183   2.889  50.152  1.00  0.00     0.167 C 
BRANCH  25  26
HETATM   26  C18 UNL     1      23.596   4.225  50.517  1.00  0.00     0.240 C 
HETATM   27  C19 UNL     1      22.204   4.079  51.095  1.00  0.00     0.063 C 
HETATM   28  C20 UNL     1      21.360   5.306  50.823  1.00  0.00     0.169 C 
HETATM   29  O3  UNL     1      21.914   6.345  51.571  1.00  0.00    -0.389 OA
HETATM   30  C21 UNL     1      22.930   6.912  50.835  1.00  0.00     0.197 C 
HETATM   31  C22 UNL     1      24.303   6.431  51.186  1.00  0.00     0.296 C 
HETATM   32  N5  UNL     1      24.375   5.006  51.410  1.00  0.00     0.091 N 
HETATM   33  H22 UNL     1      24.045   4.830  52.385  1.00  0.00     0.316 HD
ENDBRANCH  25  26
ENDBRANCH  15  25
TORSDOF 4
ENDMDL
MODEL 9
REMARK VINA RESULT:      -8.6      3.220      6.325
REMARK  4 active torsions:
REMARK  status: ('A' for Active; 'I' for Inactive)
REMARK    1  A    between atoms: C7_11  and  N3_12 
REMARK    2  A    between atoms: N3_12  and  C8_13 
REMARK    3  A    between atoms: N4_23  and  C17_24 
REMARK    4  A    between atoms: C17_24  and  C18_25 
ROOT
HETATM    1  O1  UNL     1      25.087   5.854  48.478  1.00  0.00    -0.271 OA
HETATM    2  C1  UNL     1      25.375   4.918  49.287  1.00  0.00     0.248 C 
HETATM    3  C2  UNL     1      26.831   4.532  49.293  1.00  0.00     0.279 C 
HETATM    4  O2  UNL     1      26.993   3.283  49.945  1.00  0.00    -0.340 OA
HETATM    5  C3  UNL     1      25.983   2.718  50.717  1.00  0.00     0.098 A 
HETATM    6  C4  UNL     1      26.303   1.593  51.445  1.00  0.00     0.071 A 
HETATM    7  C5  UNL     1      25.327   1.010  52.220  1.00  0.00     0.075 A 
HETATM    8  N1  UNL     1      25.713  -0.086  52.904  1.00  0.00    -0.241 NA
HETATM    9  C6  UNL     1      24.844  -0.735  53.693  1.00  0.00     0.236 A 
HETATM   10  N2  UNL     1      23.604  -0.268  53.774  1.00  0.00    -0.224 NA
HETATM   11  C7  UNL     1      23.130   0.788  53.150  1.00  0.00     0.142 A 
HETATM   12  C14 UNL     1      24.020   1.458  52.339  1.00  0.00     0.041 A 
HETATM   13  C15 UNL     1      23.759   2.584  51.589  1.00  0.00     0.050 A 
HETATM   14  C16 UNL     1      24.695   3.201  50.803  1.00  0.00     0.071 A 
HETATM   15  N4  UNL     1      24.301   4.359  50.076  1.00  0.00    -0.311 N 
ENDROOT
BRANCH  11  16
HETATM   16  N3  UNL     1      21.810   1.283  53.239  1.00  0.00    -0.340 N 
HETATM   17  H5  UNL     1      21.569   2.148  53.753  1.00  0.00     0.167 HD
BRANCH  16  18
HETATM   18  C8  UNL     1      20.638   0.722  52.679  1.00  0.00     0.035 A 
HETATM   19  C9  UNL     1      20.143   1.076  51.445  1.00  0.00     0.029 A 
HETATM   20  C10 UNL     1      19.013   0.557  50.882  1.00  0.00     0.004 A 
HETATM   21  C11 UNL     1      18.275  -0.391  51.552  1.00  0.00     0.024 A 
HETATM   22  C12 UNL     1      18.721  -0.784  52.790  1.00  0.00     0.036 A 
HETATM   23 CL1  UNL     1      17.831  -1.979  53.684  1.00  0.00    -0.084 Cl
HETATM   24  C13 UNL     1      19.852  -0.230  53.294  1.00  0.00     0.053 A 
ENDBRANCH  16  18
ENDBRANCH  11  16
BRANCH  15  25
HETATM   25  C17 UNL     1      23.026   4.982  50.053  1.00  0.00     0.167 C 
BRANCH  25  26
HETATM   26  C18 UNL     1      22.105   4.571  48.938  1.00  0.00     0.240 C 
HETATM   27  C19 UNL     1      20.670   4.467  49.415  1.00  0.00     0.063 C 
HETATM   28  C20 UNL     1      19.891   3.449  48.609  1.00  0.00     0.169 C 
HETATM   29  O3  UNL     1      19.767   3.970  47.321  1.00  0.00    -0.389 OA
HETATM   30  C21 UNL     1      20.896   3.633  46.609  1.00  0.00     0.197 C 
HETATM   31  C22 UNL     1      21.938   4.705  46.537  1.00  0.00     0.296 C 
HETATM   32  N5  UNL     1      22.137   5.400  47.787  1.00  0.00     0.091 N 
HETATM   33  H22 UNL     1      21.380   6.115  47.867  1.00  0.00     0.316 HD
ENDBRANCH  25  26
ENDBRANCH  15  25
TORSDOF 4
ENDMDL
