MODEL 1
REMARK VINA RESULT:      -8.7      0.000      0.000
REMARK  1 active torsions:
REMARK  status: ('A' for Active; 'I' for Inactive)
REMARK    1  A    between atoms: O1_2  and  C2_3 
ROOT
HETATM    1  C2  UNL     1      26.825   0.998  53.165  1.00  0.00     0.097 A 
HETATM    2  C3  UNL     1      26.913   0.059  54.200  1.00  0.00     0.039 A 
HETATM    3  C4  UNL     1      25.753  -0.518  54.673  1.00  0.00     0.003 A 
HETATM    4  C5  UNL     1      24.572  -0.120  54.082  1.00  0.00     0.012 A 
HETATM    5  C6  UNL     1      24.438   0.800  53.060  1.00  0.00    -0.000 A 
HETATM    6  C7  UNL     1      25.631   1.381  52.589  1.00  0.00     0.098 A 
HETATM    7  N1  UNL     1      25.632   2.315  51.584  1.00  0.00    -0.258 NA
HETATM    8  C8  UNL     1      26.417   2.699  50.685  1.00  0.00     0.119 C 
HETATM    9  C9  UNL     1      25.679   3.779  49.984  1.00  0.00     0.048 C 
HETATM   10  C10 UNL     1      24.445   4.177  50.338  1.00  0.00     0.056 C 
HETATM   11  N2  UNL     1      23.842   3.551  51.404  1.00  0.00    -0.247 NA
HETATM   12  C11 UNL     1      23.771   3.937  52.605  1.00  0.00     0.203 C 
HETATM   13  N3  UNL     1      23.048   2.672  52.693  1.00  0.00    -0.372 N 
HETATM   14  C12 UNL     1      23.212   1.210  52.435  1.00  0.00     0.141 C 
HETATM   15  C13 UNL     1      21.936   0.635  52.738  1.00  0.00     0.004 C 
HETATM   16  C14 UNL     1      20.972   0.660  51.828  1.00  0.00     0.017 C 
HETATM   17  C15 UNL     1      20.576   1.055  50.484  1.00  0.00     0.008 C 
HETATM   18 BR1  UNL     1      18.716   0.607  50.097  1.00  0.00    -0.051 Br
HETATM   19  C16 UNL     1      21.278   1.668  49.488  1.00  0.00     0.013 C 
HETATM   20  C17 UNL     1      22.414   2.297  48.790  1.00  0.00     0.162 C 
HETATM   21  N4  UNL     1      22.334   3.635  48.401  1.00  0.00    -0.352 N 
HETATM   22  N5  UNL     1      22.239   4.599  49.364  1.00  0.00    -0.235 NA
HETATM   23  C18 UNL     1      23.531   5.169  49.800  1.00  0.00     0.124 C 
HETATM   24  C19 UNL     1      24.111   5.949  48.637  1.00  0.00     0.034 C 
HETATM   25  H10 UNL     1      22.101   3.001  53.087  1.00  0.00     0.161 HD
HETATM   26  H17 UNL     1      22.061   3.877  47.446  1.00  0.00     0.174 HD
HETATM   27  H18 UNL     1      21.538   5.329  49.216  1.00  0.00     0.146 HD
ENDROOT
BRANCH   1  28
HETATM   28  O1  UNL     1      27.997   1.574  52.696  1.00  0.00    -0.354 OA
HETATM   29  C1  UNL     1      28.724   2.482  53.486  1.00  0.00     0.210 C 
ENDBRANCH   1  28
TORSDOF 1
ENDMDL
MODEL 2
REMARK VINA RESULT:      -8.3      3.051      5.001
REMARK  1 active torsions:
REMARK  status: ('A' for Active; 'I' for Inactive)
REMARK    1  A    between atoms: O1_2  and  C2_3 
ROOT
HETATM    1  C2  UNL     1      24.177   1.299  52.702  1.00  0.00     0.097 A 
HETATM    2  C3  UNL     1      25.149   0.312  52.905  1.00  0.00     0.039 A 
HETATM    3  C4  UNL     1      26.313   0.364  52.167  1.00  0.00     0.003 A 
HETATM    4  C5  UNL     1      26.435   1.402  51.267  1.00  0.00     0.012 A 
HETATM    5  C6  UNL     1      25.506   2.396  51.034  1.00  0.00    -0.000 A 
HETATM    6  C7  UNL     1      24.322   2.329  51.795  1.00  0.00     0.098 A 
HETATM    7  N1  UNL     1      23.317   3.252  51.650  1.00  0.00    -0.258 NA
HETATM    8  C8  UNL     1      22.408   3.742  52.362  1.00  0.00     0.119 C 
HETATM    9  C9  UNL     1      21.714   4.701  51.468  1.00  0.00     0.048 C 
HETATM   10  C10 UNL     1      22.070   4.905  50.188  1.00  0.00     0.056 C 
HETATM   11  N2  UNL     1      23.128   4.183  49.686  1.00  0.00    -0.247 NA
HETATM   12  C11 UNL     1      23.101   3.129  48.991  1.00  0.00     0.203 C 
HETATM   13  N3  UNL     1      24.542   3.338  49.096  1.00  0.00    -0.372 N 
HETATM   14  C12 UNL     1      25.633   3.485  50.106  1.00  0.00     0.141 C 
HETATM   15  C13 UNL     1      26.816   3.739  49.340  1.00  0.00     0.004 C 
HETATM   16  C14 UNL     1      27.074   4.971  48.921  1.00  0.00     0.017 C 
HETATM   17  C15 UNL     1      26.645   6.361  48.889  1.00  0.00     0.008 C 
HETATM   18 BR1  UNL     1      27.859   7.489  47.859  1.00  0.00    -0.051 Br
HETATM   19  C16 UNL     1      25.564   6.977  49.449  1.00  0.00     0.013 C 
HETATM   20  C17 UNL     1      24.319   7.140  50.222  1.00  0.00     0.162 C 
HETATM   21  N4  UNL     1      23.149   7.543  49.575  1.00  0.00    -0.352 N 
HETATM   22  N5  UNL     1      22.597   6.722  48.634  1.00  0.00    -0.235 NA
HETATM   23  C18 UNL     1      21.573   5.790  49.149  1.00  0.00     0.124 C 
HETATM   24  C19 UNL     1      20.375   6.611  49.585  1.00  0.00     0.034 C 
HETATM   25  H10 UNL     1      24.822   3.383  48.057  1.00  0.00     0.161 HD
HETATM   26  H17 UNL     1      22.872   8.528  49.580  1.00  0.00     0.174 HD
HETATM   27  H18 UNL     1      22.300   7.160  47.759  1.00  0.00     0.146 HD
ENDROOT
BRANCH   1  28
HETATM   28  O1  UNL     1      23.009   1.239  53.449  1.00  0.00    -0.354 OA
HETATM   29  C1  UNL     1      22.196   0.092  53.429  1.00  0.00     0.210 C 
ENDBRANCH   1  28
TORSDOF 1
ENDMDL
MODEL 3
REMARK VINA RESULT:      -8.2      7.598      9.585
REMARK  1 active torsions:
REMARK  status: ('A' for Active; 'I' for Inactive)
REMARK    1  A    between atoms: O1_2  and  C2_3 
ROOT
HETATM    1  C2  UNL     1      33.101   5.750  46.067  1.00  0.00     0.097 A 
HETATM    2  C3  UNL     1      33.291   4.385  45.820  1.00  0.00     0.039 A 
HETATM    3  C4  UNL     1      32.354   3.489  46.289  1.00  0.00     0.003 A 
HETATM    4  C5  UNL     1      31.280   4.013  46.979  1.00  0.00     0.012 A 
HETATM    5  C6  UNL     1      31.052   5.349  47.245  1.00  0.00    -0.000 A 
HETATM    6  C7  UNL     1      32.019   6.251  46.760  1.00  0.00     0.098 A 
HETATM    7  N1  UNL     1      31.912   7.603  46.967  1.00  0.00    -0.258 NA
HETATM    8  C8  UNL     1      32.281   8.654  46.390  1.00  0.00     0.119 C 
HETATM    9  C9  UNL     1      31.771   9.748  47.252  1.00  0.00     0.048 C 
HETATM   10  C10 UNL     1      31.085   9.532  48.387  1.00  0.00     0.056 C 
HETATM   11  N2  UNL     1      30.849   8.231  48.766  1.00  0.00    -0.247 NA
HETATM   12  C11 UNL     1      31.483   7.529  49.602  1.00  0.00     0.203 C 
HETATM   13  N3  UNL     1      30.464   6.574  49.175  1.00  0.00    -0.372 N 
HETATM   14  C12 UNL     1      29.931   5.899  47.954  1.00  0.00     0.141 C 
HETATM   15  C13 UNL     1      28.824   5.118  48.415  1.00  0.00     0.004 C 
HETATM   16  C14 UNL     1      27.640   5.693  48.583  1.00  0.00     0.017 C 
HETATM   17  C15 UNL     1      26.856   6.916  48.493  1.00  0.00     0.008 C 
HETATM   18 BR1  UNL     1      25.011   6.659  49.072  1.00  0.00    -0.051 Br
HETATM   19  C16 UNL     1      27.199   8.170  48.079  1.00  0.00     0.013 C 
HETATM   20  C17 UNL     1      28.035   9.269  47.561  1.00  0.00     0.162 C 
HETATM   21  N4  UNL     1      28.295  10.380  48.365  1.00  0.00    -0.352 N 
HETATM   22  N5  UNL     1      29.018  10.213  49.511  1.00  0.00    -0.235 NA
HETATM   23  C18 UNL     1      30.473  10.420  49.361  1.00  0.00     0.124 C 
HETATM   24  C19 UNL     1      30.705  11.888  49.060  1.00  0.00     0.034 C 
HETATM   25  H10 UNL     1      30.003   6.327  50.116  1.00  0.00     0.161 HD
HETATM   26  H17 UNL     1      27.730  11.227  48.269  1.00  0.00     0.174 HD
HETATM   27  H18 UNL     1      28.659  10.670  50.352  1.00  0.00     0.146 HD
ENDROOT
BRANCH   1  28
HETATM   28  O1  UNL     1      34.050   6.645  45.591  1.00  0.00    -0.354 OA
HETATM   29  C1  UNL     1      34.268   6.802  44.211  1.00  0.00     0.210 C 
ENDBRANCH   1  28
TORSDOF 1
ENDMDL
MODEL 4
REMARK VINA RESULT:      -8.0      2.953      4.777
REMARK  1 active torsions:
REMARK  status: ('A' for Active; 'I' for Inactive)
REMARK    1  A    between atoms: O1_2  and  C2_3 
ROOT
HETATM    1  C2  UNL     1      22.911   0.299  53.381  1.00  0.00     0.097 A 
HETATM    2  C3  UNL     1      23.957  -0.566  53.727  1.00  0.00     0.039 A 
HETATM    3  C4  UNL     1      25.196  -0.370  53.154  1.00  0.00     0.003 A 
HETATM    4  C5  UNL     1      25.316   0.680  52.268  1.00  0.00     0.012 A 
HETATM    5  C6  UNL     1      24.315   1.557  51.898  1.00  0.00    -0.000 A 
HETATM    6  C7  UNL     1      23.055   1.343  52.491  1.00  0.00     0.098 A 
HETATM    7  N1  UNL     1      21.976   2.139  52.200  1.00  0.00    -0.258 NA
HETATM    8  C8  UNL     1      20.926   2.512  52.775  1.00  0.00     0.119 C 
HETATM    9  C9  UNL     1      20.251   3.386  51.784  1.00  0.00     0.048 C 
HETATM   10  C10 UNL     1      20.752   3.638  50.563  1.00  0.00     0.056 C 
HETATM   11  N2  UNL     1      21.947   3.052  50.218  1.00  0.00    -0.247 NA
HETATM   12  C11 UNL     1      22.143   2.006  49.538  1.00  0.00     0.203 C 
HETATM   13  N3  UNL     1      23.520   2.386  49.836  1.00  0.00    -0.372 N 
HETATM   14  C12 UNL     1      24.437   2.657  50.984  1.00  0.00     0.141 C 
HETATM   15  C13 UNL     1      25.674   3.056  50.384  1.00  0.00     0.004 C 
HETATM   16  C14 UNL     1      25.837   4.312  49.991  1.00  0.00     0.017 C 
HETATM   17  C15 UNL     1      25.253   5.641  49.885  1.00  0.00     0.008 C 
HETATM   18 BR1  UNL     1      26.454   6.912  49.018  1.00  0.00    -0.051 Br
HETATM   19  C16 UNL     1      24.040   6.120  50.284  1.00  0.00     0.013 C 
HETATM   20  C17 UNL     1      22.690   6.127  50.878  1.00  0.00     0.162 C 
HETATM   21  N4  UNL     1      21.580   6.390  50.073  1.00  0.00    -0.352 N 
HETATM   22  N5  UNL     1      21.265   5.513  49.074  1.00  0.00    -0.235 NA
HETATM   23  C18 UNL     1      20.299   4.462  49.456  1.00  0.00     0.124 C 
HETATM   24  C19 UNL     1      18.963   5.131  49.714  1.00  0.00     0.034 C 
HETATM   25  H10 UNL     1      23.933   2.469  48.845  1.00  0.00     0.161 HD
HETATM   26  H17 UNL     1      21.190   7.334  50.029  1.00  0.00     0.174 HD
HETATM   27  H18 UNL     1      21.040   5.917  48.163  1.00  0.00     0.146 HD
ENDROOT
BRANCH   1  28
HETATM   28  O1  UNL     1      21.667   0.095  53.962  1.00  0.00    -0.354 OA
HETATM   29  C1  UNL     1      21.327  -1.149  54.525  1.00  0.00     0.210 C 
ENDBRANCH   1  28
TORSDOF 1
ENDMDL
MODEL 5
REMARK VINA RESULT:      -8.0      3.415      5.977
REMARK  1 active torsions:
REMARK  status: ('A' for Active; 'I' for Inactive)
REMARK    1  A    between atoms: O1_2  and  C2_3 
ROOT
HETATM    1  C2  UNL     1      18.070   2.099  51.181  1.00  0.00     0.097 A 
HETATM    2  C3  UNL     1      17.147   1.126  51.583  1.00  0.00     0.039 A 
HETATM    3  C4  UNL     1      17.618  -0.057  52.114  1.00  0.00     0.003 A 
HETATM    4  C5  UNL     1      18.987  -0.195  52.212  1.00  0.00     0.012 A 
HETATM    5  C6  UNL     1      19.933   0.736  51.831  1.00  0.00    -0.000 A 
HETATM    6  C7  UNL     1      19.435   1.938  51.289  1.00  0.00     0.098 A 
HETATM    7  N1  UNL     1      20.272   2.939  50.864  1.00  0.00    -0.258 NA
HETATM    8  C8  UNL     1      20.229   4.187  50.747  1.00  0.00     0.119 C 
HETATM    9  C9  UNL     1      21.559   4.554  50.201  1.00  0.00     0.048 C 
HETATM   10  C10 UNL     1      22.515   3.651  49.922  1.00  0.00     0.056 C 
HETATM   11  N2  UNL     1      22.242   2.323  50.154  1.00  0.00    -0.247 NA
HETATM   12  C11 UNL     1      21.867   1.442  49.330  1.00  0.00     0.203 C 
HETATM   13  N3  UNL     1      21.918   0.651  50.556  1.00  0.00    -0.372 N 
HETATM   14  C12 UNL     1      21.358   0.601  51.940  1.00  0.00     0.141 C 
HETATM   15  C13 UNL     1      22.003  -0.518  52.560  1.00  0.00     0.004 C 
HETATM   16  C14 UNL     1      23.213  -0.370  53.083  1.00  0.00     0.017 C 
HETATM   17  C15 UNL     1      24.322   0.534  53.350  1.00  0.00     0.008 C 
HETATM   18 BR1  UNL     1      25.809  -0.361  54.243  1.00  0.00    -0.051 Br
HETATM   19  C16 UNL     1      24.479   1.862  53.083  1.00  0.00     0.013 C 
HETATM   20  C17 UNL     1      24.154   3.218  52.602  1.00  0.00     0.162 C 
HETATM   21  N4  UNL     1      24.911   3.789  51.577  1.00  0.00    -0.352 N 
HETATM   22  N5  UNL     1      24.888   3.215  50.338  1.00  0.00    -0.235 NA
HETATM   23  C18 UNL     1      23.873   3.768  49.418  1.00  0.00     0.124 C 
HETATM   24  C19 UNL     1      24.269   5.195  49.092  1.00  0.00     0.034 C 
HETATM   25  H10 UNL     1      22.600  -0.131  50.271  1.00  0.00     0.161 HD
HETATM   26  H17 UNL     1      25.679   4.427  51.800  1.00  0.00     0.174 HD
HETATM   27  H18 UNL     1      25.790   3.092  49.872  1.00  0.00     0.146 HD
ENDROOT
BRANCH   1  28
HETATM   28  O1  UNL     1      17.587   3.286  50.648  1.00  0.00    -0.354 OA
HETATM   29  C1  UNL     1      16.564   4.005  51.291  1.00  0.00     0.210 C 
ENDBRANCH   1  28
TORSDOF 1
ENDMDL
MODEL 6
REMARK VINA RESULT:      -8.0      4.240      6.482
REMARK  1 active torsions:
REMARK  status: ('A' for Active; 'I' for Inactive)
REMARK    1  A    between atoms: O1_2  and  C2_3 
ROOT
HETATM    1  C2  UNL     1      28.535   7.600  47.228  1.00  0.00     0.097 A 
HETATM    2  C3  UNL     1      29.776   6.951  47.249  1.00  0.00     0.039 A 
HETATM    3  C4  UNL     1      29.875   5.728  47.879  1.00  0.00     0.003 A 
HETATM    4  C5  UNL     1      28.724   5.226  48.452  1.00  0.00     0.012 A 
HETATM    5  C6  UNL     1      27.482   5.829  48.455  1.00  0.00    -0.000 A 
HETATM    6  C7  UNL     1      27.398   7.078  47.808  1.00  0.00     0.098 A 
HETATM    7  N1  UNL     1      26.222   7.783  47.750  1.00  0.00    -0.258 NA
HETATM    8  C8  UNL     1      25.687   8.619  46.983  1.00  0.00     0.119 C 
HETATM    9  C9  UNL     1      24.380   8.920  47.617  1.00  0.00     0.048 C 
HETATM   10  C10 UNL     1      23.976   8.362  48.771  1.00  0.00     0.056 C 
HETATM   11  N2  UNL     1      24.819   7.470  49.392  1.00  0.00    -0.247 NA
HETATM   12  C11 UNL     1      25.616   7.679  50.350  1.00  0.00     0.203 C 
HETATM   13  N3  UNL     1      25.856   6.259  50.112  1.00  0.00    -0.372 N 
HETATM   14  C12 UNL     1      26.280   5.307  49.041  1.00  0.00     0.141 C 
HETATM   15  C13 UNL     1      26.190   4.010  49.642  1.00  0.00     0.004 C 
HETATM   16  C14 UNL     1      25.017   3.391  49.692  1.00  0.00     0.017 C 
HETATM   17  C15 UNL     1      23.600   3.439  49.366  1.00  0.00     0.008 C 
HETATM   18 BR1  UNL     1      22.644   1.852  49.979  1.00  0.00    -0.051 Br
HETATM   19  C16 UNL     1      22.861   4.386  48.720  1.00  0.00     0.013 C 
HETATM   20  C17 UNL     1      22.549   5.636  48.002  1.00  0.00     0.162 C 
HETATM   21  N4  UNL     1      21.685   6.569  48.578  1.00  0.00    -0.352 N 
HETATM   22  N5  UNL     1      22.056   7.188  49.737  1.00  0.00    -0.235 NA
HETATM   23  C18 UNL     1      22.757   8.476  49.554  1.00  0.00     0.124 C 
HETATM   24  C19 UNL     1      21.765   9.467  48.977  1.00  0.00     0.034 C 
HETATM   25  H10 UNL     1      25.637   5.845  51.082  1.00  0.00     0.161 HD
HETATM   26  H17 UNL     1      20.695   6.580  48.319  1.00  0.00     0.174 HD
HETATM   27  H18 UNL     1      21.349   7.247  50.473  1.00  0.00     0.146 HD
ENDROOT
BRANCH   1  28
HETATM   28  O1  UNL     1      28.445   8.830  46.591  1.00  0.00    -0.354 OA
HETATM   29  C1  UNL     1      29.327   9.877  46.914  1.00  0.00     0.210 C 
ENDBRANCH   1  28
TORSDOF 1
ENDMDL
MODEL 7
REMARK VINA RESULT:      -7.9      3.259      5.336
REMARK  1 active torsions:
REMARK  status: ('A' for Active; 'I' for Inactive)
REMARK    1  A    between atoms: O1_2  and  C2_3 
ROOT
HETATM    1  C2  UNL     1      22.371   2.118  52.464  1.00  0.00     0.097 A 
HETATM    2  C3  UNL     1      22.966   1.024  53.103  1.00  0.00     0.039 A 
HETATM    3  C4  UNL     1      24.253   0.672  52.754  1.00  0.00     0.003 A 
HETATM    4  C5  UNL     1      24.869   1.438  51.786  1.00  0.00     0.012 A 
HETATM    5  C6  UNL     1      24.322   2.524  51.131  1.00  0.00    -0.000 A 
HETATM    6  C7  UNL     1      23.007   2.869  51.498  1.00  0.00     0.098 A 
HETATM    7  N1  UNL     1      22.348   3.923  50.915  1.00  0.00    -0.258 NA
HETATM    8  C8  UNL     1      21.445   4.733  51.233  1.00  0.00     0.119 C 
HETATM    9  C9  UNL     1      21.279   5.592  50.035  1.00  0.00     0.048 C 
HETATM   10  C10 UNL     1      21.993   5.429  48.908  1.00  0.00     0.056 C 
HETATM   11  N2  UNL     1      22.921   4.415  48.867  1.00  0.00    -0.247 NA
HETATM   12  C11 UNL     1      22.802   3.261  48.367  1.00  0.00     0.203 C 
HETATM   13  N3  UNL     1      24.170   3.189  48.872  1.00  0.00    -0.372 N 
HETATM   14  C12 UNL     1      24.962   3.330  50.131  1.00  0.00     0.141 C 
HETATM   15  C13 UNL     1      26.327   3.161  49.731  1.00  0.00     0.004 C 
HETATM   16  C14 UNL     1      26.994   4.191  49.226  1.00  0.00     0.017 C 
HETATM   17  C15 UNL     1      26.964   5.597  48.853  1.00  0.00     0.008 C 
HETATM   18 BR1  UNL     1      28.653   6.196  48.080  1.00  0.00    -0.051 Br
HETATM   19  C16 UNL     1      25.973   6.529  48.956  1.00  0.00     0.013 C 
HETATM   20  C17 UNL     1      24.657   7.110  49.280  1.00  0.00     0.162 C 
HETATM   21  N4  UNL     1      23.840   7.589  48.254  1.00  0.00    -0.352 N 
HETATM   22  N5  UNL     1      23.356   6.710  47.327  1.00  0.00    -0.235 NA
HETATM   23  C18 UNL     1      22.028   6.145  47.644  1.00  0.00     0.124 C 
HETATM   24  C19 UNL     1      21.014   7.269  47.564  1.00  0.00     0.034 C 
HETATM   25  H10 UNL     1      24.711   2.945  47.973  1.00  0.00     0.161 HD
HETATM   26  H17 UNL     1      23.836   8.586  48.024  1.00  0.00     0.174 HD
HETATM   27  H18 UNL     1      23.419   6.995  46.348  1.00  0.00     0.146 HD
ENDROOT
BRANCH   1  28
HETATM   28  O1  UNL     1      21.075   2.465  52.821  1.00  0.00    -0.354 OA
HETATM   29  C1  UNL     1      20.005   1.574  52.618  1.00  0.00     0.210 C 
ENDBRANCH   1  28
TORSDOF 1
ENDMDL
MODEL 8
REMARK VINA RESULT:      -7.8      2.123      2.984
REMARK  1 active torsions:
REMARK  status: ('A' for Active; 'I' for Inactive)
REMARK    1  A    between atoms: O1_2  and  C2_3 
ROOT
HETATM    1  C2  UNL     1      23.386   0.280  53.271  1.00  0.00     0.097 A 
HETATM    2  C3  UNL     1      22.524  -0.458  54.091  1.00  0.00     0.039 A 
HETATM    3  C4  UNL     1      21.197  -0.091  54.160  1.00  0.00     0.003 A 
HETATM    4  C5  UNL     1      20.810   0.995  53.403  1.00  0.00     0.012 A 
HETATM    5  C6  UNL     1      21.622   1.751  52.581  1.00  0.00    -0.000 A 
HETATM    6  C7  UNL     1      22.975   1.364  52.523  1.00  0.00     0.098 A 
HETATM    7  N1  UNL     1      23.887   2.039  51.750  1.00  0.00    -0.258 NA
HETATM    8  C8  UNL     1      24.957   1.779  51.151  1.00  0.00     0.119 C 
HETATM    9  C9  UNL     1      25.354   3.065  50.526  1.00  0.00     0.048 C 
HETATM   10  C10 UNL     1      24.643   4.198  50.658  1.00  0.00     0.056 C 
HETATM   11  N2  UNL     1      23.492   4.158  51.410  1.00  0.00    -0.247 NA
HETATM   12  C11 UNL     1      23.329   4.504  52.614  1.00  0.00     0.203 C 
HETATM   13  N3  UNL     1      21.977   4.065  52.281  1.00  0.00    -0.372 N 
HETATM   14  C12 UNL     1      21.222   2.876  51.784  1.00  0.00     0.141 C 
HETATM   15  C13 UNL     1      19.866   3.321  51.665  1.00  0.00     0.004 C 
HETATM   16  C14 UNL     1      19.486   3.982  50.579  1.00  0.00     0.017 C 
HETATM   17  C15 UNL     1      19.873   4.526  49.287  1.00  0.00     0.008 C 
HETATM   18 BR1  UNL     1      18.402   5.452  48.400  1.00  0.00    -0.051 Br
HETATM   19  C16 UNL     1      21.063   4.490  48.620  1.00  0.00     0.013 C 
HETATM   20  C17 UNL     1      22.477   4.174  48.342  1.00  0.00     0.162 C 
HETATM   21  N4  UNL     1      23.406   5.208  48.218  1.00  0.00    -0.352 N 
HETATM   22  N5  UNL     1      23.672   5.993  49.304  1.00  0.00    -0.235 NA
HETATM   23  C18 UNL     1      24.811   5.541  50.130  1.00  0.00     0.124 C 
HETATM   24  C19 UNL     1      26.075   5.708  49.310  1.00  0.00     0.034 C 
HETATM   25  H10 UNL     1      21.409   4.952  52.503  1.00  0.00     0.161 HD
HETATM   26  H17 UNL     1      23.662   5.561  47.293  1.00  0.00     0.174 HD
HETATM   27  H18 UNL     1      23.700   7.002  49.146  1.00  0.00     0.146 HD
ENDROOT
BRANCH   1  28
HETATM   28  O1  UNL     1      24.721  -0.096  53.208  1.00  0.00    -0.354 OA
HETATM   29  C1  UNL     1      25.452  -0.368  54.378  1.00  0.00     0.210 C 
ENDBRANCH   1  28
TORSDOF 1
ENDMDL
MODEL 9
REMARK VINA RESULT:      -7.8      2.723      4.703
REMARK  1 active torsions:
REMARK  status: ('A' for Active; 'I' for Inactive)
REMARK    1  A    between atoms: O1_2  and  C2_3 
ROOT
HETATM    1  C2  UNL     1      23.561  -0.152  53.225  1.00  0.00     0.097 A 
HETATM    2  C3  UNL     1      24.857  -0.655  53.395  1.00  0.00     0.039 A 
HETATM    3  C4  UNL     1      25.889  -0.085  52.679  1.00  0.00     0.003 A 
HETATM    4  C5  UNL     1      25.562   0.956  51.834  1.00  0.00     0.012 A 
HETATM    5  C6  UNL     1      24.301   1.484  51.636  1.00  0.00    -0.000 A 
HETATM    6  C7  UNL     1      23.259   0.890  52.374  1.00  0.00     0.098 A 
HETATM    7  N1  UNL     1      21.959   1.317  52.259  1.00  0.00    -0.258 NA
HETATM    8  C8  UNL     1      20.933   1.346  52.980  1.00  0.00     0.119 C 
HETATM    9  C9  UNL     1      19.897   1.976  52.125  1.00  0.00     0.048 C 
HETATM   10  C10 UNL     1      20.128   2.375  50.862  1.00  0.00     0.056 C 
HETATM   11  N2  UNL     1      21.387   2.187  50.341  1.00  0.00    -0.247 NA
HETATM   12  C11 UNL     1      21.797   1.255  49.594  1.00  0.00     0.203 C 
HETATM   13  N3  UNL     1      23.021   2.039  49.732  1.00  0.00    -0.372 N 
HETATM   14  C12 UNL     1      23.958   2.573  50.766  1.00  0.00     0.141 C 
HETATM   15  C13 UNL     1      24.923   3.336  50.033  1.00  0.00     0.004 C 
HETATM   16  C14 UNL     1      24.642   4.584  49.681  1.00  0.00     0.017 C 
HETATM   17  C15 UNL     1      23.672   5.669  49.712  1.00  0.00     0.008 C 
HETATM   18 BR1  UNL     1      24.301   7.252  48.759  1.00  0.00    -0.051 Br
HETATM   19  C16 UNL     1      22.437   5.749  50.284  1.00  0.00     0.013 C 
HETATM   20  C17 UNL     1      21.242   5.339  51.044  1.00  0.00     0.162 C 
HETATM   21  N4  UNL     1      20.007   5.251  50.400  1.00  0.00    -0.352 N 
HETATM   22  N5  UNL     1      19.841   4.325  49.409  1.00  0.00    -0.235 NA
HETATM   23  C18 UNL     1      19.301   3.026  49.861  1.00  0.00     0.124 C 
HETATM   24  C19 UNL     1      17.873   3.250  50.318  1.00  0.00     0.034 C 
HETATM   25  H10 UNL     1      23.251   2.250  48.702  1.00  0.00     0.161 HD
HETATM   26  H17 UNL     1      19.345   6.030  50.449  1.00  0.00     0.174 HD
HETATM   27  H18 UNL     1      19.382   4.645  48.553  1.00  0.00     0.146 HD
ENDROOT
BRANCH   1  28
HETATM   28  O1  UNL     1      22.528  -0.732  53.949  1.00  0.00    -0.354 OA
HETATM   29  C1  UNL     1      22.745  -1.230  55.247  1.00  0.00     0.210 C 
ENDBRANCH   1  28
TORSDOF 1
ENDMDL
