MODEL 1
REMARK VINA RESULT:      -7.1      0.000      0.000
REMARK  6 active torsions:
REMARK  status: ('A' for Active; 'I' for Inactive)
REMARK    1  A    between atoms: N1_1  and  C1_2 
REMARK    2  A    between atoms: C1_2  and  O1_3 
REMARK    3  A    between atoms: O1_3  and  C2_4 
REMARK    4  A    between atoms: C4_6  and  C5_7 
REMARK    5  A    between atoms: C5_7  and  P1_8 
REMARK    6  A    between atoms: C14_21  and  O2_22 
ROOT
HETATM    1  C2  UNL     1      21.360   0.046  54.443  1.00  0.00     0.188 C 
HETATM    2  C3  UNL     1      22.519   0.379  53.552  1.00  0.00     0.039 C 
HETATM    3  C4  UNL     1      22.756   0.776  52.269  1.00  0.00     0.056 C 
HETATM    4  N2  UNL     1      22.424   1.142  50.989  1.00  0.00    -0.259 NA
HETATM    5  C11 UNL     1      21.542   1.393  50.185  1.00  0.00     0.142 C 
HETATM    6  P2  UNL     1      19.637   1.439  50.235  1.00  0.00     0.011 P 
HETATM    7  N3  UNL     1      19.178   0.339  51.553  1.00  0.00    -0.368 N 
HETATM    8  C12 UNL     1      18.164  -0.343  51.649  1.00  0.00     0.134 A 
HETATM    9  C13 UNL     1      19.092  -0.515  52.804  1.00  0.00     0.149 A 
HETATM   10  C14 UNL     1      20.171  -0.225  53.559  1.00  0.00     0.145 C 
HETATM   11  H13 UNL     1      19.176   0.842  48.982  1.00  0.00     0.085 HD
ENDROOT
BRANCH   3  12
HETATM   12  C5  UNL     1      24.234   0.940  52.026  1.00  0.00     0.046 C 
BRANCH  12  13
HETATM   13  P1  UNL     1      25.373   0.662  53.200  1.00  0.00    -0.044 P 
HETATM   14  C6  UNL     1      26.227   2.173  53.362  1.00  0.00     0.015 A 
HETATM   15  C7  UNL     1      27.699   2.231  53.465  1.00  0.00     0.003 A 
HETATM   16  C8  UNL     1      28.416   1.106  53.431  1.00  0.00     0.019 A 
HETATM   17  C9  UNL     1      28.009  -0.279  53.300  1.00  0.00     0.012 A 
HETATM   18 BR1  UNL     1      29.149  -1.796  53.260  1.00  0.00    -0.051 Br
HETATM   19  C10 UNL     1      26.689  -0.595  53.190  1.00  0.00     0.033 A 
ENDBRANCH  12  13
ENDBRANCH   3  12
BRANCH   1  20
HETATM   20  O1  UNL     1      21.579  -1.079  55.230  1.00  0.00    -0.350 OA
BRANCH  20  21
HETATM   21  C1  UNL     1      22.819  -1.615  54.959  1.00  0.00     0.435 C 
BRANCH  21  22
HETATM   22  N1  UNL     1      23.692  -1.596  56.122  1.00  0.00     0.101 N 
HETATM   23  H1  UNL     1      24.237  -0.707  56.197  1.00  0.00     0.315 HD
HETATM   24  H2  UNL     1      23.109  -1.710  56.979  1.00  0.00     0.315 HD
ENDBRANCH  21  22
ENDBRANCH  20  21
ENDBRANCH   1  20
BRANCH  10  25
HETATM   25  O2  UNL     1      20.500   0.868  52.801  1.00  0.00    -0.381 OA
HETATM   26  H16 UNL     1      19.845   1.084  52.007  1.00  0.00     0.211 HD
ENDBRANCH  10  25
TORSDOF 6
ENDMDL
MODEL 2
REMARK VINA RESULT:      -6.9      4.422      5.390
REMARK  6 active torsions:
REMARK  status: ('A' for Active; 'I' for Inactive)
REMARK    1  A    between atoms: N1_1  and  C1_2 
REMARK    2  A    between atoms: C1_2  and  O1_3 
REMARK    3  A    between atoms: O1_3  and  C2_4 
REMARK    4  A    between atoms: C4_6  and  C5_7 
REMARK    5  A    between atoms: C5_7  and  P1_8 
REMARK    6  A    between atoms: C14_21  and  O2_22 
ROOT
HETATM    1  C2  UNL     1      26.171   0.439  53.920  1.00  0.00     0.188 C 
HETATM    2  C3  UNL     1      26.385   1.354  52.750  1.00  0.00     0.039 C 
HETATM    3  C4  UNL     1      25.661   1.972  51.775  1.00  0.00     0.056 C 
HETATM    4  N2  UNL     1      24.526   2.314  51.082  1.00  0.00    -0.259 NA
HETATM    5  C11 UNL     1      23.311   2.252  51.002  1.00  0.00     0.142 C 
HETATM    6  P2  UNL     1      21.923   1.455  52.037  1.00  0.00     0.011 P 
HETATM    7  N3  UNL     1      22.699   0.109  52.900  1.00  0.00    -0.368 N 
HETATM    8  C12 UNL     1      22.198  -0.953  53.249  1.00  0.00     0.134 A 
HETATM    9  C13 UNL     1      23.641  -0.846  53.608  1.00  0.00     0.149 A 
HETATM   10  C14 UNL     1      24.824  -0.211  53.745  1.00  0.00     0.145 C 
HETATM   11  H13 UNL     1      20.976   0.879  51.083  1.00  0.00     0.085 HD
ENDROOT
BRANCH   3  12
HETATM   12  C5  UNL     1      26.557   2.794  50.885  1.00  0.00     0.046 C 
BRANCH  12  13
HETATM   13  P1  UNL     1      25.970   3.897  49.794  1.00  0.00    -0.044 P 
HETATM   14  C6  UNL     1      27.352   4.363  48.840  1.00  0.00     0.015 A 
HETATM   15  C7  UNL     1      27.620   5.771  48.488  1.00  0.00     0.003 A 
HETATM   16  C8  UNL     1      26.796   6.733  48.906  1.00  0.00     0.019 A 
HETATM   17  C9  UNL     1      25.589   6.671  49.706  1.00  0.00     0.012 A 
HETATM   18 BR1  UNL     1      24.505   8.136  50.237  1.00  0.00    -0.051 Br
HETATM   19  C10 UNL     1      25.129   5.471  50.155  1.00  0.00     0.033 A 
ENDBRANCH  12  13
ENDBRANCH   3  12
BRANCH   1  20
HETATM   20  O1  UNL     1      27.127  -0.566  54.012  1.00  0.00    -0.350 OA
BRANCH  20  21
HETATM   21  C1  UNL     1      27.268  -1.202  52.798  1.00  0.00     0.435 C 
BRANCH  21  22
HETATM   22  N1  UNL     1      27.500  -2.630  52.950  1.00  0.00     0.101 N 
HETATM   23  H1  UNL     1      28.514  -2.877  52.893  1.00  0.00     0.315 HD
HETATM   24  H2  UNL     1      27.128  -2.932  53.876  1.00  0.00     0.315 HD
ENDBRANCH  21  22
ENDBRANCH  20  21
ENDBRANCH   1  20
BRANCH  10  25
HETATM   25  O2  UNL     1      24.298   1.001  53.382  1.00  0.00    -0.381 OA
HETATM   26  H16 UNL     1      23.265   1.116  53.543  1.00  0.00     0.211 HD
ENDBRANCH  10  25
TORSDOF 6
ENDMDL
MODEL 3
REMARK VINA RESULT:      -6.7      4.153      6.017
REMARK  6 active torsions:
REMARK  status: ('A' for Active; 'I' for Inactive)
REMARK    1  A    between atoms: N1_1  and  C1_2 
REMARK    2  A    between atoms: C1_2  and  O1_3 
REMARK    3  A    between atoms: O1_3  and  C2_4 
REMARK    4  A    between atoms: C4_6  and  C5_7 
REMARK    5  A    between atoms: C5_7  and  P1_8 
REMARK    6  A    between atoms: C14_21  and  O2_22 
ROOT
HETATM    1  C2  UNL     1      26.076   3.895  49.546  1.00  0.00     0.188 C 
HETATM    2  C3  UNL     1      25.624   2.801  50.467  1.00  0.00     0.039 C 
HETATM    3  C4  UNL     1      24.617   2.542  51.349  1.00  0.00     0.056 C 
HETATM    4  N2  UNL     1      23.469   2.806  52.053  1.00  0.00    -0.259 NA
HETATM    5  C11 UNL     1      22.536   3.566  52.256  1.00  0.00     0.142 C 
HETATM    6  P2  UNL     1      21.979   5.245  51.548  1.00  0.00     0.011 P 
HETATM    7  N3  UNL     1      23.460   6.005  50.927  1.00  0.00    -0.368 N 
HETATM    8  C12 UNL     1      23.725   7.199  50.861  1.00  0.00     0.134 A 
HETATM    9  C13 UNL     1      24.827   6.331  50.357  1.00  0.00     0.149 A 
HETATM   10  C14 UNL     1      25.390   5.164  49.979  1.00  0.00     0.145 C 
HETATM   11  H13 UNL     1      21.519   6.041  52.686  1.00  0.00     0.085 HD
ENDROOT
BRANCH   3  12
HETATM   12  C5  UNL     1      24.778   1.173  51.955  1.00  0.00     0.046 C 
BRANCH  12  13
HETATM   13  P1  UNL     1      25.853   0.853  53.178  1.00  0.00    -0.044 P 
HETATM   14  C6  UNL     1      26.744   2.336  53.391  1.00  0.00     0.015 A 
HETATM   15  C7  UNL     1      28.210   2.349  53.563  1.00  0.00     0.003 A 
HETATM   16  C8  UNL     1      28.894   1.203  53.553  1.00  0.00     0.019 A 
HETATM   17  C9  UNL     1      28.452  -0.168  53.392  1.00  0.00     0.012 A 
HETATM   18 BR1  UNL     1      29.548  -1.718  53.392  1.00  0.00    -0.051 Br
HETATM   19  C10 UNL     1      27.130  -0.443  53.218  1.00  0.00     0.033 A 
ENDBRANCH  12  13
ENDBRANCH   3  12
BRANCH   1  20
HETATM   20  O1  UNL     1      27.449   4.111  49.584  1.00  0.00    -0.350 OA
BRANCH  20  21
HETATM   21  C1  UNL     1      27.829   4.944  48.555  1.00  0.00     0.435 C 
BRANCH  21  22
HETATM   22  N1  UNL     1      28.812   5.929  48.980  1.00  0.00     0.101 N 
HETATM   23  H1  UNL     1      28.736   6.824  48.445  1.00  0.00     0.315 HD
HETATM   24  H2  UNL     1      28.670   6.126  49.993  1.00  0.00     0.315 HD
ENDBRANCH  21  22
ENDBRANCH  20  21
ENDBRANCH   1  20
BRANCH  10  25
HETATM   25  O2  UNL     1      24.217   4.469  50.120  1.00  0.00    -0.381 OA
HETATM   26  H16 UNL     1      23.968   3.831  49.322  1.00  0.00     0.211 HD
ENDBRANCH  10  25
TORSDOF 6
ENDMDL
MODEL 4
REMARK VINA RESULT:      -6.6      3.837      4.689
REMARK  6 active torsions:
REMARK  status: ('A' for Active; 'I' for Inactive)
REMARK    1  A    between atoms: N1_1  and  C1_2 
REMARK    2  A    between atoms: C1_2  and  O1_3 
REMARK    3  A    between atoms: O1_3  and  C2_4 
REMARK    4  A    between atoms: C4_6  and  C5_7 
REMARK    5  A    between atoms: C5_7  and  P1_8 
REMARK    6  A    between atoms: C14_21  and  O2_22 
ROOT
HETATM    1  C2  UNL     1      24.971   0.368  53.333  1.00  0.00     0.188 C 
HETATM    2  C3  UNL     1      24.706   1.197  52.111  1.00  0.00     0.039 C 
HETATM    3  C4  UNL     1      23.649   1.683  51.401  1.00  0.00     0.056 C 
HETATM    4  N2  UNL     1      22.323   1.887  51.108  1.00  0.00    -0.259 NA
HETATM    5  C11 UNL     1      21.160   1.734  51.439  1.00  0.00     0.142 C 
HETATM    6  P2  UNL     1      20.267   0.928  52.918  1.00  0.00     0.011 P 
HETATM    7  N3  UNL     1      21.404  -0.286  53.544  1.00  0.00    -0.368 N 
HETATM    8  C12 UNL     1      21.145  -1.348  54.097  1.00  0.00     0.134 A 
HETATM    9  C13 UNL     1      22.610  -1.112  53.949  1.00  0.00     0.149 A 
HETATM   10  C14 UNL     1      23.708  -0.387  53.651  1.00  0.00     0.145 C 
HETATM   11  H13 UNL     1      19.118   0.212  52.366  1.00  0.00     0.085 HD
ENDROOT
BRANCH   3  12
HETATM   12  C5  UNL     1      24.124   2.490  50.221  1.00  0.00     0.046 C 
BRANCH  12  13
HETATM   13  P1  UNL     1      24.981   3.901  50.386  1.00  0.00    -0.044 P 
HETATM   14  C6  UNL     1      23.932   5.140  49.754  1.00  0.00     0.015 A 
HETATM   15  C7  UNL     1      24.429   6.205  48.860  1.00  0.00     0.003 A 
HETATM   16  C8  UNL     1      25.717   6.235  48.510  1.00  0.00     0.019 A 
HETATM   17  C9  UNL     1      26.819   5.360  48.856  1.00  0.00     0.012 A 
HETATM   18 BR1  UNL     1      28.619   5.520  48.275  1.00  0.00    -0.051 Br
HETATM   19  C10 UNL     1      26.611   4.294  49.678  1.00  0.00     0.033 A 
ENDBRANCH  12  13
ENDBRANCH   3  12
BRANCH   1  20
HETATM   20  O1  UNL     1      25.994  -0.557  53.155  1.00  0.00    -0.350 OA
BRANCH  20  21
HETATM   21  C1  UNL     1      27.205  -0.002  53.508  1.00  0.00     0.435 C 
BRANCH  21  22
HETATM   22  N1  UNL     1      27.525  -0.229  54.909  1.00  0.00     0.101 N 
HETATM   23  H1  UNL     1      28.272   0.414  55.257  1.00  0.00     0.315 HD
HETATM   24  H2  UNL     1      26.663  -0.085  55.476  1.00  0.00     0.315 HD
ENDBRANCH  21  22
ENDBRANCH  20  21
ENDBRANCH   1  20
BRANCH  10  25
HETATM   25  O2  UNL     1      22.982   0.752  53.419  1.00  0.00    -0.381 OA
HETATM   26  H16 UNL     1      22.383   0.742  52.556  1.00  0.00     0.211 HD
ENDBRANCH  10  25
TORSDOF 6
ENDMDL
MODEL 5
REMARK VINA RESULT:      -6.4      4.176      6.448
REMARK  6 active torsions:
REMARK  status: ('A' for Active; 'I' for Inactive)
REMARK    1  A    between atoms: N1_1  and  C1_2 
REMARK    2  A    between atoms: C1_2  and  O1_3 
REMARK    3  A    between atoms: O1_3  and  C2_4 
REMARK    4  A    between atoms: C4_6  and  C5_7 
REMARK    5  A    between atoms: C5_7  and  P1_8 
REMARK    6  A    between atoms: C14_21  and  O2_22 
ROOT
HETATM    1  C2  UNL     1      26.174   2.773  50.509  1.00  0.00     0.188 C 
HETATM    2  C3  UNL     1      24.796   2.705  51.098  1.00  0.00     0.039 C 
HETATM    3  C4  UNL     1      23.588   3.325  50.977  1.00  0.00     0.056 C 
HETATM    4  N2  UNL     1      22.689   4.230  50.471  1.00  0.00    -0.259 NA
HETATM    5  C11 UNL     1      22.459   5.108  49.656  1.00  0.00     0.142 C 
HETATM    6  P2  UNL     1      23.445   5.954  48.261  1.00  0.00     0.011 P 
HETATM    7  N3  UNL     1      25.153   5.762  48.714  1.00  0.00    -0.368 N 
HETATM    8  C12 UNL     1      26.088   6.513  48.465  1.00  0.00     0.134 A 
HETATM    9  C13 UNL     1      26.496   5.320  49.261  1.00  0.00     0.149 A 
HETATM   10  C14 UNL     1      26.314   4.115  49.839  1.00  0.00     0.145 C 
HETATM   11  H13 UNL     1      23.126   7.379  48.336  1.00  0.00     0.085 HD
ENDROOT
BRANCH   3  12
HETATM   12  C5  UNL     1      22.581   2.718  51.918  1.00  0.00     0.046 C 
BRANCH  12  13
HETATM   13  P1  UNL     1      22.470   1.084  52.182  1.00  0.00    -0.044 P 
HETATM   14  C6  UNL     1      20.772   0.786  52.439  1.00  0.00     0.015 A 
HETATM   15  C7  UNL     1      20.288  -0.097  53.519  1.00  0.00     0.003 A 
HETATM   16  C8  UNL     1      21.159  -0.690  54.338  1.00  0.00     0.019 A 
HETATM   17  C9  UNL     1      22.606  -0.637  54.388  1.00  0.00     0.012 A 
HETATM   18 BR1  UNL     1      23.730  -1.537  55.625  1.00  0.00    -0.051 Br
HETATM   19  C10 UNL     1      23.293   0.116  53.485  1.00  0.00     0.033 A 
ENDBRANCH  12  13
ENDBRANCH   3  12
BRANCH   1  20
HETATM   20  O1  UNL     1      27.182   2.657  51.459  1.00  0.00    -0.350 OA
BRANCH  20  21
HETATM   21  C1  UNL     1      26.703   2.028  52.587  1.00  0.00     0.435 C 
BRANCH  21  22
HETATM   22  N1  UNL     1      27.253   2.595  53.808  1.00  0.00     0.101 N 
HETATM   23  H1  UNL     1      26.961   2.065  54.661  1.00  0.00     0.315 HD
HETATM   24  H2  UNL     1      28.293   2.584  53.743  1.00  0.00     0.315 HD
ENDBRANCH  21  22
ENDBRANCH  20  21
ENDBRANCH   1  20
BRANCH  10  25
HETATM   25  O2  UNL     1      25.062   3.965  49.303  1.00  0.00    -0.381 OA
HETATM   26  H16 UNL     1      24.884   4.490  48.409  1.00  0.00     0.211 HD
ENDBRANCH  10  25
TORSDOF 6
ENDMDL
MODEL 6
REMARK VINA RESULT:      -6.4      3.373      6.092
REMARK  6 active torsions:
REMARK  status: ('A' for Active; 'I' for Inactive)
REMARK    1  A    between atoms: N1_1  and  C1_2 
REMARK    2  A    between atoms: C1_2  and  O1_3 
REMARK    3  A    between atoms: O1_3  and  C2_4 
REMARK    4  A    between atoms: C4_6  and  C5_7 
REMARK    5  A    between atoms: C5_7  and  P1_8 
REMARK    6  A    between atoms: C14_21  and  O2_22 
ROOT
HETATM    1  C2  UNL     1      23.299  -0.703  53.436  1.00  0.00     0.188 C 
HETATM    2  C3  UNL     1      22.621   0.551  52.972  1.00  0.00     0.039 C 
HETATM    3  C4  UNL     1      22.941   1.759  52.425  1.00  0.00     0.056 C 
HETATM    4  N2  UNL     1      23.776   2.727  51.927  1.00  0.00    -0.259 NA
HETATM    5  C11 UNL     1      24.910   3.047  51.613  1.00  0.00     0.142 C 
HETATM    6  P2  UNL     1      26.612   2.189  51.627  1.00  0.00     0.011 P 
HETATM    7  N3  UNL     1      26.494   0.936  52.882  1.00  0.00    -0.368 N 
HETATM    8  C12 UNL     1      27.386   0.498  53.599  1.00  0.00     0.134 A 
HETATM    9  C13 UNL     1      26.060  -0.126  53.873  1.00  0.00     0.149 A 
HETATM   10  C14 UNL     1      24.756  -0.381  53.640  1.00  0.00     0.145 C 
HETATM   11  H13 UNL     1      27.574   3.188  52.092  1.00  0.00     0.085 HD
ENDROOT
BRANCH   3  12
HETATM   12  C5  UNL     1      21.702   2.584  52.193  1.00  0.00     0.046 C 
BRANCH  12  13
HETATM   13  P1  UNL     1      21.065   2.842  50.683  1.00  0.00    -0.044 P 
HETATM   14  C6  UNL     1      21.309   1.341  49.831  1.00  0.00     0.015 A 
HETATM   15  C7  UNL     1      21.799   1.304  48.439  1.00  0.00     0.003 A 
HETATM   16  C8  UNL     1      22.073   2.440  47.796  1.00  0.00     0.019 A 
HETATM   17  C9  UNL     1      21.983   3.822  48.225  1.00  0.00     0.012 A 
HETATM   18 BR1  UNL     1      22.416   5.357  47.196  1.00  0.00    -0.051 Br
HETATM   19  C10 UNL     1      21.551   4.120  49.481  1.00  0.00     0.033 A 
ENDBRANCH  12  13
ENDBRANCH   3  12
BRANCH   1  20
HETATM   20  O1  UNL     1      22.791  -1.189  54.636  1.00  0.00    -0.350 OA
BRANCH  20  21
HETATM   21  C1  UNL     1      21.523  -0.696  54.850  1.00  0.00     0.435 C 
BRANCH  21  22
HETATM   22  N1  UNL     1      20.492  -1.652  54.479  1.00  0.00     0.101 N 
HETATM   23  H1  UNL     1      20.538  -2.529  55.046  1.00  0.00     0.315 HD
HETATM   24  H2  UNL     1      19.559  -1.208  54.616  1.00  0.00     0.315 HD
ENDBRANCH  21  22
ENDBRANCH  20  21
ENDBRANCH   1  20
BRANCH  10  25
HETATM   25  O2  UNL     1      24.756   0.315  52.459  1.00  0.00    -0.381 OA
HETATM   26  H16 UNL     1      24.727   1.361  52.548  1.00  0.00     0.211 HD
ENDBRANCH  10  25
TORSDOF 6
ENDMDL
MODEL 7
REMARK VINA RESULT:      -6.3      6.791      9.046
REMARK  6 active torsions:
REMARK  status: ('A' for Active; 'I' for Inactive)
REMARK    1  A    between atoms: N1_1  and  C1_2 
REMARK    2  A    between atoms: C1_2  and  O1_3 
REMARK    3  A    between atoms: O1_3  and  C2_4 
REMARK    4  A    between atoms: C4_6  and  C5_7 
REMARK    5  A    between atoms: C5_7  and  P1_8 
REMARK    6  A    between atoms: C14_21  and  O2_22 
ROOT
HETATM    1  C2  UNL     1      29.011   5.702  48.185  1.00  0.00     0.188 C 
HETATM    2  C3  UNL     1      27.879   4.826  48.633  1.00  0.00     0.039 C 
HETATM    3  C4  UNL     1      26.561   4.929  48.963  1.00  0.00     0.056 C 
HETATM    4  N2  UNL     1      25.366   5.574  49.167  1.00  0.00    -0.259 NA
HETATM    5  C11 UNL     1      24.731   6.612  49.098  1.00  0.00     0.142 C 
HETATM    6  P2  UNL     1      25.105   8.392  48.527  1.00  0.00     0.011 P 
HETATM    7  N3  UNL     1      26.862   8.584  48.713  1.00  0.00    -0.368 N 
HETATM    8  C12 UNL     1      27.487   9.605  48.972  1.00  0.00     0.134 A 
HETATM    9  C13 UNL     1      28.364   8.409  48.822  1.00  0.00     0.149 A 
HETATM   10  C14 UNL     1      28.640   7.125  48.512  1.00  0.00     0.145 C 
HETATM   11  H13 UNL     1      24.460   9.280  49.495  1.00  0.00     0.085 HD
ENDROOT
BRANCH   3  12
HETATM   12  C5  UNL     1      25.997   3.582  49.333  1.00  0.00     0.046 C 
BRANCH  12  13
HETATM   13  P1  UNL     1      25.539   3.195  50.880  1.00  0.00    -0.044 P 
HETATM   14  C6  UNL     1      26.843   2.221  51.503  1.00  0.00     0.015 A 
HETATM   15  C7  UNL     1      26.597   0.985  52.272  1.00  0.00     0.003 A 
HETATM   16  C8  UNL     1      25.347   0.580  52.505  1.00  0.00     0.019 A 
HETATM   17  C9  UNL     1      24.073   1.156  52.121  1.00  0.00     0.012 A 
HETATM   18 BR1  UNL     1      22.352   0.463  52.519  1.00  0.00    -0.051 Br
HETATM   19  C10 UNL     1      24.036   2.310  51.400  1.00  0.00     0.033 A 
ENDBRANCH  12  13
ENDBRANCH   3  12
BRANCH   1  20
HETATM   20  O1  UNL     1      30.213   5.412  48.822  1.00  0.00    -0.350 OA
BRANCH  20  21
HETATM   21  C1  UNL     1      31.220   5.263  47.894  1.00  0.00     0.435 C 
BRANCH  21  22
HETATM   22  N1  UNL     1      32.416   4.670  48.471  1.00  0.00     0.101 N 
HETATM   23  H1  UNL     1      32.257   3.689  48.796  1.00  0.00     0.315 HD
HETATM   24  H2  UNL     1      33.170   4.671  47.752  1.00  0.00     0.315 HD
ENDBRANCH  21  22
ENDBRANCH  20  21
ENDBRANCH   1  20
BRANCH  10  25
HETATM   25  O2  UNL     1      27.376   6.893  48.035  1.00  0.00    -0.381 OA
HETATM   26  H16 UNL     1      27.323   6.486  47.067  1.00  0.00     0.211 HD
ENDBRANCH  10  25
TORSDOF 6
ENDMDL
MODEL 8
REMARK VINA RESULT:      -6.2      3.787      7.522
REMARK  6 active torsions:
REMARK  status: ('A' for Active; 'I' for Inactive)
REMARK    1  A    between atoms: N1_1  and  C1_2 
REMARK    2  A    between atoms: C1_2  and  O1_3 
REMARK    3  A    between atoms: O1_3  and  C2_4 
REMARK    4  A    between atoms: C4_6  and  C5_7 
REMARK    5  A    between atoms: C5_7  and  P1_8 
REMARK    6  A    between atoms: C14_21  and  O2_22 
ROOT
HETATM    1  C2  UNL     1      24.522   2.838  51.705  1.00  0.00     0.188 C 
HETATM    2  C3  UNL     1      23.631   1.677  52.029  1.00  0.00     0.039 C 
HETATM    3  C4  UNL     1      23.645   0.542  52.785  1.00  0.00     0.056 C 
HETATM    4  N2  UNL     1      24.175  -0.378  53.655  1.00  0.00    -0.259 NA
HETATM    5  C11 UNL     1      25.097  -0.689  54.390  1.00  0.00     0.142 C 
HETATM    6  P2  UNL     1      26.754   0.107  54.894  1.00  0.00     0.011 P 
HETATM    7  N3  UNL     1      27.181   1.189  53.550  1.00  0.00    -0.368 N 
HETATM    8  C12 UNL     1      28.299   1.501  53.159  1.00  0.00     0.134 A 
HETATM    9  C13 UNL     1      27.208   2.125  52.358  1.00  0.00     0.149 A 
HETATM   10  C14 UNL     1      25.928   2.448  52.076  1.00  0.00     0.145 C 
HETATM   11  H13 UNL     1      27.740  -0.973  54.921  1.00  0.00     0.085 HD
ENDROOT
BRANCH   3  12
HETATM   12  C5  UNL     1      22.346  -0.208  52.645  1.00  0.00     0.046 C 
BRANCH  12  13
HETATM   13  P1  UNL     1      20.866   0.530  52.765  1.00  0.00    -0.044 P 
HETATM   14  C6  UNL     1      19.833  -0.654  53.520  1.00  0.00     0.015 A 
HETATM   15  C7  UNL     1      18.462  -0.914  53.041  1.00  0.00     0.003 A 
HETATM   16  C8  UNL     1      17.979  -0.237  51.996  1.00  0.00     0.019 A 
HETATM   17  C9  UNL     1      18.581   0.787  51.165  1.00  0.00     0.012 A 
HETATM   18 BR1  UNL     1      17.772   1.670  49.692  1.00  0.00    -0.051 Br
HETATM   19  C10 UNL     1      19.853   1.205  51.412  1.00  0.00     0.033 A 
ENDBRANCH  12  13
ENDBRANCH   3  12
BRANCH   1  20
HETATM   20  O1  UNL     1      24.509   3.178  50.357  1.00  0.00    -0.350 OA
BRANCH  20  21
HETATM   21  C1  UNL     1      24.959   4.470  50.187  1.00  0.00     0.435 C 
BRANCH  21  22
HETATM   22  N1  UNL     1      24.406   5.378  51.179  1.00  0.00     0.101 N 
HETATM   23  H1  UNL     1      23.951   4.873  51.973  1.00  0.00     0.315 HD
HETATM   24  H2  UNL     1      25.176   5.974  51.552  1.00  0.00     0.315 HD
ENDBRANCH  21  22
ENDBRANCH  20  21
ENDBRANCH   1  20
BRANCH  10  25
HETATM   25  O2  UNL     1      25.459   1.913  53.247  1.00  0.00    -0.381 OA
HETATM   26  H16 UNL     1      24.524   1.436  53.187  1.00  0.00     0.211 HD
ENDBRANCH  10  25
TORSDOF 6
ENDMDL
MODEL 9
REMARK VINA RESULT:      -6.2      5.716      8.005
REMARK  6 active torsions:
REMARK  status: ('A' for Active; 'I' for Inactive)
REMARK    1  A    between atoms: N1_1  and  C1_2 
REMARK    2  A    between atoms: C1_2  and  O1_3 
REMARK    3  A    between atoms: O1_3  and  C2_4 
REMARK    4  A    between atoms: C4_6  and  C5_7 
REMARK    5  A    between atoms: C5_7  and  P1_8 
REMARK    6  A    between atoms: C14_21  and  O2_22 
ROOT
HETATM    1  C2  UNL     1      26.332   3.661  49.295  1.00  0.00     0.188 C 
HETATM    2  C3  UNL     1      25.370   4.427  50.155  1.00  0.00     0.039 C 
HETATM    3  C4  UNL     1      25.009   5.717  50.406  1.00  0.00     0.056 C 
HETATM    4  N2  UNL     1      25.055   7.081  50.264  1.00  0.00    -0.259 NA
HETATM    5  C11 UNL     1      25.522   8.041  49.673  1.00  0.00     0.142 C 
HETATM    6  P2  UNL     1      26.767   8.280  48.250  1.00  0.00     0.011 P 
HETATM    7  N3  UNL     1      27.792   6.828  48.277  1.00  0.00    -0.368 N 
HETATM    8  C12 UNL     1      28.969   6.729  47.953  1.00  0.00     0.134 A 
HETATM    9  C13 UNL     1      28.389   5.443  48.435  1.00  0.00     0.149 A 
HETATM   10  C14 UNL     1      27.395   4.624  48.837  1.00  0.00     0.145 C 
HETATM   11  H13 UNL     1      27.606   9.419  48.622  1.00  0.00     0.085 HD
ENDROOT
BRANCH   3  12
HETATM   12  C5  UNL     1      23.911   5.773  51.436  1.00  0.00     0.046 C 
BRANCH  12  13
HETATM   13  P1  UNL     1      22.752   4.594  51.577  1.00  0.00    -0.044 P 
HETATM   14  C6  UNL     1      23.367   3.504  52.790  1.00  0.00     0.015 A 
HETATM   15  C7  UNL     1      23.301   2.038  52.628  1.00  0.00     0.003 A 
HETATM   16  C8  UNL     1      22.764   1.511  51.526  1.00  0.00     0.019 A 
HETATM   17  C9  UNL     1      22.184   2.139  50.356  1.00  0.00     0.012 A 
HETATM   18 BR1  UNL     1      21.453   1.256  48.842  1.00  0.00    -0.051 Br
HETATM   19  C10 UNL     1      22.126   3.496  50.268  1.00  0.00     0.033 A 
ENDBRANCH  12  13
ENDBRANCH   3  12
BRANCH   1  20
HETATM   20  O1  UNL     1      26.956   2.616  49.968  1.00  0.00    -0.350 OA
BRANCH  20  21
HETATM   21  C1  UNL     1      26.662   2.673  51.313  1.00  0.00     0.435 C 
BRANCH  21  22
HETATM   22  N1  UNL     1      26.868   1.395  51.975  1.00  0.00     0.101 N 
HETATM   23  H1  UNL     1      26.115   0.704  51.751  1.00  0.00     0.315 HD
HETATM   24  H2  UNL     1      27.786   1.005  51.671  1.00  0.00     0.315 HD
ENDBRANCH  21  22
ENDBRANCH  20  21
ENDBRANCH   1  20
BRANCH  10  25
HETATM   25  O2  UNL     1      26.423   5.554  48.574  1.00  0.00    -0.381 OA
HETATM   26  H16 UNL     1      25.556   5.186  48.108  1.00  0.00     0.211 HD
ENDBRANCH  10  25
TORSDOF 6
ENDMDL
