MODEL 1
REMARK VINA RESULT:      -7.3      0.000      0.000
REMARK  4 active torsions:
REMARK  status: ('A' for Active; 'I' for Inactive)
REMARK       I    between atoms: C1_2  and  N1_3 
REMARK    1  A    between atoms: C1_2  and  S2_14 
REMARK    2  A    between atoms: N1_3  and  S1_4 
REMARK    3  A    between atoms: S1_4  and  C2_7 
REMARK    4  A    between atoms: S2_14  and  C8_15 
ROOT
HETATM    1  O1  UNL     1      22.740   1.279  52.684  1.00  0.00    -0.259 OA
HETATM    2  C1  UNL     1      23.963   0.985  52.527  1.00  0.00     0.298 C 
HETATM    3  N1  UNL     1      24.841   1.743  51.668  1.00  0.00    -0.241 N 
HETATM    4  H1  UNL     1      25.826   1.424  51.606  1.00  0.00     0.182 HD
ENDROOT
BRANCH   3   5
HETATM    5  S1  UNL     1      24.060   3.077  50.888  1.00  0.00     0.265 S 
HETATM    6  O2  UNL     1      23.482   3.964  51.959  1.00  0.00    -0.200 OA
HETATM    7  O3  UNL     1      22.976   2.618  49.992  1.00  0.00    -0.200 OA
BRANCH   5   8
HETATM    8  C2  UNL     1      25.276   4.018  50.060  1.00  0.00     0.080 A 
HETATM    9  C3  UNL     1      25.000   5.356  49.937  1.00  0.00     0.027 A 
HETATM   10  C4  UNL     1      25.876   6.225  49.302  1.00  0.00     0.020 A 
HETATM   11  C5  UNL     1      27.062   5.714  48.779  1.00  0.00     0.011 A 
HETATM   12 BR1  UNL     1      28.294   6.892  47.896  1.00  0.00    -0.051 Br
HETATM   13  C6  UNL     1      27.360   4.355  48.895  1.00  0.00     0.020 A 
HETATM   14  C7  UNL     1      26.447   3.545  49.538  1.00  0.00     0.027 A 
ENDBRANCH   5   8
ENDBRANCH   3   5
BRANCH   2  15
HETATM   15  S2  UNL     1      24.542  -0.448  53.448  1.00  0.00    -0.027 SA
BRANCH  15  16
HETATM   16  C8  UNL     1      26.271  -0.291  53.839  1.00  0.00     0.027 A 
HETATM   17  C9  UNL     1      27.088  -1.046  52.991  1.00  0.00     0.022 A 
HETATM   18  C10 UNL     1      28.471  -1.012  53.190  1.00  0.00     0.021 A 
HETATM   19  C11 UNL     1      28.927  -0.213  54.234  1.00  0.00     0.116 A 
HETATM   20  N2  UNL     1      28.139   0.519  55.057  1.00  0.00    -0.272 NA
HETATM   21  C12 UNL     1      26.817   0.472  54.849  1.00  0.00     0.135 A 
ENDBRANCH  15  16
ENDBRANCH   2  15
TORSDOF 4
ENDMDL
MODEL 2
REMARK VINA RESULT:      -6.9      5.173      6.912
REMARK  4 active torsions:
REMARK  status: ('A' for Active; 'I' for Inactive)
REMARK       I    between atoms: C1_2  and  N1_3 
REMARK    1  A    between atoms: C1_2  and  S2_14 
REMARK    2  A    between atoms: N1_3  and  S1_4 
REMARK    3  A    between atoms: S1_4  and  C2_7 
REMARK    4  A    between atoms: S2_14  and  C8_15 
ROOT
HETATM    1  O1  UNL     1      24.002  -0.622  54.393  1.00  0.00    -0.259 OA
HETATM    2  C1  UNL     1      23.712  -0.042  53.303  1.00  0.00     0.298 C 
HETATM    3  N1  UNL     1      22.357   0.067  52.818  1.00  0.00    -0.241 N 
HETATM    4  H1  UNL     1      22.221   0.561  51.916  1.00  0.00     0.182 HD
ENDROOT
BRANCH   3   5
HETATM    5  S1  UNL     1      21.188  -0.664  53.864  1.00  0.00     0.265 S 
HETATM    6  O2  UNL     1      21.049   0.211  55.084  1.00  0.00    -0.200 OA
HETATM    7  O3  UNL     1      21.608  -2.021  54.279  1.00  0.00    -0.200 OA
BRANCH   5   8
HETATM    8  C2  UNL     1      19.640  -0.647  53.057  1.00  0.00     0.080 A 
HETATM    9  C3  UNL     1      19.557   0.176  51.963  1.00  0.00     0.027 A 
HETATM   10  C4  UNL     1      18.388   0.289  51.224  1.00  0.00     0.020 A 
HETATM   11  C5  UNL     1      17.276  -0.456  51.613  1.00  0.00     0.011 A 
HETATM   12 BR1  UNL     1      15.645  -0.320  50.611  1.00  0.00    -0.051 Br
HETATM   13  C6  UNL     1      17.343  -1.299  52.724  1.00  0.00     0.020 A 
HETATM   14  C7  UNL     1      18.535  -1.367  53.415  1.00  0.00     0.027 A 
ENDBRANCH   5   8
ENDBRANCH   3   5
BRANCH   2  15
HETATM   15  S2  UNL     1      25.104   0.641  52.392  1.00  0.00    -0.027 SA
BRANCH  15  16
HETATM   16  C8  UNL     1      26.631   0.353  53.260  1.00  0.00     0.027 A 
HETATM   17  C9  UNL     1      27.376  -0.696  52.710  1.00  0.00     0.022 A 
HETATM   18  C10 UNL     1      28.600  -1.026  53.299  1.00  0.00     0.021 A 
HETATM   19  C11 UNL     1      28.980  -0.269  54.403  1.00  0.00     0.116 A 
HETATM   20  N2  UNL     1      28.261   0.746  54.937  1.00  0.00    -0.272 NA
HETATM   21  C12 UNL     1      27.092   1.047  54.358  1.00  0.00     0.135 A 
ENDBRANCH  15  16
ENDBRANCH   2  15
TORSDOF 4
ENDMDL
MODEL 3
REMARK VINA RESULT:      -6.9      1.454      1.897
REMARK  4 active torsions:
REMARK  status: ('A' for Active; 'I' for Inactive)
REMARK       I    between atoms: C1_2  and  N1_3 
REMARK    1  A    between atoms: C1_2  and  S2_14 
REMARK    2  A    between atoms: N1_3  and  S1_4 
REMARK    3  A    between atoms: S1_4  and  C2_7 
REMARK    4  A    between atoms: S2_14  and  C8_15 
ROOT
HETATM    1  O1  UNL     1      23.220   2.566  51.688  1.00  0.00    -0.259 OA
HETATM    2  C1  UNL     1      24.435   2.222  51.580  1.00  0.00     0.298 C 
HETATM    3  N1  UNL     1      25.367   2.922  50.728  1.00  0.00    -0.241 N 
HETATM    4  H1  UNL     1      26.341   2.565  50.707  1.00  0.00     0.182 HD
ENDROOT
BRANCH   3   5
HETATM    5  S1  UNL     1      24.663   4.260  49.886  1.00  0.00     0.265 S 
HETATM    6  O2  UNL     1      24.017   5.160  50.908  1.00  0.00    -0.200 OA
HETATM    7  O3  UNL     1      23.642   3.809  48.914  1.00  0.00    -0.200 OA
BRANCH   5   8
HETATM    8  C2  UNL     1      25.947   5.183  49.146  1.00  0.00     0.080 A 
HETATM    9  C3  UNL     1      27.138   4.518  48.998  1.00  0.00     0.027 A 
HETATM   10  C4  UNL     1      28.245   5.127  48.426  1.00  0.00     0.020 A 
HETATM   11  C5  UNL     1      28.134   6.448  47.996  1.00  0.00     0.011 A 
HETATM   12 BR1  UNL     1      29.649   7.317  47.201  1.00  0.00    -0.051 Br
HETATM   13  C6  UNL     1      26.930   7.140  48.139  1.00  0.00     0.020 A 
HETATM   14  C7  UNL     1      25.867   6.477  48.715  1.00  0.00     0.027 A 
ENDBRANCH   5   8
ENDBRANCH   3   5
BRANCH   2  15
HETATM   15  S2  UNL     1      24.930   0.796  52.558  1.00  0.00    -0.027 SA
BRANCH  15  16
HETATM   16  C8  UNL     1      26.606   0.974  53.130  1.00  0.00     0.027 A 
HETATM   17  C9  UNL     1      27.339  -0.213  53.030  1.00  0.00     0.022 A 
HETATM   18  C10 UNL     1      28.674  -0.211  53.447  1.00  0.00     0.021 A 
HETATM   19  C11 UNL     1      29.168   0.995  53.935  1.00  0.00     0.116 A 
HETATM   20  N2  UNL     1      28.460   2.145  54.033  1.00  0.00    -0.272 NA
HETATM   21  C12 UNL     1      27.184   2.122  53.628  1.00  0.00     0.135 A 
ENDBRANCH  15  16
ENDBRANCH   2  15
TORSDOF 4
ENDMDL
MODEL 4
REMARK VINA RESULT:      -6.5      4.187      5.977
REMARK  4 active torsions:
REMARK  status: ('A' for Active; 'I' for Inactive)
REMARK       I    between atoms: C1_2  and  N1_3 
REMARK    1  A    between atoms: C1_2  and  S2_14 
REMARK    2  A    between atoms: N1_3  and  S1_4 
REMARK    3  A    between atoms: S1_4  and  C2_7 
REMARK    4  A    between atoms: S2_14  and  C8_15 
ROOT
HETATM    1  O1  UNL     1      24.462   4.265  50.929  1.00  0.00    -0.259 OA
HETATM    2  C1  UNL     1      24.735   3.046  51.144  1.00  0.00     0.298 C 
HETATM    3  N1  UNL     1      23.727   2.075  51.497  1.00  0.00    -0.241 N 
HETATM    4  H1  UNL     1      24.050   1.101  51.652  1.00  0.00     0.182 HD
ENDROOT
BRANCH   3   5
HETATM    5  S1  UNL     1      22.132   2.739  51.594  1.00  0.00     0.265 S 
HETATM    6  O2  UNL     1      21.687   3.076  50.194  1.00  0.00    -0.200 OA
HETATM    7  O3  UNL     1      22.106   3.963  52.425  1.00  0.00    -0.200 OA
BRANCH   5   8
HETATM    8  C2  UNL     1      21.053   1.496  52.177  1.00  0.00     0.080 A 
HETATM    9  C3  UNL     1      19.999   1.199  51.351  1.00  0.00     0.027 A 
HETATM   10  C4  UNL     1      19.062   0.232  51.687  1.00  0.00     0.020 A 
HETATM   11  C5  UNL     1      19.205  -0.447  52.896  1.00  0.00     0.011 A 
HETATM   12 BR1  UNL     1      17.925  -1.790  53.387  1.00  0.00    -0.051 Br
HETATM   13  C6  UNL     1      20.272  -0.158  53.748  1.00  0.00     0.020 A 
HETATM   14  C7  UNL     1      21.169   0.815  53.356  1.00  0.00     0.027 A 
ENDBRANCH   5   8
ENDBRANCH   3   5
BRANCH   2  15
HETATM   15  S2  UNL     1      26.469   2.598  50.981  1.00  0.00    -0.027 SA
BRANCH  15  16
HETATM   16  C8  UNL     1      27.004   1.628  52.373  1.00  0.00     0.027 A 
HETATM   17  C9  UNL     1      26.862   0.252  52.160  1.00  0.00     0.022 A 
HETATM   18  C10 UNL     1      27.247  -0.625  53.179  1.00  0.00     0.021 A 
HETATM   19  C11 UNL     1      27.749  -0.044  54.340  1.00  0.00     0.116 A 
HETATM   20  N2  UNL     1      27.887   1.286  54.548  1.00  0.00    -0.272 NA
HETATM   21  C12 UNL     1      27.513   2.110  53.561  1.00  0.00     0.135 A 
ENDBRANCH  15  16
ENDBRANCH   2  15
TORSDOF 4
ENDMDL
MODEL 5
REMARK VINA RESULT:      -6.5      3.285      6.664
REMARK  4 active torsions:
REMARK  status: ('A' for Active; 'I' for Inactive)
REMARK       I    between atoms: C1_2  and  N1_3 
REMARK    1  A    between atoms: C1_2  and  S2_14 
REMARK    2  A    between atoms: N1_3  and  S1_4 
REMARK    3  A    between atoms: S1_4  and  C2_7 
REMARK    4  A    between atoms: S2_14  and  C8_15 
ROOT
HETATM    1  O1  UNL     1      22.684   4.665  51.013  1.00  0.00    -0.259 OA
HETATM    2  C1  UNL     1      23.841   5.107  51.285  1.00  0.00     0.298 C 
HETATM    3  N1  UNL     1      24.899   4.260  51.783  1.00  0.00    -0.241 N 
HETATM    4  H1  UNL     1      25.811   4.714  51.975  1.00  0.00     0.182 HD
ENDROOT
BRANCH   3   5
HETATM    5  S1  UNL     1      24.430   2.603  51.965  1.00  0.00     0.265 S 
HETATM    6  O2  UNL     1      23.983   2.100  50.617  1.00  0.00    -0.200 OA
HETATM    7  O3  UNL     1      23.321   2.460  52.934  1.00  0.00    -0.200 OA
BRANCH   5   8
HETATM    8  C2  UNL     1      25.843   1.676  52.403  1.00  0.00     0.080 A 
HETATM    9  C3  UNL     1      25.702   0.315  52.314  1.00  0.00     0.027 A 
HETATM   10  C4  UNL     1      26.743  -0.546  52.632  1.00  0.00     0.020 A 
HETATM   11  C5  UNL     1      27.957  -0.003  53.050  1.00  0.00     0.011 A 
HETATM   12 BR1  UNL     1      29.414  -1.170  53.495  1.00  0.00    -0.051 Br
HETATM   13  C6  UNL     1      28.118   1.380  53.145  1.00  0.00     0.020 A 
HETATM   14  C7  UNL     1      27.044   2.181  52.815  1.00  0.00     0.027 A 
ENDBRANCH   5   8
ENDBRANCH   3   5
BRANCH   2  15
HETATM   15  S2  UNL     1      24.085   6.867  51.012  1.00  0.00    -0.027 SA
BRANCH  15  16
HETATM   16  C8  UNL     1      25.571   7.162  50.077  1.00  0.00     0.027 A 
HETATM   17  C9  UNL     1      25.884   6.107  49.213  1.00  0.00     0.022 A 
HETATM   18  C10 UNL     1      27.030   6.211  48.420  1.00  0.00     0.021 A 
HETATM   19  C11 UNL     1      27.776   7.379  48.558  1.00  0.00     0.116 A 
HETATM   20  N2  UNL     1      27.475   8.401  49.393  1.00  0.00    -0.272 NA
HETATM   21  C12 UNL     1      26.373   8.281  50.145  1.00  0.00     0.135 A 
ENDBRANCH  15  16
ENDBRANCH   2  15
TORSDOF 4
ENDMDL
MODEL 6
REMARK VINA RESULT:      -6.4      2.271      2.680
REMARK  4 active torsions:
REMARK  status: ('A' for Active; 'I' for Inactive)
REMARK       I    between atoms: C1_2  and  N1_3 
REMARK    1  A    between atoms: C1_2  and  S2_14 
REMARK    2  A    between atoms: N1_3  and  S1_4 
REMARK    3  A    between atoms: S1_4  and  C2_7 
REMARK    4  A    between atoms: S2_14  and  C8_15 
ROOT
HETATM    1  O1  UNL     1      26.037   2.008  51.264  1.00  0.00    -0.259 OA
HETATM    2  C1  UNL     1      25.807   2.174  52.500  1.00  0.00     0.298 C 
HETATM    3  N1  UNL     1      24.498   2.511  53.008  1.00  0.00    -0.241 N 
HETATM    4  H1  UNL     1      24.410   2.626  54.035  1.00  0.00     0.182 HD
ENDROOT
BRANCH   3   5
HETATM    5  S1  UNL     1      23.295   2.660  51.772  1.00  0.00     0.265 S 
HETATM    6  O2  UNL     1      21.961   2.848  52.447  1.00  0.00    -0.200 OA
HETATM    7  O3  UNL     1      23.247   1.453  50.918  1.00  0.00    -0.200 OA
BRANCH   5   8
HETATM    8  C2  UNL     1      23.611   4.121  50.870  1.00  0.00     0.080 A 
HETATM    9  C3  UNL     1      23.634   3.976  49.506  1.00  0.00     0.027 A 
HETATM   10  C4  UNL     1      23.873   5.052  48.663  1.00  0.00     0.020 A 
HETATM   11  C5  UNL     1      24.094   6.307  49.228  1.00  0.00     0.011 A 
HETATM   12 BR1  UNL     1      24.428   7.814  48.087  1.00  0.00    -0.051 Br
HETATM   13  C6  UNL     1      24.074   6.473  50.613  1.00  0.00     0.020 A 
HETATM   14  C7  UNL     1      23.831   5.363  51.395  1.00  0.00     0.027 A 
ENDBRANCH   5   8
ENDBRANCH   3   5
BRANCH   2  15
HETATM   15  S2  UNL     1      27.222   1.964  53.589  1.00  0.00    -0.027 SA
BRANCH  15  16
HETATM   16  C8  UNL     1      27.893   0.322  53.444  1.00  0.00     0.027 A 
HETATM   17  C9  UNL     1      29.270   0.278  53.685  1.00  0.00     0.022 A 
HETATM   18  C10 UNL     1      29.924  -0.955  53.603  1.00  0.00     0.021 A 
HETATM   19  C11 UNL     1      29.133  -2.055  53.284  1.00  0.00     0.116 A 
HETATM   20  N2  UNL     1      27.800  -2.015  53.050  1.00  0.00    -0.272 NA
HETATM   21  C12 UNL     1      27.193  -0.824  53.134  1.00  0.00     0.135 A 
ENDBRANCH  15  16
ENDBRANCH   2  15
TORSDOF 4
ENDMDL
MODEL 7
REMARK VINA RESULT:      -6.0      3.881      6.943
REMARK  4 active torsions:
REMARK  status: ('A' for Active; 'I' for Inactive)
REMARK       I    between atoms: C1_2  and  N1_3 
REMARK    1  A    between atoms: C1_2  and  S2_14 
REMARK    2  A    between atoms: N1_3  and  S1_4 
REMARK    3  A    between atoms: S1_4  and  C2_7 
REMARK    4  A    between atoms: S2_14  and  C8_15 
ROOT
HETATM    1  O1  UNL     1      24.667   6.890  48.467  1.00  0.00    -0.259 OA
HETATM    2  C1  UNL     1      25.745   6.722  49.114  1.00  0.00     0.298 C 
HETATM    3  N1  UNL     1      25.903   5.683  50.103  1.00  0.00    -0.241 N 
HETATM    4  H1  UNL     1      26.824   5.626  50.578  1.00  0.00     0.182 HD
ENDROOT
BRANCH   3   5
HETATM    5  S1  UNL     1      24.491   4.705  50.310  1.00  0.00     0.265 S 
HETATM    6  O2  UNL     1      24.029   4.266  48.944  1.00  0.00    -0.200 OA
HETATM    7  O3  UNL     1      23.405   5.458  50.976  1.00  0.00    -0.200 OA
BRANCH   5   8
HETATM    8  C2  UNL     1      24.945   3.257  51.175  1.00  0.00     0.080 A 
HETATM    9  C3  UNL     1      26.171   2.738  50.846  1.00  0.00     0.027 A 
HETATM   10  C4  UNL     1      26.661   1.590  51.453  1.00  0.00     0.020 A 
HETATM   11  C5  UNL     1      25.880   0.958  52.419  1.00  0.00     0.011 A 
HETATM   12 BR1  UNL     1      26.532  -0.631  53.275  1.00  0.00    -0.051 Br
HETATM   13  C6  UNL     1      24.630   1.474  52.766  1.00  0.00     0.020 A 
HETATM   14  C7  UNL     1      24.200   2.618  52.125  1.00  0.00     0.027 A 
ENDBRANCH   5   8
ENDBRANCH   3   5
BRANCH   2  15
HETATM   15  S2  UNL     1      27.074   7.868  48.720  1.00  0.00    -0.027 SA
BRANCH  15  16
HETATM   16  C8  UNL     1      28.607   6.997  48.474  1.00  0.00     0.027 A 
HETATM   17  C9  UNL     1      29.725   7.831  48.578  1.00  0.00     0.022 A 
HETATM   18  C10 UNL     1      30.994   7.271  48.405  1.00  0.00     0.021 A 
HETATM   19  C11 UNL     1      31.039   5.906  48.141  1.00  0.00     0.116 A 
HETATM   20  N2  UNL     1      29.958   5.096  48.040  1.00  0.00    -0.272 NA
HETATM   21  C12 UNL     1      28.751   5.652  48.208  1.00  0.00     0.135 A 
ENDBRANCH  15  16
ENDBRANCH   2  15
TORSDOF 4
ENDMDL
MODEL 8
REMARK VINA RESULT:      -6.0      3.118      3.597
REMARK  4 active torsions:
REMARK  status: ('A' for Active; 'I' for Inactive)
REMARK       I    between atoms: C1_2  and  N1_3 
REMARK    1  A    between atoms: C1_2  and  S2_14 
REMARK    2  A    between atoms: N1_3  and  S1_4 
REMARK    3  A    between atoms: S1_4  and  C2_7 
REMARK    4  A    between atoms: S2_14  and  C8_15 
ROOT
HETATM    1  O1  UNL     1      20.596   3.763  52.326  1.00  0.00    -0.259 OA
HETATM    2  C1  UNL     1      21.305   2.820  51.862  1.00  0.00     0.298 C 
HETATM    3  N1  UNL     1      22.571   3.051  51.208  1.00  0.00    -0.241 N 
HETATM    4  H1  UNL     1      23.079   2.215  50.862  1.00  0.00     0.182 HD
ENDROOT
BRANCH   3   5
HETATM    5  S1  UNL     1      23.012   4.723  51.126  1.00  0.00     0.265 S 
HETATM    6  O2  UNL     1      23.201   5.220  52.536  1.00  0.00    -0.200 OA
HETATM    7  O3  UNL     1      21.963   5.526  50.459  1.00  0.00    -0.200 OA
BRANCH   5   8
HETATM    8  C2  UNL     1      24.566   4.845  50.339  1.00  0.00     0.080 A 
HETATM    9  C3  UNL     1      24.937   6.111  49.964  1.00  0.00     0.027 A 
HETATM   10  C4  UNL     1      26.146   6.356  49.329  1.00  0.00     0.020 A 
HETATM   11  C5  UNL     1      26.996   5.283  49.071  1.00  0.00     0.011 A 
HETATM   12 BR1  UNL     1      28.675   5.593  48.194  1.00  0.00    -0.051 Br
HETATM   13  C6  UNL     1      26.635   3.988  49.446  1.00  0.00     0.020 A 
HETATM   14  C7  UNL     1      25.420   3.811  50.074  1.00  0.00     0.027 A 
ENDBRANCH   5   8
ENDBRANCH   3   5
BRANCH   2  15
HETATM   15  S2  UNL     1      20.632   1.166  52.070  1.00  0.00    -0.027 SA
BRANCH  15  16
HETATM   16  C8  UNL     1      21.659   0.198  53.155  1.00  0.00     0.027 A 
HETATM   17  C9  UNL     1      20.917  -0.563  54.064  1.00  0.00     0.022 A 
HETATM   18  C10 UNL     1      21.603  -1.371  54.976  1.00  0.00     0.021 A 
HETATM   19  C11 UNL     1      22.993  -1.349  54.899  1.00  0.00     0.116 A 
HETATM   20  N2  UNL     1      23.713  -0.614  54.019  1.00  0.00    -0.272 NA
HETATM   21  C12 UNL     1      23.037   0.153  53.155  1.00  0.00     0.135 A 
ENDBRANCH  15  16
ENDBRANCH   2  15
TORSDOF 4
ENDMDL
MODEL 9
REMARK VINA RESULT:      -5.9      7.195      8.809
REMARK  4 active torsions:
REMARK  status: ('A' for Active; 'I' for Inactive)
REMARK       I    between atoms: C1_2  and  N1_3 
REMARK    1  A    between atoms: C1_2  and  S2_14 
REMARK    2  A    between atoms: N1_3  and  S1_4 
REMARK    3  A    between atoms: S1_4  and  C2_7 
REMARK    4  A    between atoms: S2_14  and  C8_15 
ROOT
HETATM    1  O1  UNL     1      32.551   8.413  46.475  1.00  0.00    -0.259 OA
HETATM    2  C1  UNL     1      32.321   7.168  46.416  1.00  0.00     0.298 C 
HETATM    3  N1  UNL     1      31.080   6.585  46.870  1.00  0.00    -0.241 N 
HETATM    4  H1  UNL     1      30.986   5.556  46.780  1.00  0.00     0.182 HD
ENDROOT
BRANCH   3   5
HETATM    5  S1  UNL     1      29.958   7.747  47.492  1.00  0.00     0.265 S 
HETATM    6  O2  UNL     1      29.523   8.626  46.348  1.00  0.00    -0.200 OA
HETATM    7  O3  UNL     1      30.574   8.583  48.546  1.00  0.00    -0.200 OA
BRANCH   5   8
HETATM    8  C2  UNL     1      28.534   6.898  48.041  1.00  0.00     0.080 A 
HETATM    9  C3  UNL     1      28.704   5.557  48.274  1.00  0.00     0.027 A 
HETATM   10  C4  UNL     1      27.658   4.757  48.713  1.00  0.00     0.020 A 
HETATM   11  C5  UNL     1      26.410   5.342  48.919  1.00  0.00     0.011 A 
HETATM   12 BR1  UNL     1      24.946   4.260  49.527  1.00  0.00    -0.051 Br
HETATM   13  C6  UNL     1      26.220   6.705  48.687  1.00  0.00     0.020 A 
HETATM   14  C7  UNL     1      27.300   7.444  48.251  1.00  0.00     0.027 A 
ENDBRANCH   5   8
ENDBRANCH   3   5
BRANCH   2  15
HETATM   15  S2  UNL     1      33.645   6.164  45.728  1.00  0.00    -0.027 SA
BRANCH  15  16
HETATM   16  C8  UNL     1      33.802   4.630  46.616  1.00  0.00     0.027 A 
HETATM   17  C9  UNL     1      32.856   3.678  46.222  1.00  0.00     0.022 A 
HETATM   18  C10 UNL     1      32.870   2.426  46.844  1.00  0.00     0.021 A 
HETATM   19  C11 UNL     1      33.842   2.229  47.820  1.00  0.00     0.116 A 
HETATM   20  N2  UNL     1      34.759   3.149  48.203  1.00  0.00    -0.272 NA
HETATM   21  C12 UNL     1      34.729   4.343  47.596  1.00  0.00     0.135 A 
ENDBRANCH  15  16
ENDBRANCH   2  15
TORSDOF 4
ENDMDL
