MODEL 1
REMARK VINA RESULT:      -7.6      0.000      0.000
REMARK  1 active torsions:
REMARK  status: ('A' for Active; 'I' for Inactive)
REMARK    1  A    between atoms: N1_1  and  C1_2 
ROOT
HETATM    1  C1  UNL     1      23.721   5.120  52.045  1.00  0.00     0.033 C 
HETATM    2  C2  UNL     1      23.611   3.980  52.788  1.00  0.00     0.117 C 
HETATM    3  C3  UNL     1      24.451   2.924  52.367  1.00  0.00     0.009 C 
HETATM    4  C4  UNL     1      24.790   1.687  52.558  1.00  0.00     0.033 C 
HETATM    5  N2  UNL     1      25.449   0.447  52.429  1.00  0.00    -0.374 N 
HETATM    6  C5  UNL     1      24.895  -0.575  53.290  1.00  0.00     0.267 C 
HETATM    7  N3  UNL     1      23.609  -0.018  53.650  1.00  0.00    -0.270 N 
HETATM    8  N4  UNL     1      22.759  -0.841  54.398  1.00  0.00    -0.168 NA
HETATM    9  C6  UNL     1      21.447  -0.870  54.464  1.00  0.00     0.256 C 
HETATM   10  N5  UNL     1      20.329  -0.189  53.901  1.00  0.00    -0.234 NA
HETATM   11  C7  UNL     1      20.234   0.555  52.854  1.00  0.00     0.234 C 
HETATM   12  N6  UNL     1      21.230   0.958  51.884  1.00  0.00    -0.247 NA
HETATM   13  C8  UNL     1      22.494   1.263  51.940  1.00  0.00     0.052 C 
HETATM   14  C9  UNL     1      22.665   1.541  50.472  1.00  0.00     0.072 C 
HETATM   15  C10 UNL     1      22.924   2.481  49.523  1.00  0.00    -0.015 C 
HETATM   16  C11 UNL     1      23.232   3.704  48.716  1.00  0.00    -0.003 C 
HETATM   17  C12 UNL     1      23.506   4.964  48.940  1.00  0.00    -0.001 C 
HETATM   18  C13 UNL     1      23.757   6.169  49.700  1.00  0.00    -0.002 C 
HETATM   19  C14 UNL     1      23.836   6.262  51.063  1.00  0.00    -0.001 C 
HETATM   20  C15 UNL     1      23.474   1.308  53.144  1.00  0.00     0.203 C 
HETATM   21  H5  UNL     1      26.212   0.595  51.706  1.00  0.00     0.161 HD
ENDROOT
BRANCH   1  22
HETATM   22  N1  UNL     1      24.721   4.677  51.058  1.00  0.00    -0.422 N 
HETATM   23  H1  UNL     1      25.501   4.383  50.373  1.00  0.00     0.150 HD
HETATM   24  H2  UNL     1      25.543   4.429  50.436  1.00  0.00     0.150 HD
ENDBRANCH   1  22
TORSDOF 1
ENDMDL
MODEL 2
REMARK VINA RESULT:      -7.5      2.082      5.866
REMARK  1 active torsions:
REMARK  status: ('A' for Active; 'I' for Inactive)
REMARK    1  A    between atoms: N1_1  and  C1_2 
ROOT
HETATM    1  C1  UNL     1      21.266   0.024  53.976  1.00  0.00     0.033 C 
HETATM    2  C2  UNL     1      20.828   0.870  52.997  1.00  0.00     0.117 C 
HETATM    3  C3  UNL     1      21.250   0.524  51.693  1.00  0.00     0.009 C 
HETATM    4  C4  UNL     1      21.249   0.869  50.443  1.00  0.00     0.033 C 
HETATM    5  N2  UNL     1      21.477   0.850  49.051  1.00  0.00    -0.374 N 
HETATM    6  C5  UNL     1      21.008   2.047  48.389  1.00  0.00     0.267 C 
HETATM    7  N3  UNL     1      20.855   2.974  49.490  1.00  0.00    -0.270 N 
HETATM    8  N4  UNL     1      20.522   4.292  49.156  1.00  0.00    -0.168 NA
HETATM    9  C6  UNL     1      20.778   5.418  49.782  1.00  0.00     0.256 C 
HETATM   10  N5  UNL     1      21.433   5.860  50.967  1.00  0.00    -0.234 NA
HETATM   11  C7  UNL     1      22.291   5.273  51.727  1.00  0.00     0.234 C 
HETATM   12  N6  UNL     1      22.889   3.957  51.641  1.00  0.00    -0.247 NA
HETATM   13  C8  UNL     1      22.471   2.782  51.267  1.00  0.00     0.052 C 
HETATM   14  C9  UNL     1      23.764   2.056  51.519  1.00  0.00     0.072 C 
HETATM   15  C10 UNL     1      24.404   1.114  52.264  1.00  0.00    -0.015 C 
HETATM   16  C11 UNL     1      24.838   0.046  53.219  1.00  0.00    -0.003 C 
HETATM   17  C12 UNL     1      24.294  -0.691  54.154  1.00  0.00    -0.001 C 
HETATM   18  C13 UNL     1      23.260  -1.216  55.018  1.00  0.00    -0.002 C 
HETATM   19  C14 UNL     1      21.929  -0.900  54.969  1.00  0.00    -0.001 C 
HETATM   20  C15 UNL     1      21.087   2.321  50.735  1.00  0.00     0.203 C 
HETATM   21  H5  UNL     1      21.949  -0.079  48.845  1.00  0.00     0.161 HD
ENDROOT
BRANCH   1  22
HETATM   22  N1  UNL     1      22.057  -0.912  53.158  1.00  0.00    -0.422 N 
HETATM   23  H1  UNL     1      22.614  -1.648  52.598  1.00  0.00     0.150 HD
HETATM   24  H2  UNL     1      22.573  -1.694  52.662  1.00  0.00     0.150 HD
ENDBRANCH   1  22
TORSDOF 1
ENDMDL
MODEL 3
REMARK VINA RESULT:      -7.5      2.213      5.285
REMARK  1 active torsions:
REMARK  status: ('A' for Active; 'I' for Inactive)
REMARK    1  A    between atoms: N1_1  and  C1_2 
ROOT
HETATM    1  C1  UNL     1      26.453   1.390  51.837  1.00  0.00     0.033 C 
HETATM    2  C2  UNL     1      25.582   2.211  51.181  1.00  0.00     0.117 C 
HETATM    3  C3  UNL     1      24.695   2.918  52.024  1.00  0.00     0.009 C 
HETATM    4  C4  UNL     1      23.689   3.734  52.073  1.00  0.00     0.033 C 
HETATM    5  N2  UNL     1      22.669   4.569  52.573  1.00  0.00    -0.374 N 
HETATM    6  C5  UNL     1      21.829   5.117  51.530  1.00  0.00     0.267 C 
HETATM    7  N3  UNL     1      22.127   4.257  50.405  1.00  0.00    -0.270 N 
HETATM    8  N4  UNL     1      21.366   4.457  49.247  1.00  0.00    -0.168 NA
HETATM    9  C6  UNL     1      21.029   3.615  48.296  1.00  0.00     0.256 C 
HETATM   10  N5  UNL     1      21.221   2.244  47.960  1.00  0.00    -0.234 NA
HETATM   11  C7  UNL     1      21.588   1.242  48.682  1.00  0.00     0.234 C 
HETATM   12  N6  UNL     1      21.933   1.160  50.085  1.00  0.00    -0.247 NA
HETATM   13  C8  UNL     1      22.547   1.942  50.925  1.00  0.00     0.052 C 
HETATM   14  C9  UNL     1      22.429   1.032  52.117  1.00  0.00     0.072 C 
HETATM   15  C10 UNL     1      23.093   0.259  53.019  1.00  0.00    -0.015 C 
HETATM   16  C11 UNL     1      24.072  -0.498  53.861  1.00  0.00    -0.003 C 
HETATM   17  C12 UNL     1      25.371  -0.645  53.934  1.00  0.00    -0.001 C 
HETATM   18  C13 UNL     1      26.765  -0.452  53.601  1.00  0.00    -0.002 C 
HETATM   19  C14 UNL     1      27.259   0.422  52.670  1.00  0.00    -0.001 C 
HETATM   20  C15 UNL     1      23.176   3.348  50.728  1.00  0.00     0.203 C 
HETATM   21  H5  UNL     1      22.791   4.580  53.628  1.00  0.00     0.161 HD
ENDROOT
BRANCH   1  22
HETATM   22  N1  UNL     1      26.012   1.619  53.224  1.00  0.00    -0.422 N 
HETATM   23  H1  UNL     1      25.678   1.852  54.224  1.00  0.00     0.150 HD
HETATM   24  H2  UNL     1      25.673   1.929  54.180  1.00  0.00     0.150 HD
ENDBRANCH   1  22
TORSDOF 1
ENDMDL
MODEL 4
REMARK VINA RESULT:      -7.4      1.997      3.209
REMARK  1 active torsions:
REMARK  status: ('A' for Active; 'I' for Inactive)
REMARK    1  A    between atoms: N1_1  and  C1_2 
ROOT
HETATM    1  C1  UNL     1      23.401   6.985  50.864  1.00  0.00     0.033 C 
HETATM    2  C2  UNL     1      22.849   5.773  51.169  1.00  0.00     0.117 C 
HETATM    3  C3  UNL     1      23.716   4.892  51.855  1.00  0.00     0.009 C 
HETATM    4  C4  UNL     1      23.856   3.702  52.351  1.00  0.00     0.033 C 
HETATM    5  N2  UNL     1      24.414   2.585  53.007  1.00  0.00    -0.374 N 
HETATM    6  C5  UNL     1      23.564   1.416  52.945  1.00  0.00     0.267 C 
HETATM    7  N3  UNL     1      22.650   1.750  51.874  1.00  0.00    -0.270 N 
HETATM    8  N4  UNL     1      21.757   0.747  51.479  1.00  0.00    -0.168 NA
HETATM    9  C6  UNL     1      21.186   0.527  50.316  1.00  0.00     0.256 C 
HETATM   10  N5  UNL     1      21.158   1.096  49.011  1.00  0.00    -0.234 NA
HETATM   11  C7  UNL     1      21.963   1.919  48.431  1.00  0.00     0.234 C 
HETATM   12  N6  UNL     1      23.176   2.551  48.905  1.00  0.00    -0.247 NA
HETATM   13  C8  UNL     1      23.577   3.023  50.050  1.00  0.00     0.052 C 
HETATM   14  C9  UNL     1      24.937   3.464  49.582  1.00  0.00     0.072 C 
HETATM   15  C10 UNL     1      25.763   4.519  49.347  1.00  0.00    -0.015 C 
HETATM   16  C11 UNL     1      26.438   5.847  49.189  1.00  0.00    -0.003 C 
HETATM   17  C12 UNL     1      26.157   7.105  49.418  1.00  0.00    -0.001 C 
HETATM   18  C13 UNL     1      25.391   8.252  49.848  1.00  0.00    -0.002 C 
HETATM   19  C14 UNL     1      24.170   8.222  50.467  1.00  0.00    -0.001 C 
HETATM   20  C15 UNL     1      22.862   3.086  51.427  1.00  0.00     0.203 C 
HETATM   21  H5  UNL     1      25.348   2.909  53.393  1.00  0.00     0.161 HD
ENDROOT
BRANCH   1  22
HETATM   22  N1  UNL     1      24.754   6.785  51.410  1.00  0.00    -0.422 N 
HETATM   23  H1  UNL     1      25.718   6.601  51.859  1.00  0.00     0.150 HD
HETATM   24  H2  UNL     1      25.661   6.559  51.911  1.00  0.00     0.150 HD
ENDBRANCH   1  22
TORSDOF 1
ENDMDL
MODEL 5
REMARK VINA RESULT:      -7.1      8.924     11.507
REMARK  1 active torsions:
REMARK  status: ('A' for Active; 'I' for Inactive)
REMARK    1  A    between atoms: N1_1  and  C1_2 
ROOT
HETATM    1  C1  UNL     1      33.199   5.601  44.715  1.00  0.00     0.033 C 
HETATM    2  C2  UNL     1      32.241   6.386  45.291  1.00  0.00     0.117 C 
HETATM    3  C3  UNL     1      32.695   7.153  46.388  1.00  0.00     0.009 C 
HETATM    4  C4  UNL     1      32.355   7.979  47.327  1.00  0.00     0.033 C 
HETATM    5  N2  UNL     1      32.435   8.853  48.431  1.00  0.00    -0.374 N 
HETATM    6  C5  UNL     1      31.140   9.340  48.856  1.00  0.00     0.267 C 
HETATM    7  N3  UNL     1      30.232   8.407  48.224  1.00  0.00    -0.270 N 
HETATM    8  N4  UNL     1      28.877   8.538  48.547  1.00  0.00    -0.168 NA
HETATM    9  C6  UNL     1      27.918   7.640  48.570  1.00  0.00     0.256 C 
HETATM   10  N5  UNL     1      27.746   6.249  48.318  1.00  0.00    -0.234 NA
HETATM   11  C7  UNL     1      28.605   5.292  48.243  1.00  0.00     0.234 C 
HETATM   12  N6  UNL     1      30.045   5.297  48.391  1.00  0.00    -0.247 NA
HETATM   13  C8  UNL     1      30.996   6.126  48.071  1.00  0.00     0.052 C 
HETATM   14  C9  UNL     1      32.130   5.296  48.609  1.00  0.00     0.072 C 
HETATM   15  C10 UNL     1      33.245   4.577  48.308  1.00  0.00    -0.015 C 
HETATM   16  C11 UNL     1      34.410   3.867  47.691  1.00  0.00    -0.003 C 
HETATM   17  C12 UNL     1      34.923   3.714  46.496  1.00  0.00    -0.001 C 
HETATM   18  C13 UNL     1      35.068   3.874  45.067  1.00  0.00    -0.002 C 
HETATM   19  C14 UNL     1      34.309   4.682  44.263  1.00  0.00    -0.001 C 
HETATM   20  C15 UNL     1      30.941   7.512  47.371  1.00  0.00     0.203 C 
HETATM   21  H5  UNL     1      33.467   8.931  48.670  1.00  0.00     0.161 HD
ENDROOT
BRANCH   1  22
HETATM   22  N1  UNL     1      34.341   5.923  45.588  1.00  0.00    -0.422 N 
HETATM   23  H1  UNL     1      35.151   6.117  46.274  1.00  0.00     0.150 HD
HETATM   24  H2  UNL     1      35.097   6.062  46.318  1.00  0.00     0.150 HD
ENDBRANCH   1  22
TORSDOF 1
ENDMDL
MODEL 6
REMARK VINA RESULT:      -7.1      2.019      6.297
REMARK  1 active torsions:
REMARK  status: ('A' for Active; 'I' for Inactive)
REMARK    1  A    between atoms: N1_1  and  C1_2 
ROOT
HETATM    1  C1  UNL     1      23.416   2.163  52.942  1.00  0.00     0.033 C 
HETATM    2  C2  UNL     1      23.864   3.418  52.644  1.00  0.00     0.117 C 
HETATM    3  C3  UNL     1      22.869   4.292  52.148  1.00  0.00     0.009 C 
HETATM    4  C4  UNL     1      22.626   5.472  51.671  1.00  0.00     0.033 C 
HETATM    5  N2  UNL     1      21.936   6.587  51.151  1.00  0.00    -0.374 N 
HETATM    6  C5  UNL     1      22.819   7.671  50.781  1.00  0.00     0.267 C 
HETATM    7  N3  UNL     1      24.108   7.016  50.714  1.00  0.00    -0.270 N 
HETATM    8  N4  UNL     1      25.179   7.788  50.251  1.00  0.00    -0.168 NA
HETATM    9  C6  UNL     1      26.279   7.429  49.629  1.00  0.00     0.256 C 
HETATM   10  N5  UNL     1      26.902   6.240  49.153  1.00  0.00    -0.234 NA
HETATM   11  C7  UNL     1      26.419   5.070  48.918  1.00  0.00     0.234 C 
HETATM   12  N6  UNL     1      25.073   4.554  49.058  1.00  0.00    -0.247 NA
HETATM   13  C8  UNL     1      24.100   4.747  49.901  1.00  0.00     0.052 C 
HETATM   14  C9  UNL     1      23.126   3.804  49.251  1.00  0.00     0.072 C 
HETATM   15  C10 UNL     1      22.424   2.644  49.372  1.00  0.00    -0.015 C 
HETATM   16  C11 UNL     1      21.784   1.353  49.778  1.00  0.00    -0.003 C 
HETATM   17  C12 UNL     1      21.774   0.569  50.827  1.00  0.00    -0.001 C 
HETATM   18  C13 UNL     1      22.091   0.106  52.160  1.00  0.00    -0.002 C 
HETATM   19  C14 UNL     1      22.826   0.781  53.097  1.00  0.00    -0.001 C 
HETATM   20  C15 UNL     1      24.009   5.663  51.152  1.00  0.00     0.203 C 
HETATM   21  H5  UNL     1      20.906   6.330  51.172  1.00  0.00     0.161 HD
ENDROOT
BRANCH   1  22
HETATM   22  N1  UNL     1      22.002   2.305  52.553  1.00  0.00    -0.422 N 
HETATM   23  H1  UNL     1      20.988   2.430  52.206  1.00  0.00     0.150 HD
HETATM   24  H2  UNL     1      21.038   2.455  52.138  1.00  0.00     0.150 HD
ENDBRANCH   1  22
TORSDOF 1
ENDMDL
MODEL 7
REMARK VINA RESULT:      -7.0      3.872      5.564
REMARK  1 active torsions:
REMARK  status: ('A' for Active; 'I' for Inactive)
REMARK    1  A    between atoms: N1_1  and  C1_2 
ROOT
HETATM    1  C1  UNL     1      25.627   8.946  49.858  1.00  0.00     0.033 C 
HETATM    2  C2  UNL     1      24.462   8.328  50.213  1.00  0.00     0.117 C 
HETATM    3  C3  UNL     1      24.630   7.193  51.038  1.00  0.00     0.009 C 
HETATM    4  C4  UNL     1      24.033   6.211  51.639  1.00  0.00     0.033 C 
HETATM    5  N2  UNL     1      23.813   5.063  52.427  1.00  0.00    -0.374 N 
HETATM    6  C5  UNL     1      22.439   4.611  52.391  1.00  0.00     0.267 C 
HETATM    7  N3  UNL     1      21.917   5.291  51.224  1.00  0.00    -0.270 N 
HETATM    8  N4  UNL     1      20.612   4.960  50.840  1.00  0.00    -0.168 NA
HETATM    9  C6  UNL     1      20.044   4.983  49.656  1.00  0.00     0.256 C 
HETATM   10  N5  UNL     1      20.382   5.308  48.311  1.00  0.00    -0.234 NA
HETATM   11  C7  UNL     1      21.527   5.433  47.734  1.00  0.00     0.234 C 
HETATM   12  N6  UNL     1      22.870   5.288  48.254  1.00  0.00    -0.247 NA
HETATM   13  C8  UNL     1      23.451   5.564  49.386  1.00  0.00     0.052 C 
HETATM   14  C9  UNL     1      24.818   5.072  48.997  1.00  0.00     0.072 C 
HETATM   15  C10 UNL     1      26.112   5.411  48.747  1.00  0.00    -0.015 C 
HETATM   16  C11 UNL     1      27.442   6.066  48.537  1.00  0.00    -0.003 C 
HETATM   17  C12 UNL     1      27.952   7.268  48.639  1.00  0.00    -0.001 C 
HETATM   18  C13 UNL     1      28.000   8.687  48.909  1.00  0.00    -0.002 C 
HETATM   19  C14 UNL     1      26.985   9.446  49.426  1.00  0.00    -0.001 C 
HETATM   20  C15 UNL     1      22.885   6.190  50.689  1.00  0.00     0.203 C 
HETATM   21  H5  UNL     1      24.751   4.822  52.862  1.00  0.00     0.161 HD
ENDROOT
BRANCH   1  22
HETATM   22  N1  UNL     1      26.592   8.058  50.528  1.00  0.00    -0.422 N 
HETATM   23  H1  UNL     1      27.325   7.462  51.050  1.00  0.00     0.150 HD
HETATM   24  H2  UNL     1      27.342   7.545  51.076  1.00  0.00     0.150 HD
ENDBRANCH   1  22
TORSDOF 1
ENDMDL
MODEL 8
REMARK VINA RESULT:      -6.8      1.271      3.531
REMARK  1 active torsions:
REMARK  status: ('A' for Active; 'I' for Inactive)
REMARK    1  A    between atoms: N1_1  and  C1_2 
ROOT
HETATM    1  C1  UNL     1      23.043   3.332  48.882  1.00  0.00     0.033 C 
HETATM    2  C2  UNL     1      23.225   2.289  49.744  1.00  0.00     0.117 C 
HETATM    3  C3  UNL     1      22.309   2.251  50.819  1.00  0.00     0.009 C 
HETATM    4  C4  UNL     1      21.968   1.643  51.912  1.00  0.00     0.033 C 
HETATM    5  N2  UNL     1      21.267   1.295  53.085  1.00  0.00    -0.374 N 
HETATM    6  C5  UNL     1      21.908   0.233  53.829  1.00  0.00     0.267 C 
HETATM    7  N3  UNL     1      23.245   0.226  53.275  1.00  0.00    -0.270 N 
HETATM    8  N4  UNL     1      24.169  -0.631  53.884  1.00  0.00    -0.168 NA
HETATM    9  C6  UNL     1      25.476  -0.541  53.980  1.00  0.00     0.256 C 
HETATM   10  N5  UNL     1      26.522   0.339  53.581  1.00  0.00    -0.234 NA
HETATM   11  C7  UNL     1      26.491   1.570  53.202  1.00  0.00     0.234 C 
HETATM   12  N6  UNL     1      25.382   2.488  53.050  1.00  0.00    -0.247 NA
HETATM   13  C8  UNL     1      24.145   2.374  52.658  1.00  0.00     0.052 C 
HETATM   14  C9  UNL     1      23.781   3.823  52.833  1.00  0.00     0.072 C 
HETATM   15  C10 UNL     1      23.418   4.979  52.215  1.00  0.00    -0.015 C 
HETATM   16  C11 UNL     1      23.033   6.084  51.280  1.00  0.00    -0.003 C 
HETATM   17  C12 UNL     1      22.824   6.233  49.996  1.00  0.00    -0.001 C 
HETATM   18  C13 UNL     1      22.711   5.864  48.603  1.00  0.00    -0.002 C 
HETATM   19  C14 UNL     1      22.823   4.600  48.091  1.00  0.00    -0.001 C 
HETATM   20  C15 UNL     1      23.342   1.134  52.181  1.00  0.00     0.203 C 
HETATM   21  H5  UNL     1      20.415   1.929  53.115  1.00  0.00     0.161 HD
ENDROOT
BRANCH   1  22
HETATM   22  N1  UNL     1      21.906   4.000  49.538  1.00  0.00    -0.422 N 
HETATM   23  H1  UNL     1      21.079   4.540  49.974  1.00  0.00     0.150 HD
HETATM   24  H2  UNL     1      21.109   4.592  49.909  1.00  0.00     0.150 HD
ENDBRANCH   1  22
TORSDOF 1
ENDMDL
MODEL 9
REMARK VINA RESULT:      -6.8      7.567     10.518
REMARK  1 active torsions:
REMARK  status: ('A' for Active; 'I' for Inactive)
REMARK    1  A    between atoms: N1_1  and  C1_2 
ROOT
HETATM    1  C1  UNL     1      28.245   9.111  49.639  1.00  0.00     0.033 C 
HETATM    2  C2  UNL     1      29.456   8.978  49.021  1.00  0.00     0.117 C 
HETATM    3  C3  UNL     1      29.382   8.583  47.666  1.00  0.00     0.009 C 
HETATM    4  C4  UNL     1      30.059   8.254  46.611  1.00  0.00     0.033 C 
HETATM    5  N2  UNL     1      30.373   7.870  45.291  1.00  0.00    -0.374 N 
HETATM    6  C5  UNL     1      31.789   7.648  45.092  1.00  0.00     0.267 C 
HETATM    7  N3  UNL     1      32.278   7.515  46.448  1.00  0.00    -0.270 N 
HETATM    8  N4  UNL     1      33.625   7.165  46.595  1.00  0.00    -0.168 NA
HETATM    9  C6  UNL     1      34.233   6.516  47.562  1.00  0.00     0.256 C 
HETATM   10  N5  UNL     1      33.915   5.902  48.807  1.00  0.00    -0.234 NA
HETATM   11  C7  UNL     1      32.786   5.518  49.294  1.00  0.00     0.234 C 
HETATM   12  N6  UNL     1      31.448   5.576  48.746  1.00  0.00    -0.247 NA
HETATM   13  C8  UNL     1      30.797   6.425  48.005  1.00  0.00     0.052 C 
HETATM   14  C9  UNL     1      29.508   5.651  47.956  1.00  0.00     0.072 C 
HETATM   15  C10 UNL     1      28.196   5.617  48.314  1.00  0.00    -0.015 C 
HETATM   16  C11 UNL     1      26.811   5.851  48.833  1.00  0.00    -0.003 C 
HETATM   17  C12 UNL     1      26.168   6.794  49.475  1.00  0.00    -0.001 C 
HETATM   18  C13 UNL     1      25.953   8.062  50.136  1.00  0.00    -0.002 C 
HETATM   19  C14 UNL     1      26.858   9.084  50.236  1.00  0.00    -0.001 C 
HETATM   20  C15 UNL     1      31.239   7.780  47.387  1.00  0.00     0.203 C 
HETATM   21  H5  UNL     1      29.450   7.846  44.766  1.00  0.00     0.161 HD
ENDROOT
BRANCH   1  22
HETATM   22  N1  UNL     1      27.357   8.725  48.528  1.00  0.00    -0.422 N 
HETATM   23  H1  UNL     1      26.673   8.501  47.723  1.00  0.00     0.150 HD
HETATM   24  H2  UNL     1      26.646   8.579  47.755  1.00  0.00     0.150 HD
ENDBRANCH   1  22
TORSDOF 1
ENDMDL
