MODEL 1
REMARK VINA RESULT:      -7.7      0.000      0.000
REMARK  8 active torsions:
REMARK  status: ('A' for Active; 'I' for Inactive)
REMARK    1  A    between atoms: C2_2  and  C3_3 
REMARK    2  A    between atoms: C3_3  and  C4_4 
REMARK    3  A    between atoms: C4_4  and  N1_5 
REMARK    4  A    between atoms: N1_5  and  C5_6 
REMARK    5  A    between atoms: N1_5  and  C12_15 
REMARK    6  A    between atoms: C5_6  and  C6_7 
REMARK    7  A    between atoms: C11_13  and  O1_14 
REMARK    8  A    between atoms: N2_17  and  C13_18 
ROOT
HETATM    1  N1  UNL     1      25.263   2.383  51.302  1.00  0.00    -0.349 N 
ENDROOT
BRANCH   1   2
HETATM    2  C4  UNL     1      25.334   3.058  50.044  1.00  0.00     0.125 C 
BRANCH   2   3
HETATM    3  C3  UNL     1      26.617   3.508  49.506  1.00  0.00     0.019 C 
BRANCH   3   4
HETATM    4  C2  UNL     1      26.792   4.884  48.984  1.00  0.00    -0.003 C 
HETATM    5  C1  UNL     1      28.145   5.225  48.463  1.00  0.00     0.005 C 
ENDBRANCH   3   4
ENDBRANCH   2   3
ENDBRANCH   1   2
BRANCH   1   6
HETATM    6  C5  UNL     1      26.313   2.357  52.266  1.00  0.00     0.166 C 
BRANCH   6   7
HETATM    7  C6  UNL     1      26.909   1.026  52.544  1.00  0.00    -0.005 A 
HETATM    8  C7  UNL     1      26.214  -0.159  52.393  1.00  0.00     0.012 A 
HETATM    9  C8  UNL     1      26.666  -1.440  52.620  1.00  0.00     0.002 A 
HETATM   10  C9  UNL     1      27.995  -1.513  53.055  1.00  0.00     0.026 A 
HETATM   11  C10 UNL     1      28.762  -0.376  53.232  1.00  0.00     0.067 A 
HETATM   12 CL1  UNL     1      30.424  -0.552  53.783  1.00  0.00    -0.081 Cl
HETATM   13  C11 UNL     1      28.237   0.898  52.982  1.00  0.00     0.095 A 
BRANCH  13  14
HETATM   14  O1  UNL     1      29.018   2.022  53.164  1.00  0.00    -0.358 OA
HETATM   15  H15 UNL     1      29.271   2.286  54.104  1.00  0.00     0.217 HD
ENDBRANCH  13  14
ENDBRANCH   6   7
ENDBRANCH   1   6
BRANCH   1  16
HETATM   16  C12 UNL     1      24.012   1.709  51.509  1.00  0.00     0.284 A 
HETATM   17  S1  UNL     1      22.758   1.969  50.447  1.00  0.00     0.145 SA
HETATM   18  N2  UNL     1      23.005   0.890  52.055  1.00  0.00     0.051 N 
HETATM   19  H16 UNL     1      23.812   0.712  52.687  1.00  0.00     0.306 HD
BRANCH  18  20
HETATM   20  C13 UNL     1      21.867   0.126  52.452  1.00  0.00     0.256 A 
HETATM   21  C14 UNL     1      21.054   0.805  53.487  1.00  0.00     0.012 A 
HETATM   22  C15 UNL     1      20.973   0.064  54.604  1.00  0.00    -0.002 A 
HETATM   23  C16 UNL     1      21.741  -1.178  54.379  1.00  0.00    -0.002 A 
HETATM   24  C17 UNL     1      22.244  -1.129  53.154  1.00  0.00     0.012 A 
ENDBRANCH  18  20
ENDBRANCH   1  16
TORSDOF 8
ENDMDL
MODEL 2
REMARK VINA RESULT:      -7.4      1.230      5.510
REMARK  8 active torsions:
REMARK  status: ('A' for Active; 'I' for Inactive)
REMARK    1  A    between atoms: C2_2  and  C3_3 
REMARK    2  A    between atoms: C3_3  and  C4_4 
REMARK    3  A    between atoms: C4_4  and  N1_5 
REMARK    4  A    between atoms: N1_5  and  C5_6 
REMARK    5  A    between atoms: N1_5  and  C12_15 
REMARK    6  A    between atoms: C5_6  and  C6_7 
REMARK    7  A    between atoms: C11_13  and  O1_14 
REMARK    8  A    between atoms: N2_17  and  C13_18 
ROOT
HETATM    1  N1  UNL     1      23.802   2.212  52.567  1.00  0.00    -0.349 N 
ENDROOT
BRANCH   1   2
HETATM    2  C4  UNL     1      22.423   1.849  52.663  1.00  0.00     0.125 C 
BRANCH   2   3
HETATM    3  C3  UNL     1      22.029   0.465  52.919  1.00  0.00     0.019 C 
BRANCH   3   4
HETATM    4  C2  UNL     1      21.681   0.004  54.284  1.00  0.00    -0.003 C 
HETATM    5  C1  UNL     1      21.774  -1.463  54.530  1.00  0.00     0.005 C 
ENDBRANCH   3   4
ENDBRANCH   2   3
ENDBRANCH   1   2
BRANCH   1   6
HETATM    6  C5  UNL     1      24.753   2.063  53.618  1.00  0.00     0.166 C 
BRANCH   6   7
HETATM    7  C6  UNL     1      25.793   1.022  53.414  1.00  0.00    -0.005 A 
HETATM    8  C7  UNL     1      25.501  -0.267  53.014  1.00  0.00     0.012 A 
HETATM    9  C8  UNL     1      26.381  -1.305  52.795  1.00  0.00     0.002 A 
HETATM   10  C9  UNL     1      27.723  -0.977  53.014  1.00  0.00     0.026 A 
HETATM   11  C10 UNL     1      28.103   0.291  53.415  1.00  0.00     0.067 A 
HETATM   12 CL1  UNL     1      29.813   0.624  53.670  1.00  0.00    -0.081 Cl
HETATM   13  C11 UNL     1      27.154   1.300  53.619  1.00  0.00     0.095 A 
BRANCH  13  14
HETATM   14  O1  UNL     1      27.551   2.560  54.020  1.00  0.00    -0.358 OA
HETATM   15  H15 UNL     1      27.173   3.361  53.537  1.00  0.00     0.217 HD
ENDBRANCH  13  14
ENDBRANCH   6   7
ENDBRANCH   1   6
BRANCH   1  16
HETATM   16  C12 UNL     1      24.151   2.762  51.287  1.00  0.00     0.284 A 
HETATM   17  S1  UNL     1      23.122   2.548  49.998  1.00  0.00     0.145 SA
HETATM   18  N2  UNL     1      24.843   3.430  50.258  1.00  0.00     0.051 N 
HETATM   19  H16 UNL     1      25.457   3.585  51.084  1.00  0.00     0.306 HD
BRANCH  18  20
HETATM   20  C13 UNL     1      25.386   4.053  49.095  1.00  0.00     0.256 A 
HETATM   21  C14 UNL     1      26.858   3.913  49.005  1.00  0.00     0.012 A 
HETATM   22  C15 UNL     1      27.460   5.114  48.982  1.00  0.00    -0.002 A 
HETATM   23  C16 UNL     1      26.407   6.148  49.056  1.00  0.00    -0.002 A 
HETATM   24  C17 UNL     1      25.235   5.532  49.121  1.00  0.00     0.012 A 
ENDBRANCH  18  20
ENDBRANCH   1  16
TORSDOF 8
ENDMDL
MODEL 3
REMARK VINA RESULT:      -7.3      1.514      5.523
REMARK  8 active torsions:
REMARK  status: ('A' for Active; 'I' for Inactive)
REMARK    1  A    between atoms: C2_2  and  C3_3 
REMARK    2  A    between atoms: C3_3  and  C4_4 
REMARK    3  A    between atoms: C4_4  and  N1_5 
REMARK    4  A    between atoms: N1_5  and  C5_6 
REMARK    5  A    between atoms: N1_5  and  C12_15 
REMARK    6  A    between atoms: C5_6  and  C6_7 
REMARK    7  A    between atoms: C11_13  and  O1_14 
REMARK    8  A    between atoms: N2_17  and  C13_18 
ROOT
HETATM    1  N1  UNL     1      24.125   0.966  52.938  1.00  0.00    -0.349 N 
ENDROOT
BRANCH   1   2
HETATM    2  C4  UNL     1      23.109  -0.038  52.891  1.00  0.00     0.125 C 
BRANCH   2   3
HETATM    3  C3  UNL     1      22.842  -0.888  54.049  1.00  0.00     0.019 C 
BRANCH   3   4
HETATM    4  C2  UNL     1      21.609  -0.724  54.855  1.00  0.00    -0.003 C 
HETATM    5  C1  UNL     1      20.670   0.347  54.416  1.00  0.00     0.005 C 
ENDBRANCH   3   4
ENDBRANCH   2   3
ENDBRANCH   1   2
BRANCH   1   6
HETATM    6  C5  UNL     1      24.955   1.224  54.067  1.00  0.00     0.166 C 
BRANCH   6   7
HETATM    7  C6  UNL     1      26.419   1.136  53.833  1.00  0.00    -0.005 A 
HETATM    8  C7  UNL     1      27.227   2.247  53.683  1.00  0.00     0.012 A 
HETATM    9  C8  UNL     1      28.587   2.281  53.465  1.00  0.00     0.002 A 
HETATM   10  C9  UNL     1      29.190   1.020  53.391  1.00  0.00     0.026 A 
HETATM   11  C10 UNL     1      28.455  -0.143  53.531  1.00  0.00     0.067 A 
HETATM   12 CL1  UNL     1      29.288  -1.690  53.425  1.00  0.00    -0.081 Cl
HETATM   13  C11 UNL     1      27.073  -0.104  53.752  1.00  0.00     0.095 A 
BRANCH  13  14
HETATM   14  O1  UNL     1      26.356  -1.275  53.888  1.00  0.00    -0.358 OA
HETATM   15  H15 UNL     1      26.725  -2.118  53.475  1.00  0.00     0.217 HD
ENDBRANCH  13  14
ENDBRANCH   6   7
ENDBRANCH   1   6
BRANCH   1  16
HETATM   16  C12 UNL     1      24.231   1.717  51.719  1.00  0.00     0.284 A 
HETATM   17  S1  UNL     1      22.920   1.809  50.699  1.00  0.00     0.145 SA
HETATM   18  N2  UNL     1      24.739   2.517  50.676  1.00  0.00     0.051 N 
HETATM   19  H16 UNL     1      25.536   2.478  51.344  1.00  0.00     0.306 HD
BRANCH  18  20
HETATM   20  C13 UNL     1      25.068   3.305  49.534  1.00  0.00     0.256 A 
HETATM   21  C14 UNL     1      26.520   3.321  49.247  1.00  0.00     0.012 A 
HETATM   22  C15 UNL     1      27.010   4.572  49.287  1.00  0.00    -0.002 A 
HETATM   23  C16 UNL     1      25.893   5.484  49.608  1.00  0.00    -0.002 A 
HETATM   24  C17 UNL     1      24.797   4.752  49.747  1.00  0.00     0.012 A 
ENDBRANCH  18  20
ENDBRANCH   1  16
TORSDOF 8
ENDMDL
MODEL 4
REMARK VINA RESULT:      -7.2      2.864      4.897
REMARK  8 active torsions:
REMARK  status: ('A' for Active; 'I' for Inactive)
REMARK    1  A    between atoms: C2_2  and  C3_3 
REMARK    2  A    between atoms: C3_3  and  C4_4 
REMARK    3  A    between atoms: C4_4  and  N1_5 
REMARK    4  A    between atoms: N1_5  and  C5_6 
REMARK    5  A    between atoms: N1_5  and  C12_15 
REMARK    6  A    between atoms: C5_6  and  C6_7 
REMARK    7  A    between atoms: C11_13  and  O1_14 
REMARK    8  A    between atoms: N2_17  and  C13_18 
ROOT
HETATM    1  N1  UNL     1      26.300   1.676  52.407  1.00  0.00    -0.349 N 
ENDROOT
BRANCH   1   2
HETATM    2  C4  UNL     1      26.965   2.225  53.547  1.00  0.00     0.125 C 
BRANCH   2   3
HETATM    3  C3  UNL     1      28.422   2.336  53.583  1.00  0.00     0.019 C 
BRANCH   3   4
HETATM    4  C2  UNL     1      29.251   1.345  54.309  1.00  0.00    -0.003 C 
HETATM    5  C1  UNL     1      29.414   0.015  53.655  1.00  0.00     0.005 C 
ENDBRANCH   3   4
ENDBRANCH   2   3
ENDBRANCH   1   2
BRANCH   1   6
HETATM    6  C5  UNL     1      26.621   1.991  51.055  1.00  0.00     0.166 C 
BRANCH   6   7
HETATM    7  C6  UNL     1      25.756   3.005  50.399  1.00  0.00    -0.005 A 
HETATM    8  C7  UNL     1      24.379   2.902  50.346  1.00  0.00     0.012 A 
HETATM    9  C8  UNL     1      23.487   3.778  49.769  1.00  0.00     0.002 A 
HETATM   10  C9  UNL     1      24.081   4.896  49.173  1.00  0.00     0.026 A 
HETATM   11  C10 UNL     1      25.452   5.077  49.181  1.00  0.00     0.067 A 
HETATM   12 CL1  UNL     1      26.122   6.511  48.409  1.00  0.00    -0.081 Cl
HETATM   13  C11 UNL     1      26.302   4.145  49.788  1.00  0.00     0.095 A 
BRANCH  13  14
HETATM   14  O1  UNL     1      27.668   4.343  49.786  1.00  0.00    -0.358 OA
HETATM   15  H15 UNL     1      28.039   5.141  49.293  1.00  0.00     0.217 HD
ENDBRANCH  13  14
ENDBRANCH   6   7
ENDBRANCH   1   6
BRANCH   1  16
HETATM   16  C12 UNL     1      25.248   0.763  52.755  1.00  0.00     0.284 A 
HETATM   17  S1  UNL     1      25.605  -0.593  53.650  1.00  0.00     0.145 SA
HETATM   18  N2  UNL     1      23.981   0.159  52.871  1.00  0.00     0.051 N 
HETATM   19  H16 UNL     1      23.771   1.031  52.343  1.00  0.00     0.306 HD
BRANCH  18  20
HETATM   20  C13 UNL     1      22.794  -0.600  53.096  1.00  0.00     0.256 A 
HETATM   21  C14 UNL     1      21.653  -0.138  52.273  1.00  0.00     0.012 A 
HETATM   22  C15 UNL     1      20.623   0.250  53.043  1.00  0.00    -0.002 A 
HETATM   23  C16 UNL     1      21.021   0.067  54.454  1.00  0.00    -0.002 A 
HETATM   24  C17 UNL     1      22.255  -0.415  54.470  1.00  0.00     0.012 A 
ENDBRANCH  18  20
ENDBRANCH   1  16
TORSDOF 8
ENDMDL
MODEL 5
REMARK VINA RESULT:      -7.2      2.876      5.582
REMARK  8 active torsions:
REMARK  status: ('A' for Active; 'I' for Inactive)
REMARK    1  A    between atoms: C2_2  and  C3_3 
REMARK    2  A    between atoms: C3_3  and  C4_4 
REMARK    3  A    between atoms: C4_4  and  N1_5 
REMARK    4  A    between atoms: N1_5  and  C5_6 
REMARK    5  A    between atoms: N1_5  and  C12_15 
REMARK    6  A    between atoms: C5_6  and  C6_7 
REMARK    7  A    between atoms: C11_13  and  O1_14 
REMARK    8  A    between atoms: N2_17  and  C13_18 
ROOT
HETATM    1  N1  UNL     1      22.906   2.176  52.238  1.00  0.00    -0.349 N 
ENDROOT
BRANCH   1   2
HETATM    2  C4  UNL     1      21.775   1.681  51.518  1.00  0.00     0.125 C 
BRANCH   2   3
HETATM    3  C3  UNL     1      21.926   1.130  50.173  1.00  0.00     0.019 C 
BRANCH   3   4
HETATM    4  C2  UNL     1      21.497   1.894  48.977  1.00  0.00    -0.003 C 
HETATM    5  C1  UNL     1      22.542   2.145  47.944  1.00  0.00     0.005 C 
ENDBRANCH   3   4
ENDBRANCH   2   3
ENDBRANCH   1   2
BRANCH   1   6
HETATM    6  C5  UNL     1      23.254   3.553  52.351  1.00  0.00     0.166 C 
BRANCH   6   7
HETATM    7  C6  UNL     1      23.746   4.205  51.110  1.00  0.00    -0.005 A 
HETATM    8  C7  UNL     1      22.949   4.999  50.308  1.00  0.00     0.012 A 
HETATM    9  C8  UNL     1      23.299   5.648  49.144  1.00  0.00     0.002 A 
HETATM   10  C9  UNL     1      24.631   5.458  48.758  1.00  0.00     0.026 A 
HETATM   11  C10 UNL     1      25.497   4.679  49.504  1.00  0.00     0.067 A 
HETATM   12 CL1  UNL     1      27.157   4.489  48.951  1.00  0.00    -0.081 Cl
HETATM   13  C11 UNL     1      25.072   4.047  50.679  1.00  0.00     0.095 A 
BRANCH  13  14
HETATM   14  O1  UNL     1      25.951   3.273  51.411  1.00  0.00    -0.358 OA
HETATM   15  H15 UNL     1      26.459   2.542  50.937  1.00  0.00     0.217 HD
ENDBRANCH  13  14
ENDBRANCH   6   7
ENDBRANCH   1   6
BRANCH   1  16
HETATM   16  C12 UNL     1      23.687   1.134  52.845  1.00  0.00     0.284 A 
HETATM   17  S1  UNL     1      22.921  -0.214  53.449  1.00  0.00     0.145 SA
HETATM   18  N2  UNL     1      24.775   0.388  53.337  1.00  0.00     0.051 N 
HETATM   19  H16 UNL     1      25.239   1.221  52.922  1.00  0.00     0.306 HD
BRANCH  18  20
HETATM   20  C13 UNL     1      25.736  -0.508  53.892  1.00  0.00     0.256 A 
HETATM   21  C14 UNL     1      26.703   0.169  54.785  1.00  0.00     0.012 A 
HETATM   22  C15 UNL     1      27.962   0.018  54.343  1.00  0.00    -0.002 A 
HETATM   23  C16 UNL     1      27.912  -0.786  53.105  1.00  0.00    -0.002 A 
HETATM   24  C17 UNL     1      26.643  -1.078  52.860  1.00  0.00     0.012 A 
ENDBRANCH  18  20
ENDBRANCH   1  16
TORSDOF 8
ENDMDL
MODEL 6
REMARK VINA RESULT:      -7.2      1.908      2.378
REMARK  8 active torsions:
REMARK  status: ('A' for Active; 'I' for Inactive)
REMARK    1  A    between atoms: C2_2  and  C3_3 
REMARK    2  A    between atoms: C3_3  and  C4_4 
REMARK    3  A    between atoms: C4_4  and  N1_5 
REMARK    4  A    between atoms: N1_5  and  C5_6 
REMARK    5  A    between atoms: N1_5  and  C12_15 
REMARK    6  A    between atoms: C5_6  and  C6_7 
REMARK    7  A    between atoms: C11_13  and  O1_14 
REMARK    8  A    between atoms: N2_17  and  C13_18 
ROOT
HETATM    1  N1  UNL     1      24.117   3.344  52.288  1.00  0.00    -0.349 N 
ENDROOT
BRANCH   1   2
HETATM    2  C4  UNL     1      24.698   4.000  51.159  1.00  0.00     0.125 C 
BRANCH   2   3
HETATM    3  C3  UNL     1      25.116   3.239  49.983  1.00  0.00     0.019 C 
BRANCH   3   4
HETATM    4  C2  UNL     1      26.542   3.156  49.589  1.00  0.00    -0.003 C 
HETATM    5  C1  UNL     1      27.138   4.388  48.999  1.00  0.00     0.005 C 
ENDBRANCH   3   4
ENDBRANCH   2   3
ENDBRANCH   1   2
BRANCH   1   6
HETATM    6  C5  UNL     1      24.849   2.880  53.419  1.00  0.00     0.166 C 
BRANCH   6   7
HETATM    7  C6  UNL     1      25.730   1.705  53.188  1.00  0.00    -0.005 A 
HETATM    8  C7  UNL     1      25.284   0.529  52.616  1.00  0.00     0.012 A 
HETATM    9  C8  UNL     1      26.008  -0.613  52.357  1.00  0.00     0.002 A 
HETATM   10  C9  UNL     1      27.355  -0.538  52.731  1.00  0.00     0.026 A 
HETATM   11  C10 UNL     1      27.883   0.602  53.309  1.00  0.00     0.067 A 
HETATM   12 CL1  UNL     1      29.587   0.617  53.752  1.00  0.00    -0.081 Cl
HETATM   13  C11 UNL     1      27.087   1.729  53.544  1.00  0.00     0.095 A 
BRANCH  13  14
HETATM   14  O1  UNL     1      27.632   2.859  54.123  1.00  0.00    -0.358 OA
HETATM   15  H15 UNL     1      28.557   2.798  54.519  1.00  0.00     0.217 HD
ENDBRANCH  13  14
ENDBRANCH   6   7
ENDBRANCH   1   6
BRANCH   1  16
HETATM   16  C12 UNL     1      22.695   3.181  52.174  1.00  0.00     0.284 A 
HETATM   17  S1  UNL     1      21.732   4.524  51.979  1.00  0.00     0.145 SA
HETATM   18  N2  UNL     1      21.412   2.603  52.108  1.00  0.00     0.051 N 
HETATM   19  H16 UNL     1      22.033   1.772  52.194  1.00  0.00     0.306 HD
BRANCH  18  20
HETATM   20  C13 UNL     1      20.044   2.210  52.020  1.00  0.00     0.256 A 
HETATM   21  C14 UNL     1      19.795   0.867  52.594  1.00  0.00     0.012 A 
HETATM   22  C15 UNL     1      19.289   0.031  51.672  1.00  0.00    -0.002 A 
HETATM   23  C16 UNL     1      19.168   0.777  50.403  1.00  0.00    -0.002 A 
HETATM   24  C17 UNL     1      19.600   2.012  50.615  1.00  0.00     0.012 A 
ENDBRANCH  18  20
ENDBRANCH   1  16
TORSDOF 8
ENDMDL
MODEL 7
REMARK VINA RESULT:      -7.0      2.442      4.255
REMARK  8 active torsions:
REMARK  status: ('A' for Active; 'I' for Inactive)
REMARK    1  A    between atoms: C2_2  and  C3_3 
REMARK    2  A    between atoms: C3_3  and  C4_4 
REMARK    3  A    between atoms: C4_4  and  N1_5 
REMARK    4  A    between atoms: N1_5  and  C5_6 
REMARK    5  A    between atoms: N1_5  and  C12_15 
REMARK    6  A    between atoms: C5_6  and  C6_7 
REMARK    7  A    between atoms: C11_13  and  O1_14 
REMARK    8  A    between atoms: N2_17  and  C13_18 
ROOT
HETATM    1  N1  UNL     1      24.665   0.628  52.579  1.00  0.00    -0.349 N 
ENDROOT
BRANCH   1   2
HETATM    2  C4  UNL     1      24.463  -0.078  53.805  1.00  0.00     0.125 C 
BRANCH   2   3
HETATM    3  C3  UNL     1      23.386  -1.057  53.937  1.00  0.00     0.019 C 
BRANCH   3   4
HETATM    4  C2  UNL     1      22.188  -0.775  54.763  1.00  0.00    -0.003 C 
HETATM    5  C1  UNL     1      20.870  -1.094  54.146  1.00  0.00     0.005 C 
ENDBRANCH   3   4
ENDBRANCH   2   3
ENDBRANCH   1   2
BRANCH   1   6
HETATM    6  C5  UNL     1      25.894   0.666  51.860  1.00  0.00     0.166 C 
BRANCH   6   7
HETATM    7  C6  UNL     1      27.114   0.321  52.636  1.00  0.00    -0.005 A 
HETATM    8  C7  UNL     1      27.623  -0.961  52.710  1.00  0.00     0.012 A 
HETATM    9  C8  UNL     1      28.739  -1.390  53.395  1.00  0.00     0.002 A 
HETATM   10  C9  UNL     1      29.414  -0.378  54.086  1.00  0.00     0.026 A 
HETATM   11  C10 UNL     1      28.972   0.933  54.064  1.00  0.00     0.067 A 
HETATM   12 CL1  UNL     1      29.877   2.148  54.962  1.00  0.00    -0.081 Cl
HETATM   13  C11 UNL     1      27.827   1.299  53.347  1.00  0.00     0.095 A 
BRANCH  13  14
HETATM   14  O1  UNL     1      27.401   2.612  53.336  1.00  0.00    -0.358 OA
HETATM   15  H15 UNL     1      27.006   2.997  54.180  1.00  0.00     0.217 HD
ENDBRANCH  13  14
ENDBRANCH   6   7
ENDBRANCH   1   6
BRANCH   1  16
HETATM   16  C12 UNL     1      23.490   1.322  52.129  1.00  0.00     0.284 A 
HETATM   17  S1  UNL     1      23.512   2.982  52.022  1.00  0.00     0.145 SA
HETATM   18  N2  UNL     1      22.188   1.593  51.667  1.00  0.00     0.051 N 
HETATM   19  H16 UNL     1      22.205   0.553  51.705  1.00  0.00     0.306 HD
BRANCH  18  20
HETATM   20  C13 UNL     1      20.924   2.066  51.204  1.00  0.00     0.256 A 
HETATM   21  C14 UNL     1      19.849   1.905  52.209  1.00  0.00     0.012 A 
HETATM   22  C15 UNL     1      18.858   1.128  51.741  1.00  0.00    -0.002 A 
HETATM   23  C16 UNL     1      19.218   0.716  50.368  1.00  0.00    -0.002 A 
HETATM   24  C17 UNL     1      20.393   1.255  50.077  1.00  0.00     0.012 A 
ENDBRANCH  18  20
ENDBRANCH   1  16
TORSDOF 8
ENDMDL
MODEL 8
REMARK VINA RESULT:      -7.0      2.134      2.723
REMARK  8 active torsions:
REMARK  status: ('A' for Active; 'I' for Inactive)
REMARK    1  A    between atoms: C2_2  and  C3_3 
REMARK    2  A    between atoms: C3_3  and  C4_4 
REMARK    3  A    between atoms: C4_4  and  N1_5 
REMARK    4  A    between atoms: N1_5  and  C5_6 
REMARK    5  A    between atoms: N1_5  and  C12_15 
REMARK    6  A    between atoms: C5_6  and  C6_7 
REMARK    7  A    between atoms: C11_13  and  O1_14 
REMARK    8  A    between atoms: N2_17  and  C13_18 
ROOT
HETATM    1  N1  UNL     1      25.829   2.466  51.979  1.00  0.00    -0.349 N 
ENDROOT
BRANCH   1   2
HETATM    2  C4  UNL     1      26.830   2.909  51.060  1.00  0.00     0.125 C 
BRANCH   2   3
HETATM    3  C3  UNL     1      26.481   3.261  49.685  1.00  0.00     0.019 C 
BRANCH   3   4
HETATM    4  C2  UNL     1      27.158   4.376  48.982  1.00  0.00    -0.003 C 
HETATM    5  C1  UNL     1      26.402   5.657  48.892  1.00  0.00     0.005 C 
ENDBRANCH   3   4
ENDBRANCH   2   3
ENDBRANCH   1   2
BRANCH   1   6
HETATM    6  C5  UNL     1      26.100   1.805  53.212  1.00  0.00     0.166 C 
BRANCH   6   7
HETATM    7  C6  UNL     1      26.793   0.495  53.111  1.00  0.00    -0.005 A 
HETATM    8  C7  UNL     1      26.185  -0.644  52.620  1.00  0.00     0.012 A 
HETATM    9  C8  UNL     1      26.731  -1.902  52.482  1.00  0.00     0.002 A 
HETATM   10  C9  UNL     1      28.063  -2.000  52.899  1.00  0.00     0.026 A 
HETATM   11  C10 UNL     1      28.746  -0.909  53.403  1.00  0.00     0.067 A 
HETATM   12 CL1  UNL     1      30.420  -1.115  53.909  1.00  0.00    -0.081 Cl
HETATM   13  C11 UNL     1      28.128   0.343  53.516  1.00  0.00     0.095 A 
BRANCH  13  14
HETATM   14  O1  UNL     1      28.826   1.421  54.022  1.00  0.00    -0.358 OA
HETATM   15  H15 UNL     1      28.899   1.522  55.023  1.00  0.00     0.217 HD
ENDBRANCH  13  14
ENDBRANCH   6   7
ENDBRANCH   1   6
BRANCH   1  16
HETATM   16  C12 UNL     1      24.493   2.745  51.534  1.00  0.00     0.284 A 
HETATM   17  S1  UNL     1      23.580   3.875  52.346  1.00  0.00     0.145 SA
HETATM   18  N2  UNL     1      23.289   2.716  50.802  1.00  0.00     0.051 N 
HETATM   19  H16 UNL     1      23.888   2.039  50.286  1.00  0.00     0.306 HD
BRANCH  18  20
HETATM   20  C13 UNL     1      22.004   2.829  50.194  1.00  0.00     0.256 A 
HETATM   21  C14 UNL     1      21.156   1.636  50.419  1.00  0.00     0.012 A 
HETATM   22  C15 UNL     1      20.800   1.067  49.255  1.00  0.00    -0.002 A 
HETATM   23  C16 UNL     1      21.399   1.861  48.162  1.00  0.00    -0.002 A 
HETATM   24  C17 UNL     1      22.080   2.857  48.709  1.00  0.00     0.012 A 
ENDBRANCH  18  20
ENDBRANCH   1  16
TORSDOF 8
ENDMDL
MODEL 9
REMARK VINA RESULT:      -7.0      3.383      6.462
REMARK  8 active torsions:
REMARK  status: ('A' for Active; 'I' for Inactive)
REMARK    1  A    between atoms: C2_2  and  C3_3 
REMARK    2  A    between atoms: C3_3  and  C4_4 
REMARK    3  A    between atoms: C4_4  and  N1_5 
REMARK    4  A    between atoms: N1_5  and  C5_6 
REMARK    5  A    between atoms: N1_5  and  C12_15 
REMARK    6  A    between atoms: C5_6  and  C6_7 
REMARK    7  A    between atoms: C11_13  and  O1_14 
REMARK    8  A    between atoms: N2_17  and  C13_18 
ROOT
HETATM    1  N1  UNL     1      25.678   2.571  51.107  1.00  0.00    -0.349 N 
ENDROOT
BRANCH   1   2
HETATM    2  C4  UNL     1      24.298   2.842  51.360  1.00  0.00     0.125 C 
BRANCH   2   3
HETATM    3  C3  UNL     1      23.274   1.838  51.077  1.00  0.00     0.019 C 
BRANCH   3   4
HETATM    4  C2  UNL     1      22.519   1.848  49.802  1.00  0.00    -0.003 C 
HETATM    5  C1  UNL     1      21.416   0.853  49.679  1.00  0.00     0.005 C 
ENDBRANCH   3   4
ENDBRANCH   2   3
ENDBRANCH   1   2
BRANCH   1   6
HETATM    6  C5  UNL     1      26.368   2.936  49.915  1.00  0.00     0.166 C 
BRANCH   6   7
HETATM    7  C6  UNL     1      26.047   4.277  49.360  1.00  0.00    -0.005 A 
HETATM    8  C7  UNL     1      24.754   4.712  49.139  1.00  0.00     0.012 A 
HETATM    9  C8  UNL     1      24.345   5.926  48.633  1.00  0.00     0.002 A 
HETATM   10  C9  UNL     1      25.392   6.799  48.316  1.00  0.00     0.026 A 
HETATM   11  C10 UNL     1      26.714   6.443  48.506  1.00  0.00     0.067 A 
HETATM   12 CL1  UNL     1      27.973   7.599  48.081  1.00  0.00    -0.081 Cl
HETATM   13  C11 UNL     1      27.059   5.190  49.025  1.00  0.00     0.095 A 
BRANCH  13  14
HETATM   14  O1  UNL     1      28.385   4.852  49.208  1.00  0.00    -0.358 OA
HETATM   15  H15 UNL     1      28.988   5.506  49.684  1.00  0.00     0.217 HD
ENDBRANCH  13  14
ENDBRANCH   6   7
ENDBRANCH   1   6
BRANCH   1  16
HETATM   16  C12 UNL     1      26.322   1.874  52.184  1.00  0.00     0.284 A 
HETATM   17  S1  UNL     1      25.890   2.217  53.754  1.00  0.00     0.145 SA
HETATM   18  N2  UNL     1      27.161   1.003  52.906  1.00  0.00     0.051 N 
HETATM   19  H16 UNL     1      27.392   0.776  51.917  1.00  0.00     0.306 HD
BRANCH  18  20
HETATM   20  C13 UNL     1      27.924   0.200  53.806  1.00  0.00     0.256 A 
HETATM   21  C14 UNL     1      29.348   0.600  53.864  1.00  0.00     0.012 A 
HETATM   22  C15 UNL     1      30.152  -0.414  53.503  1.00  0.00    -0.002 A 
HETATM   23  C16 UNL     1      29.297  -1.574  53.176  1.00  0.00    -0.002 A 
HETATM   24  C17 UNL     1      28.035  -1.211  53.352  1.00  0.00     0.012 A 
ENDBRANCH  18  20
ENDBRANCH   1  16
TORSDOF 8
ENDMDL
