MODEL 1
REMARK VINA RESULT:      -9.0      0.000      0.000
REMARK  4 active torsions:
REMARK  status: ('A' for Active; 'I' for Inactive)
REMARK    1  A    between atoms: C4_6  and  N2_7 
REMARK    2  A    between atoms: N2_7  and  C5_8 
REMARK    3  A    between atoms: C11_15  and  O2_16 
REMARK    4  A    between atoms: O2_16  and  C12_17 
ROOT
HETATM    1  O1  UNL     1      28.068   2.113  54.389  1.00  0.00    -0.270 OA
HETATM    2  C1  UNL     1      27.898   1.212  53.496  1.00  0.00     0.253 C 
HETATM    3  N1  UNL     1      28.538  -0.079  53.614  1.00  0.00    -0.335 N 
HETATM    4  C2  UNL     1      27.869  -1.201  52.989  1.00  0.00     0.089 C 
HETATM    5  C3  UNL     1      26.705  -1.063  52.325  1.00  0.00     0.018 C 
HETATM    6  C4  UNL     1      26.031   0.259  52.194  1.00  0.00     0.144 C 
HETATM    7  C11 UNL     1      27.069   1.359  52.280  1.00  0.00     0.241 C 
HETATM    8  H1  UNL     1      29.443  -0.134  54.143  1.00  0.00     0.168 HD
ENDROOT
BRANCH   7   9
HETATM    9  O2  UNL     1      26.350   2.539  52.248  1.00  0.00    -0.361 OA
BRANCH   9  10
HETATM   10  C12 UNL     1      25.520   2.723  51.180  1.00  0.00     0.169 C 
HETATM   11  C13 UNL     1      26.288   3.591  50.200  1.00  0.00     0.006 C 
HETATM   12  C14 UNL     1      25.585   4.340  49.335  1.00  0.00     0.002 C 
HETATM   13  C15 UNL     1      24.255   4.726  48.865  1.00  0.00     0.299 C 
HETATM   14  N3  UNL     1      23.884   6.102  49.101  1.00  0.00     0.095 N 
HETATM   15  C16 UNL     1      22.457   6.314  49.221  1.00  0.00     0.292 C 
HETATM   16  C21 UNL     1      24.627   6.733  50.163  1.00  0.00     0.292 C 
HETATM   17  C17 UNL     1      21.942   6.197  50.648  1.00  0.00     0.152 C 
HETATM   18  N4  UNL     1      22.983   5.549  51.405  1.00  0.00    -0.387 N 
HETATM   19  C18 UNL     1      23.166   4.207  51.969  1.00  0.00     0.084 C 
HETATM   20  C20 UNL     1      24.088   6.460  51.552  1.00  0.00     0.152 C 
HETATM   21  C19 UNL     1      24.298   3.541  51.567  1.00  0.00     0.025 C 
ENDBRANCH   9  10
ENDBRANCH   7   9
BRANCH   6  22
HETATM   22  N2  UNL     1      24.979   0.412  53.169  1.00  0.00    -0.378 N 
HETATM   23  H5  UNL     1      25.334   1.031  53.960  1.00  0.00     0.160 HD
BRANCH  22  24
HETATM   24  C5  UNL     1      23.650   0.020  53.432  1.00  0.00     0.050 A 
HETATM   25  C6  UNL     1      22.559   0.346  52.643  1.00  0.00     0.031 A 
HETATM   26  C7  UNL     1      21.333  -0.129  53.016  1.00  0.00     0.002 A 
HETATM   27  C8  UNL     1      21.120  -0.911  54.128  1.00  0.00     0.002 A 
HETATM   28  C9  UNL     1      22.204  -1.237  54.917  1.00  0.00     0.026 A 
HETATM   29  C10 UNL     1      23.444  -0.761  54.545  1.00  0.00     0.060 A 
HETATM   30 CL1  UNL     1      24.663  -1.325  55.680  1.00  0.00    -0.082 Cl
ENDBRANCH  22  24
ENDBRANCH   6  22
TORSDOF 4
ENDMDL
MODEL 2
REMARK VINA RESULT:      -8.8      1.158      1.467
REMARK  4 active torsions:
REMARK  status: ('A' for Active; 'I' for Inactive)
REMARK    1  A    between atoms: C4_6  and  N2_7 
REMARK    2  A    between atoms: N2_7  and  C5_8 
REMARK    3  A    between atoms: C11_15  and  O2_16 
REMARK    4  A    between atoms: O2_16  and  C12_17 
ROOT
HETATM    1  O1  UNL     1      27.838   2.522  54.195  1.00  0.00    -0.270 OA
HETATM    2  C1  UNL     1      27.715   1.575  53.343  1.00  0.00     0.253 C 
HETATM    3  N1  UNL     1      28.511   0.373  53.452  1.00  0.00    -0.335 N 
HETATM    4  C2  UNL     1      27.938  -0.843  52.911  1.00  0.00     0.089 C 
HETATM    5  C3  UNL     1      26.722  -0.866  52.331  1.00  0.00     0.018 C 
HETATM    6  C4  UNL     1      25.888   0.362  52.212  1.00  0.00     0.144 C 
HETATM    7  C11 UNL     1      26.791   1.578  52.189  1.00  0.00     0.241 C 
HETATM    8  H1  UNL     1      29.450   0.444  53.913  1.00  0.00     0.168 HD
ENDROOT
BRANCH   7   9
HETATM    9  O2  UNL     1      25.936   2.664  52.176  1.00  0.00    -0.361 OA
BRANCH   9  10
HETATM   10  C12 UNL     1      25.398   3.007  50.969  1.00  0.00     0.169 C 
HETATM   11  C13 UNL     1      26.463   3.820  50.254  1.00  0.00     0.006 C 
HETATM   12  C14 UNL     1      26.064   4.695  49.317  1.00  0.00     0.002 C 
HETATM   13  C15 UNL     1      24.928   5.271  48.598  1.00  0.00     0.299 C 
HETATM   14  N3  UNL     1      24.670   6.669  48.853  1.00  0.00     0.095 N 
HETATM   15  C16 UNL     1      23.287   7.054  48.673  1.00  0.00     0.292 C 
HETATM   16  C21 UNL     1      25.216   7.145  50.100  1.00  0.00     0.292 C 
HETATM   17  C17 UNL     1      22.449   6.930  49.937  1.00  0.00     0.152 C 
HETATM   18  N4  UNL     1      23.210   6.118  50.852  1.00  0.00    -0.387 N 
HETATM   19  C18 UNL     1      23.108   4.735  51.334  1.00  0.00     0.084 C 
HETATM   20  C20 UNL     1      24.348   6.871  51.310  1.00  0.00     0.152 C 
HETATM   21  C19 UNL     1      24.220   3.953  51.140  1.00  0.00     0.025 C 
ENDBRANCH   9  10
ENDBRANCH   7   9
BRANCH   6  22
HETATM   22  N2  UNL     1      24.896   0.428  53.257  1.00  0.00    -0.378 N 
HETATM   23  H5  UNL     1      25.130   1.246  53.898  1.00  0.00     0.160 HD
BRANCH  22  24
HETATM   24  C5  UNL     1      23.732  -0.221  53.719  1.00  0.00     0.050 A 
HETATM   25  C6  UNL     1      23.662  -0.998  54.863  1.00  0.00     0.031 A 
HETATM   26  C7  UNL     1      22.455  -1.544  55.195  1.00  0.00     0.002 A 
HETATM   27  C8  UNL     1      21.306  -1.368  54.458  1.00  0.00     0.002 A 
HETATM   28  C9  UNL     1      21.372  -0.595  53.318  1.00  0.00     0.026 A 
HETATM   29  C10 UNL     1      22.588  -0.040  52.979  1.00  0.00     0.060 A 
HETATM   30 CL1  UNL     1      22.418   0.916  51.512  1.00  0.00    -0.082 Cl
ENDBRANCH  22  24
ENDBRANCH   6  22
TORSDOF 4
ENDMDL
MODEL 3
REMARK VINA RESULT:      -8.5      2.877      5.267
REMARK  4 active torsions:
REMARK  status: ('A' for Active; 'I' for Inactive)
REMARK    1  A    between atoms: C4_6  and  N2_7 
REMARK    2  A    between atoms: N2_7  and  C5_8 
REMARK    3  A    between atoms: C11_15  and  O2_16 
REMARK    4  A    between atoms: O2_16  and  C12_17 
ROOT
HETATM    1  O1  UNL     1      23.586   4.923  52.268  1.00  0.00    -0.270 OA
HETATM    2  C1  UNL     1      24.266   4.476  51.279  1.00  0.00     0.253 C 
HETATM    3  N1  UNL     1      24.969   5.379  50.395  1.00  0.00    -0.335 N 
HETATM    4  C2  UNL     1      26.154   4.863  49.740  1.00  0.00     0.089 C 
HETATM    5  C3  UNL     1      26.590   3.603  49.936  1.00  0.00     0.018 C 
HETATM    6  C4  UNL     1      25.878   2.660  50.843  1.00  0.00     0.144 C 
HETATM    7  C11 UNL     1      24.416   3.049  50.921  1.00  0.00     0.241 C 
HETATM    8  H1  UNL     1      24.589   6.350  50.279  1.00  0.00     0.168 HD
ENDROOT
BRANCH   7   9
HETATM    9  O2  UNL     1      23.861   2.190  51.850  1.00  0.00    -0.361 OA
BRANCH   9  10
HETATM   10  C12 UNL     1      22.766   1.480  51.452  1.00  0.00     0.169 C 
HETATM   11  C13 UNL     1      22.650   1.697  49.954  1.00  0.00     0.006 C 
HETATM   12  C14 UNL     1      21.438   1.566  49.390  1.00  0.00     0.002 C 
HETATM   13  C15 UNL     1      20.023   1.267  49.607  1.00  0.00     0.299 C 
HETATM   14  N3  UNL     1      19.110   2.364  49.385  1.00  0.00     0.095 N 
HETATM   15  C16 UNL     1      17.888   2.278  50.155  1.00  0.00     0.292 C 
HETATM   16  C21 UNL     1      19.728   3.664  49.474  1.00  0.00     0.292 C 
HETATM   17  C17 UNL     1      17.974   2.958  51.513  1.00  0.00     0.152 C 
HETATM   18  N4  UNL     1      19.374   3.175  51.772  1.00  0.00    -0.387 N 
HETATM   19  C18 UNL     1      20.368   2.556  52.659  1.00  0.00     0.084 C 
HETATM   20  C20 UNL     1      19.861   4.198  50.884  1.00  0.00     0.152 C 
HETATM   21  C19 UNL     1      21.490   2.061  52.042  1.00  0.00     0.025 C 
ENDBRANCH   9  10
ENDBRANCH   7   9
BRANCH   6  22
HETATM   22  N2  UNL     1      26.506   2.604  52.141  1.00  0.00    -0.378 N 
HETATM   23  H5  UNL     1      26.090   3.369  52.755  1.00  0.00     0.160 HD
BRANCH  22  24
HETATM   24  C5  UNL     1      27.481   1.889  52.867  1.00  0.00     0.050 A 
HETATM   25  C6  UNL     1      28.540   2.466  53.548  1.00  0.00     0.031 A 
HETATM   26  C7  UNL     1      29.392   1.641  54.228  1.00  0.00     0.002 A 
HETATM   27  C8  UNL     1      29.258   0.272  54.274  1.00  0.00     0.002 A 
HETATM   28  C9  UNL     1      28.205  -0.306  53.596  1.00  0.00     0.026 A 
HETATM   29  C10 UNL     1      27.341   0.522  52.909  1.00  0.00     0.060 A 
HETATM   30 CL1  UNL     1      26.074  -0.435  52.153  1.00  0.00    -0.082 Cl
ENDBRANCH  22  24
ENDBRANCH   6  22
TORSDOF 4
ENDMDL
MODEL 4
REMARK VINA RESULT:      -8.3      1.357      2.151
REMARK  4 active torsions:
REMARK  status: ('A' for Active; 'I' for Inactive)
REMARK    1  A    between atoms: C4_6  and  N2_7 
REMARK    2  A    between atoms: N2_7  and  C5_8 
REMARK    3  A    between atoms: C11_15  and  O2_16 
REMARK    4  A    between atoms: O2_16  and  C12_17 
ROOT
HETATM    1  O1  UNL     1      26.474   0.968  55.589  1.00  0.00    -0.270 OA
HETATM    2  C1  UNL     1      26.777   0.571  54.411  1.00  0.00     0.253 C 
HETATM    3  N1  UNL     1      27.819  -0.411  54.205  1.00  0.00    -0.335 N 
HETATM    4  C2  UNL     1      27.703  -1.252  53.031  1.00  0.00     0.089 C 
HETATM    5  C3  UNL     1      26.679  -1.134  52.163  1.00  0.00     0.018 C 
HETATM    6  C4  UNL     1      25.597  -0.130  52.360  1.00  0.00     0.144 C 
HETATM    7  C11 UNL     1      26.138   1.037  53.161  1.00  0.00     0.241 C 
HETATM    8  H1  UNL     1      28.593  -0.463  54.911  1.00  0.00     0.168 HD
ENDROOT
BRANCH   7   9
HETATM    9  O2  UNL     1      25.052   1.863  53.377  1.00  0.00    -0.361 OA
BRANCH   9  10
HETATM   10  C12 UNL     1      25.089   3.092  52.783  1.00  0.00     0.169 C 
HETATM   11  C13 UNL     1      23.935   3.878  53.379  1.00  0.00     0.006 C 
HETATM   12  C14 UNL     1      23.416   4.883  52.655  1.00  0.00     0.002 C 
HETATM   13  C15 UNL     1      23.485   5.642  51.407  1.00  0.00     0.299 C 
HETATM   14  N3  UNL     1      22.348   5.503  50.527  1.00  0.00     0.095 N 
HETATM   15  C16 UNL     1      22.658   5.708  49.128  1.00  0.00     0.292 C 
HETATM   16  C21 UNL     1      21.580   4.303  50.751  1.00  0.00     0.292 C 
HETATM   17  C17 UNL     1      23.057   4.434  48.399  1.00  0.00     0.152 C 
HETATM   18  N4  UNL     1      23.355   3.458  49.416  1.00  0.00    -0.387 N 
HETATM   19  C18 UNL     1      24.588   2.861  49.944  1.00  0.00     0.084 C 
HETATM   20  C20 UNL     1      22.130   3.071  50.065  1.00  0.00     0.152 C 
HETATM   21  C19 UNL     1      24.783   2.994  51.297  1.00  0.00     0.025 C 
ENDBRANCH   9  10
ENDBRANCH   7   9
BRANCH   6  22
HETATM   22  N2  UNL     1      24.431  -0.724  52.966  1.00  0.00    -0.378 N 
HETATM   23  H5  UNL     1      24.706  -1.663  53.388  1.00  0.00     0.160 HD
BRANCH  22  24
HETATM   24  C5  UNL     1      23.057  -0.489  53.185  1.00  0.00     0.050 A 
HETATM   25  C6  UNL     1      22.185   0.029  52.242  1.00  0.00     0.031 A 
HETATM   26  C7  UNL     1      20.874   0.178  52.595  1.00  0.00     0.002 A 
HETATM   27  C8  UNL     1      20.371  -0.156  53.832  1.00  0.00     0.002 A 
HETATM   28  C9  UNL     1      21.237  -0.671  54.774  1.00  0.00     0.026 A 
HETATM   29  C10 UNL     1      22.562  -0.825  54.422  1.00  0.00     0.060 A 
HETATM   30 CL1  UNL     1      23.458  -1.518  55.767  1.00  0.00    -0.082 Cl
ENDBRANCH  22  24
ENDBRANCH   6  22
TORSDOF 4
ENDMDL
MODEL 5
REMARK VINA RESULT:      -8.2      2.992      5.359
REMARK  4 active torsions:
REMARK  status: ('A' for Active; 'I' for Inactive)
REMARK    1  A    between atoms: C4_6  and  N2_7 
REMARK    2  A    between atoms: N2_7  and  C5_8 
REMARK    3  A    between atoms: C11_15  and  O2_16 
REMARK    4  A    between atoms: O2_16  and  C12_17 
ROOT
HETATM    1  O1  UNL     1      24.909   6.865  51.019  1.00  0.00    -0.270 OA
HETATM    2  C1  UNL     1      25.423   6.178  50.068  1.00  0.00     0.253 C 
HETATM    3  N1  UNL     1      26.648   6.601  49.428  1.00  0.00    -0.335 N 
HETATM    4  C2  UNL     1      27.482   5.561  48.859  1.00  0.00     0.089 C 
HETATM    5  C3  UNL     1      27.143   4.259  48.916  1.00  0.00     0.018 C 
HETATM    6  C4  UNL     1      25.885   3.805  49.573  1.00  0.00     0.144 C 
HETATM    7  C11 UNL     1      24.864   4.923  49.521  1.00  0.00     0.241 C 
HETATM    8  H1  UNL     1      26.867   7.626  49.412  1.00  0.00     0.168 HD
ENDROOT
BRANCH   7   9
HETATM    9  O2  UNL     1      23.776   4.453  50.232  1.00  0.00    -0.361 OA
BRANCH   9  10
HETATM   10  C12 UNL     1      22.860   3.717  49.537  1.00  0.00     0.169 C 
HETATM   11  C13 UNL     1      21.615   4.581  49.444  1.00  0.00     0.006 C 
HETATM   12  C14 UNL     1      20.432   3.966  49.287  1.00  0.00     0.002 C 
HETATM   13  C15 UNL     1      19.737   2.687  49.145  1.00  0.00     0.299 C 
HETATM   14  N3  UNL     1      18.861   2.326  50.235  1.00  0.00     0.095 N 
HETATM   15  C16 UNL     1      18.686   0.899  50.402  1.00  0.00     0.292 C 
HETATM   16  C21 UNL     1      19.169   2.993  51.476  1.00  0.00     0.292 C 
HETATM   17  C17 UNL     1      19.700   0.267  51.343  1.00  0.00     0.152 C 
HETATM   18  N4  UNL     1      20.761   1.229  51.506  1.00  0.00    -0.387 N 
HETATM   19  C18 UNL     1      22.140   1.338  51.015  1.00  0.00     0.084 C 
HETATM   20  C20 UNL     1      20.270   2.337  52.282  1.00  0.00     0.152 C 
HETATM   21  C19 UNL     1      22.436   2.485  50.320  1.00  0.00     0.025 C 
ENDBRANCH   9  10
ENDBRANCH   7   9
BRANCH   6  22
HETATM   22  N2  UNL     1      26.131   3.341  50.916  1.00  0.00    -0.378 N 
HETATM   23  H5  UNL     1      26.492   4.156  51.499  1.00  0.00     0.160 HD
BRANCH  22  24
HETATM   24  C5  UNL     1      26.062   2.180  51.715  1.00  0.00     0.050 A 
HETATM   25  C6  UNL     1      26.796   1.026  51.496  1.00  0.00     0.031 A 
HETATM   26  C7  UNL     1      26.637  -0.010  52.372  1.00  0.00     0.002 A 
HETATM   27  C8  UNL     1      25.791   0.026  53.457  1.00  0.00     0.002 A 
HETATM   28  C9  UNL     1      25.058   1.174  53.677  1.00  0.00     0.026 A 
HETATM   29  C10 UNL     1      25.215   2.224  52.797  1.00  0.00     0.060 A 
HETATM   30 CL1  UNL     1      24.206   3.575  53.295  1.00  0.00    -0.082 Cl
ENDBRANCH  22  24
ENDBRANCH   6  22
TORSDOF 4
ENDMDL
MODEL 6
REMARK VINA RESULT:      -8.1      2.824      5.242
REMARK  4 active torsions:
REMARK  status: ('A' for Active; 'I' for Inactive)
REMARK    1  A    between atoms: C4_6  and  N2_7 
REMARK    2  A    between atoms: N2_7  and  C5_8 
REMARK    3  A    between atoms: C11_15  and  O2_16 
REMARK    4  A    between atoms: O2_16  and  C12_17 
ROOT
HETATM    1  O1  UNL     1      24.228   3.850  53.666  1.00  0.00    -0.270 OA
HETATM    2  C1  UNL     1      24.475   3.294  52.540  1.00  0.00     0.253 C 
HETATM    3  N1  UNL     1      25.225   3.990  51.518  1.00  0.00    -0.335 N 
HETATM    4  C2  UNL     1      25.985   3.173  50.594  1.00  0.00     0.089 C 
HETATM    5  C3  UNL     1      26.001   1.828  50.671  1.00  0.00     0.018 C 
HETATM    6  C4  UNL     1      25.236   1.095  51.718  1.00  0.00     0.144 C 
HETATM    7  C11 UNL     1      24.049   1.933  52.147  1.00  0.00     0.241 C 
HETATM    8  H1  UNL     1      25.181   5.037  51.502  1.00  0.00     0.168 HD
ENDROOT
BRANCH   7   9
HETATM    9  O2  UNL     1      23.460   1.225  53.178  1.00  0.00    -0.361 OA
BRANCH   9  10
HETATM   10  C12 UNL     1      22.119   0.992  53.075  1.00  0.00     0.169 C 
HETATM   11  C13 UNL     1      21.956  -0.010  51.946  1.00  0.00     0.006 C 
HETATM   12  C14 UNL     1      20.784  -0.035  51.290  1.00  0.00     0.002 C 
HETATM   13  C15 UNL     1      19.444   0.537  51.176  1.00  0.00     0.299 C 
HETATM   14  N3  UNL     1      19.179   1.272  49.961  1.00  0.00     0.095 N 
HETATM   15  C16 UNL     1      18.173   2.303  50.105  1.00  0.00     0.292 C 
HETATM   16  C21 UNL     1      20.367   1.750  49.298  1.00  0.00     0.292 C 
HETATM   17  C17 UNL     1      18.741   3.658  50.500  1.00  0.00     0.152 C 
HETATM   18  N4  UNL     1      20.082   3.417  50.966  1.00  0.00    -0.387 N 
HETATM   19  C18 UNL     1      20.731   3.402  52.283  1.00  0.00     0.084 C 
HETATM   20  C20 UNL     1      20.908   3.054  49.844  1.00  0.00     0.152 C 
HETATM   21  C19 UNL     1      21.379   2.238  52.615  1.00  0.00     0.025 C 
ENDBRANCH   9  10
ENDBRANCH   7   9
BRANCH   6  22
HETATM   22  N2  UNL     1      26.082   0.724  52.825  1.00  0.00    -0.378 N 
HETATM   23  H5  UNL     1      25.628   1.057  53.729  1.00  0.00     0.160 HD
BRANCH  22  24
HETATM   24  C5  UNL     1      27.302   0.078  53.116  1.00  0.00     0.050 A 
HETATM   25  C6  UNL     1      27.496  -1.293  53.087  1.00  0.00     0.031 A 
HETATM   26  C7  UNL     1      28.745  -1.770  53.371  1.00  0.00     0.002 A 
HETATM   27  C8  UNL     1      29.819  -0.968  53.684  1.00  0.00     0.002 A 
HETATM   28  C9  UNL     1      29.628   0.398  53.715  1.00  0.00     0.026 A 
HETATM   29  C10 UNL     1      28.370   0.885  53.428  1.00  0.00     0.060 A 
HETATM   30 CL1  UNL     1      28.381   2.642  53.505  1.00  0.00    -0.082 Cl
ENDBRANCH  22  24
ENDBRANCH   6  22
TORSDOF 4
ENDMDL
MODEL 7
REMARK VINA RESULT:      -7.9      1.935      4.489
REMARK  4 active torsions:
REMARK  status: ('A' for Active; 'I' for Inactive)
REMARK    1  A    between atoms: C4_6  and  N2_7 
REMARK    2  A    between atoms: N2_7  and  C5_8 
REMARK    3  A    between atoms: C11_15  and  O2_16 
REMARK    4  A    between atoms: O2_16  and  C12_17 
ROOT
HETATM    1  O1  UNL     1      22.669   1.261  50.160  1.00  0.00    -0.270 OA
HETATM    2  C1  UNL     1      22.594   1.018  51.414  1.00  0.00     0.253 C 
HETATM    3  N1  UNL     1      21.697   0.004  51.920  1.00  0.00    -0.335 N 
HETATM    4  C2  UNL     1      22.075  -0.646  53.158  1.00  0.00     0.089 C 
HETATM    5  C3  UNL     1      23.207  -0.330  53.818  1.00  0.00     0.018 C 
HETATM    6  C4  UNL     1      24.143   0.711  53.311  1.00  0.00     0.144 C 
HETATM    7  C11 UNL     1      23.374   1.706  52.466  1.00  0.00     0.241 C 
HETATM    8  H1  UNL     1      20.830  -0.206  51.369  1.00  0.00     0.168 HD
ENDROOT
BRANCH   7   9
HETATM    9  O2  UNL     1      24.329   2.569  51.963  1.00  0.00    -0.361 OA
BRANCH   9  10
HETATM   10  C12 UNL     1      24.007   3.896  51.944  1.00  0.00     0.169 C 
HETATM   11  C13 UNL     1      22.519   3.969  52.234  1.00  0.00     0.006 C 
HETATM   12  C14 UNL     1      21.841   5.038  51.787  1.00  0.00     0.002 C 
HETATM   13  C15 UNL     1      21.915   6.309  51.068  1.00  0.00     0.299 C 
HETATM   14  N3  UNL     1      21.215   6.355  49.805  1.00  0.00     0.095 N 
HETATM   15  C16 UNL     1      21.769   7.300  48.859  1.00  0.00     0.292 C 
HETATM   16  C21 UNL     1      20.986   5.058  49.218  1.00  0.00     0.292 C 
HETATM   17  C17 UNL     1      22.838   6.703  47.956  1.00  0.00     0.152 C 
HETATM   18  N4  UNL     1      23.234   5.457  48.561  1.00  0.00    -0.387 N 
HETATM   19  C18 UNL     1      24.416   4.999  49.302  1.00  0.00     0.084 C 
HETATM   20  C20 UNL     1      22.157   4.511  48.430  1.00  0.00     0.152 C 
HETATM   21  C19 UNL     1      24.173   4.482  50.551  1.00  0.00     0.025 C 
ENDBRANCH   9  10
ENDBRANCH   7   9
BRANCH   6  22
HETATM   22  N2  UNL     1      25.251   0.121  52.600  1.00  0.00    -0.378 N 
HETATM   23  H5  UNL     1      25.042   0.152  51.556  1.00  0.00     0.160 HD
BRANCH  22  24
HETATM   24  C5  UNL     1      26.507  -0.484  52.816  1.00  0.00     0.050 A 
HETATM   25  C6  UNL     1      26.796  -1.815  52.567  1.00  0.00     0.031 A 
HETATM   26  C7  UNL     1      28.069  -2.251  52.805  1.00  0.00     0.002 A 
HETATM   27  C8  UNL     1      29.079  -1.444  53.276  1.00  0.00     0.002 A 
HETATM   28  C9  UNL     1      28.795  -0.117  53.525  1.00  0.00     0.026 A 
HETATM   29  C10 UNL     1      27.512   0.328  53.286  1.00  0.00     0.060 A 
HETATM   30 CL1  UNL     1      27.400   2.046  53.649  1.00  0.00    -0.082 Cl
ENDBRANCH  22  24
ENDBRANCH   6  22
TORSDOF 4
ENDMDL
MODEL 8
REMARK VINA RESULT:      -7.8      7.924     11.104
REMARK  4 active torsions:
REMARK  status: ('A' for Active; 'I' for Inactive)
REMARK    1  A    between atoms: C4_6  and  N2_7 
REMARK    2  A    between atoms: N2_7  and  C5_8 
REMARK    3  A    between atoms: C11_15  and  O2_16 
REMARK    4  A    between atoms: O2_16  and  C12_17 
ROOT
HETATM    1  O1  UNL     1      30.723  10.818  45.509  1.00  0.00    -0.270 OA
HETATM    2  C1  UNL     1      31.074  10.758  46.739  1.00  0.00     0.253 C 
HETATM    3  N1  UNL     1      31.059  11.940  47.571  1.00  0.00    -0.335 N 
HETATM    4  C2  UNL     1      30.849  11.738  48.990  1.00  0.00     0.089 C 
HETATM    5  C3  UNL     1      30.675  10.513  49.522  1.00  0.00     0.018 C 
HETATM    6  C4  UNL     1      30.686   9.285  48.679  1.00  0.00     0.144 C 
HETATM    7  C11 UNL     1      31.522   9.536  47.441  1.00  0.00     0.241 C 
HETATM    8  H1  UNL     1      31.198  12.871  47.108  1.00  0.00     0.168 HD
ENDROOT
BRANCH   7   9
HETATM    9  O2  UNL     1      31.396   8.390  46.680  1.00  0.00    -0.361 OA
BRANCH   9  10
HETATM   10  C12 UNL     1      32.554   7.819  46.235  1.00  0.00     0.169 C 
HETATM   11  C13 UNL     1      32.161   6.935  45.065  1.00  0.00     0.006 C 
HETATM   12  C14 UNL     1      32.954   5.893  44.768  1.00  0.00     0.002 C 
HETATM   13  C15 UNL     1      34.169   5.156  45.109  1.00  0.00     0.299 C 
HETATM   14  N3  UNL     1      33.968   3.816  45.610  1.00  0.00     0.095 N 
HETATM   15  C16 UNL     1      35.021   3.351  46.487  1.00  0.00     0.292 C 
HETATM   16  C21 UNL     1      32.654   3.589  46.158  1.00  0.00     0.292 C 
HETATM   17  C17 UNL     1      34.773   3.664  47.955  1.00  0.00     0.152 C 
HETATM   18  N4  UNL     1      33.727   4.654  47.991  1.00  0.00    -0.387 N 
HETATM   19  C18 UNL     1      33.678   6.095  48.267  1.00  0.00     0.084 C 
HETATM   20  C20 UNL     1      32.488   4.038  47.594  1.00  0.00     0.152 C 
HETATM   21  C19 UNL     1      33.135   6.874  47.274  1.00  0.00     0.025 C 
ENDBRANCH   9  10
ENDBRANCH   7   9
BRANCH   6  22
HETATM   22  N2  UNL     1      29.347   8.850  48.365  1.00  0.00    -0.378 N 
HETATM   23  H5  UNL     1      28.844   9.637  47.852  1.00  0.00     0.160 HD
BRANCH  22  24
HETATM   24  C5  UNL     1      28.480   7.747  48.508  1.00  0.00     0.050 A 
HETATM   25  C6  UNL     1      28.797   6.444  48.161  1.00  0.00     0.031 A 
HETATM   26  C7  UNL     1      27.859   5.475  48.382  1.00  0.00     0.002 A 
HETATM   27  C8  UNL     1      26.620   5.719  48.929  1.00  0.00     0.002 A 
HETATM   28  C9  UNL     1      26.301   7.016  49.276  1.00  0.00     0.026 A 
HETATM   29  C10 UNL     1      27.245   7.998  49.056  1.00  0.00     0.060 A 
HETATM   30 CL1  UNL     1      26.625   9.552  49.597  1.00  0.00    -0.082 Cl
ENDBRANCH  22  24
ENDBRANCH   6  22
TORSDOF 4
ENDMDL
MODEL 9
REMARK VINA RESULT:      -7.7      3.336      5.246
REMARK  4 active torsions:
REMARK  status: ('A' for Active; 'I' for Inactive)
REMARK    1  A    between atoms: C4_6  and  N2_7 
REMARK    2  A    between atoms: N2_7  and  C5_8 
REMARK    3  A    between atoms: C11_15  and  O2_16 
REMARK    4  A    between atoms: O2_16  and  C12_17 
ROOT
HETATM    1  O1  UNL     1      24.274   6.313  51.394  1.00  0.00    -0.270 OA
HETATM    2  C1  UNL     1      24.724   5.518  50.497  1.00  0.00     0.253 C 
HETATM    3  N1  UNL     1      26.062   5.674  49.973  1.00  0.00    -0.335 N 
HETATM    4  C2  UNL     1      26.717   4.477  49.486  1.00  0.00     0.089 C 
HETATM    5  C3  UNL     1      26.119   3.271  49.513  1.00  0.00     0.018 C 
HETATM    6  C4  UNL     1      24.741   3.091  50.049  1.00  0.00     0.144 C 
HETATM    7  C11 UNL     1      23.975   4.390  49.901  1.00  0.00     0.241 C 
HETATM    8  H1  UNL     1      26.484   6.634  49.976  1.00  0.00     0.168 HD
ENDROOT
BRANCH   7   9
HETATM    9  O2  UNL     1      22.755   4.162  50.508  1.00  0.00    -0.361 OA
BRANCH   9  10
HETATM   10  C12 UNL     1      21.672   4.050  49.685  1.00  0.00     0.169 C 
HETATM   11  C13 UNL     1      20.632   5.014  50.228  1.00  0.00     0.006 C 
HETATM   12  C14 UNL     1      19.340   4.763  49.964  1.00  0.00     0.002 C 
HETATM   13  C15 UNL     1      18.386   3.872  49.304  1.00  0.00     0.299 C 
HETATM   14  N3  UNL     1      17.509   3.134  50.183  1.00  0.00     0.095 N 
HETATM   15  C16 UNL     1      17.047   1.878  49.634  1.00  0.00     0.292 C 
HETATM   16  C21 UNL     1      18.010   2.997  51.528  1.00  0.00     0.292 C 
HETATM   17  C17 UNL     1      17.950   0.699  49.964  1.00  0.00     0.152 C 
HETATM   18  N4  UNL     1      19.196   1.257  50.426  1.00  0.00    -0.387 N 
HETATM   19  C18 UNL     1      20.541   1.393  49.855  1.00  0.00     0.084 C 
HETATM   20  C20 UNL     1      18.988   1.856  51.718  1.00  0.00     0.152 C 
HETATM   21  C19 UNL     1      21.037   2.673  49.796  1.00  0.00     0.025 C 
ENDBRANCH   9  10
ENDBRANCH   7   9
BRANCH   6  22
HETATM   22  N2  UNL     1      24.765   2.615  51.411  1.00  0.00    -0.378 N 
HETATM   23  H5  UNL     1      25.379   3.264  51.990  1.00  0.00     0.160 HD
BRANCH  22  24
HETATM   24  C5  UNL     1      24.258   1.584  52.229  1.00  0.00     0.050 A 
HETATM   25  C6  UNL     1      22.959   1.520  52.707  1.00  0.00     0.031 A 
HETATM   26  C7  UNL     1      22.609   0.444  53.472  1.00  0.00     0.002 A 
HETATM   27  C8  UNL     1      23.471  -0.579  53.795  1.00  0.00     0.002 A 
HETATM   28  C9  UNL     1      24.765  -0.519  53.322  1.00  0.00     0.026 A 
HETATM   29  C10 UNL     1      25.124   0.565  52.548  1.00  0.00     0.060 A 
HETATM   30 CL1  UNL     1      26.802   0.407  52.044  1.00  0.00    -0.082 Cl
ENDBRANCH  22  24
ENDBRANCH   6  22
TORSDOF 4
ENDMDL
