MODEL 1
REMARK VINA RESULT:     -10.1      0.000      0.000
REMARK  2 active torsions:
REMARK  status: ('A' for Active; 'I' for Inactive)
REMARK    1  A    between atoms: C2_2  and  O1_3 
REMARK    2  A    between atoms: O1_3  and  C3_4 
ROOT
HETATM    1  C3  UNL     1      26.159  -0.178  54.439  1.00  0.00     0.070 A 
HETATM    2  C4  UNL     1      26.024   0.842  53.491  1.00  0.00     0.038 A 
HETATM    3  C5  UNL     1      24.755   1.080  52.986  1.00  0.00     0.017 A 
HETATM    4  C6  UNL     1      23.615   0.367  53.366  1.00  0.00     0.005 A 
HETATM    5  C7  UNL     1      22.379   0.666  52.813  1.00  0.00     0.009 A 
HETATM    6  C8  UNL     1      22.355   1.737  51.844  1.00  0.00    -0.021 A 
HETATM    7  C9  UNL     1      22.543   1.407  50.540  1.00  0.00     0.039 A 
HETATM    8  C10 UNL     1      22.528   2.397  49.586  1.00  0.00     0.068 A 
HETATM    9 CL1  UNL     1      22.754   2.109  47.873  1.00  0.00    -0.081 Cl
HETATM   10  C11 UNL     1      22.334   3.717  49.855  1.00  0.00     0.097 A 
HETATM   11  C12 UNL     1      22.140   4.076  51.190  1.00  0.00    -0.017 A 
HETATM   12  C13 UNL     1      22.152   3.083  52.171  1.00  0.00     0.022 A 
HETATM   13  C14 UNL     1      21.903   5.398  51.831  1.00  0.00     0.088 C 
HETATM   14  C15 UNL     1      21.773   6.463  50.779  1.00  0.00     0.088 C 
HETATM   15  N1  UNL     1      22.722   7.169  50.344  1.00  0.00    -0.302 NA
HETATM   16  C16 UNL     1      22.536   8.177  49.332  1.00  0.00     0.175 C 
HETATM   17  C17 UNL     1      22.196   7.570  48.036  1.00  0.00    -0.007 C 
HETATM   18  C18 UNL     1      21.973   6.424  47.403  1.00  0.00    -0.003 C 
HETATM   19  C19 UNL     1      21.964   4.969  47.790  1.00  0.00     0.203 C 
HETATM   20  O2  UNL     1      22.270   4.886  49.153  1.00  0.00    -0.345 OA
HETATM   21  C20 UNL     1      21.306  -0.094  53.250  1.00  0.00     0.074 A 
HETATM   22  C21 UNL     1      20.040   0.225  52.670  1.00  0.00     0.102 C 
HETATM   23  N2  UNL     1      19.004   0.480  52.218  1.00  0.00    -0.191 NA
HETATM   24  C22 UNL     1      21.512  -1.085  54.188  1.00  0.00     0.140 A 
HETATM   25  N3  UNL     1      22.738  -1.332  54.690  1.00  0.00    -0.259 NA
HETATM   26  C23 UNL     1      23.818  -0.626  54.304  1.00  0.00     0.070 A 
HETATM   27  C24 UNL     1      25.054  -0.902  54.837  1.00  0.00     0.069 A 
ENDROOT
BRANCH   1  28
HETATM   28  O1  UNL     1      27.466  -0.333  54.879  1.00  0.00    -0.351 OA
BRANCH  28  29
HETATM   29  C2  UNL     1      28.588   0.319  54.375  1.00  0.00     0.171 C 
HETATM   30  C1  UNL     1      29.567  -0.631  53.715  1.00  0.00     0.034 C 
ENDBRANCH  28  29
ENDBRANCH   1  28
TORSDOF 2
ENDMDL
MODEL 2
REMARK VINA RESULT:      -9.1      1.658      2.009
REMARK  2 active torsions:
REMARK  status: ('A' for Active; 'I' for Inactive)
REMARK    1  A    between atoms: C2_2  and  O1_3 
REMARK    2  A    between atoms: O1_3  and  C3_4 
ROOT
HETATM    1  C3  UNL     1      26.440  -0.080  52.457  1.00  0.00     0.070 A 
HETATM    2  C4  UNL     1      26.407   1.007  51.576  1.00  0.00     0.038 A 
HETATM    3  C5  UNL     1      25.211   1.696  51.456  1.00  0.00     0.017 A 
HETATM    4  C6  UNL     1      24.047   1.371  52.156  1.00  0.00     0.005 A 
HETATM    5  C7  UNL     1      22.887   2.110  51.980  1.00  0.00     0.009 A 
HETATM    6  C8  UNL     1      22.967   3.210  51.046  1.00  0.00    -0.021 A 
HETATM    7  C9  UNL     1      22.665   2.953  49.748  1.00  0.00     0.039 A 
HETATM    8  C10 UNL     1      22.728   3.971  48.826  1.00  0.00     0.068 A 
HETATM    9 CL1  UNL     1      22.362   3.777  47.125  1.00  0.00    -0.081 Cl
HETATM   10  C11 UNL     1      23.081   5.252  49.124  1.00  0.00     0.097 A 
HETATM   11  C12 UNL     1      23.397   5.536  50.454  1.00  0.00    -0.017 A 
HETATM   12  C13 UNL     1      23.336   4.513  51.402  1.00  0.00     0.022 A 
HETATM   13  C14 UNL     1      23.814   6.800  51.120  1.00  0.00     0.088 C 
HETATM   14  C15 UNL     1      23.773   7.936  50.137  1.00  0.00     0.088 C 
HETATM   15  N1  UNL     1      24.748   8.323  49.439  1.00  0.00    -0.302 NA
HETATM   16  C16 UNL     1      24.649   9.420  48.511  1.00  0.00     0.175 C 
HETATM   17  C17 UNL     1      23.779   9.077  47.376  1.00  0.00    -0.007 C 
HETATM   18  C18 UNL     1      23.011   8.130  46.848  1.00  0.00    -0.003 C 
HETATM   19  C19 UNL     1      22.611   6.733  47.238  1.00  0.00     0.203 C 
HETATM   20  O2  UNL     1      23.231   6.433  48.457  1.00  0.00    -0.345 OA
HETATM   21  C20 UNL     1      21.783   1.714  52.716  1.00  0.00     0.074 A 
HETATM   22  C21 UNL     1      20.595   2.486  52.522  1.00  0.00     0.102 C 
HETATM   23  N2  UNL     1      19.628   3.108  52.385  1.00  0.00    -0.191 NA
HETATM   24  C22 UNL     1      21.885   0.632  53.567  1.00  0.00     0.140 A 
HETATM   25  N3  UNL     1      23.040  -0.050  53.698  1.00  0.00    -0.259 NA
HETATM   26  C23 UNL     1      24.146   0.289  53.009  1.00  0.00     0.070 A 
HETATM   27  C24 UNL     1      25.308  -0.428  53.166  1.00  0.00     0.069 A 
ENDROOT
BRANCH   1  28
HETATM   28  O1  UNL     1      27.682  -0.698  52.504  1.00  0.00    -0.351 OA
BRANCH  28  29
HETATM   29  C2  UNL     1      28.411  -0.997  53.651  1.00  0.00     0.171 C 
HETATM   30  C1  UNL     1      29.377   0.107  54.031  1.00  0.00     0.034 C 
ENDBRANCH  28  29
ENDBRANCH   1  28
TORSDOF 2
ENDMDL
MODEL 3
REMARK VINA RESULT:      -9.1      2.848      5.070
REMARK  2 active torsions:
REMARK  status: ('A' for Active; 'I' for Inactive)
REMARK    1  A    between atoms: C2_2  and  O1_3 
REMARK    2  A    between atoms: O1_3  and  C3_4 
ROOT
HETATM    1  C3  UNL     1      20.255  -1.159  53.662  1.00  0.00     0.070 A 
HETATM    2  C4  UNL     1      19.935  -0.173  52.722  1.00  0.00     0.038 A 
HETATM    3  C5  UNL     1      20.977   0.587  52.215  1.00  0.00     0.017 A 
HETATM    4  C6  UNL     1      22.315   0.428  52.585  1.00  0.00     0.005 A 
HETATM    5  C7  UNL     1      23.301   1.230  52.032  1.00  0.00     0.009 A 
HETATM    6  C8  UNL     1      22.858   2.214  51.072  1.00  0.00    -0.021 A 
HETATM    7  C9  UNL     1      22.520   3.442  51.544  1.00  0.00     0.039 A 
HETATM    8  C10 UNL     1      22.093   4.409  50.664  1.00  0.00     0.068 A 
HETATM    9 CL1  UNL     1      21.630   6.029  51.139  1.00  0.00    -0.081 Cl
HETATM   10  C11 UNL     1      21.981   4.224  49.320  1.00  0.00     0.097 A 
HETATM   11  C12 UNL     1      22.324   2.968  48.816  1.00  0.00    -0.017 A 
HETATM   12  C13 UNL     1      22.760   1.976  49.696  1.00  0.00     0.022 A 
HETATM   13  C14 UNL     1      22.322   2.429  47.428  1.00  0.00     0.088 C 
HETATM   14  C15 UNL     1      21.967   3.517  46.455  1.00  0.00     0.088 C 
HETATM   15  N1  UNL     1      20.801   3.770  46.048  1.00  0.00    -0.302 NA
HETATM   16  C16 UNL     1      20.520   4.828  45.112  1.00  0.00     0.175 C 
HETATM   17  C17 UNL     1      20.755   6.147  45.718  1.00  0.00    -0.007 C 
HETATM   18  C18 UNL     1      21.147   6.778  46.820  1.00  0.00    -0.003 C 
HETATM   19  C19 UNL     1      21.611   6.358  48.188  1.00  0.00     0.203 C 
HETATM   20  O2  UNL     1      21.602   4.959  48.234  1.00  0.00    -0.345 OA
HETATM   21  C20 UNL     1      24.598   0.999  52.460  1.00  0.00     0.074 A 
HETATM   22  C21 UNL     1      25.603   1.835  51.881  1.00  0.00     0.102 C 
HETATM   23  N2  UNL     1      26.430   2.497  51.412  1.00  0.00    -0.191 NA
HETATM   24  C22 UNL     1      24.842   0.010  53.390  1.00  0.00     0.140 A 
HETATM   25  N3  UNL     1      23.842  -0.739  53.895  1.00  0.00    -0.259 NA
HETATM   26  C23 UNL     1      22.562  -0.562  53.517  1.00  0.00     0.070 A 
HETATM   27  C24 UNL     1      21.566  -1.345  54.050  1.00  0.00     0.069 A 
ENDROOT
BRANCH   1  28
HETATM   28  O1  UNL     1      19.142  -1.862  54.104  1.00  0.00    -0.351 OA
BRANCH  28  29
HETATM   29  C2  UNL     1      17.939  -2.015  53.420  1.00  0.00     0.171 C 
HETATM   30  C1  UNL     1      17.351  -3.402  53.579  1.00  0.00     0.034 C 
ENDBRANCH  28  29
ENDBRANCH   1  28
TORSDOF 2
ENDMDL
MODEL 4
REMARK VINA RESULT:      -8.7      3.011      5.846
REMARK  2 active torsions:
REMARK  status: ('A' for Active; 'I' for Inactive)
REMARK    1  A    between atoms: C2_2  and  O1_3 
REMARK    2  A    between atoms: O1_3  and  C3_4 
ROOT
HETATM    1  C3  UNL     1      17.643  -1.104  52.983  1.00  0.00     0.070 A 
HETATM    2  C4  UNL     1      17.875  -0.070  52.070  1.00  0.00     0.038 A 
HETATM    3  C5  UNL     1      19.179   0.377  51.927  1.00  0.00     0.017 A 
HETATM    4  C6  UNL     1      20.266  -0.143  52.635  1.00  0.00     0.005 A 
HETATM    5  C7  UNL     1      21.543   0.359  52.436  1.00  0.00     0.009 A 
HETATM    6  C8  UNL     1      21.666   1.426  51.470  1.00  0.00    -0.021 A 
HETATM    7  C9  UNL     1      21.542   2.700  51.925  1.00  0.00     0.039 A 
HETATM    8  C10 UNL     1      21.652   3.746  51.039  1.00  0.00     0.068 A 
HETATM    9 CL1  UNL     1      21.516   5.432  51.493  1.00  0.00    -0.081 Cl
HETATM   10  C11 UNL     1      21.882   3.598  49.706  1.00  0.00     0.097 A 
HETATM   11  C12 UNL     1      22.012   2.296  49.219  1.00  0.00    -0.017 A 
HETATM   12  C13 UNL     1      21.903   1.223  50.106  1.00  0.00     0.022 A 
HETATM   13  C14 UNL     1      22.263   1.777  47.847  1.00  0.00     0.088 C 
HETATM   14  C15 UNL     1      22.497   2.920  46.900  1.00  0.00     0.088 C 
HETATM   15  N1  UNL     1      21.604   3.481  46.211  1.00  0.00    -0.302 NA
HETATM   16  C16 UNL     1      21.888   4.576  45.318  1.00  0.00     0.175 C 
HETATM   17  C17 UNL     1      22.279   5.781  46.065  1.00  0.00    -0.007 C 
HETATM   18  C18 UNL     1      22.494   6.281  47.277  1.00  0.00    -0.003 C 
HETATM   19  C19 UNL     1      22.422   5.751  48.684  1.00  0.00     0.203 C 
HETATM   20  O2  UNL     1      22.034   4.408  48.618  1.00  0.00    -0.345 OA
HETATM   21  C20 UNL     1      22.557  -0.217  53.183  1.00  0.00     0.074 A 
HETATM   22  C21 UNL     1      23.867   0.312  52.967  1.00  0.00     0.102 C 
HETATM   23  N2  UNL     1      24.937   0.721  52.795  1.00  0.00    -0.191 NA
HETATM   24  C22 UNL     1      22.258  -1.235  54.066  1.00  0.00     0.140 A 
HETATM   25  N3  UNL     1      20.996  -1.682  54.218  1.00  0.00    -0.259 NA
HETATM   26  C23 UNL     1      19.969  -1.161  53.520  1.00  0.00     0.070 A 
HETATM   27  C24 UNL     1      18.693  -1.641  53.699  1.00  0.00     0.069 A 
ENDROOT
BRANCH   1  28
HETATM   28  O1  UNL     1      16.307  -1.475  53.048  1.00  0.00    -0.351 OA
BRANCH  28  29
HETATM   29  C2  UNL     1      15.266  -0.939  52.296  1.00  0.00     0.171 C 
HETATM   30  C1  UNL     1      14.451   0.077  53.071  1.00  0.00     0.034 C 
ENDBRANCH  28  29
ENDBRANCH   1  28
TORSDOF 2
ENDMDL
MODEL 5
REMARK VINA RESULT:      -8.6      2.939      5.013
REMARK  2 active torsions:
REMARK  status: ('A' for Active; 'I' for Inactive)
REMARK    1  A    between atoms: C2_2  and  O1_3 
REMARK    2  A    between atoms: O1_3  and  C3_4 
ROOT
HETATM    1  C3  UNL     1      23.440  -0.093  53.445  1.00  0.00     0.070 A 
HETATM    2  C4  UNL     1      22.525   0.635  52.677  1.00  0.00     0.038 A 
HETATM    3  C5  UNL     1      23.036   1.574  51.794  1.00  0.00     0.017 A 
HETATM    4  C6  UNL     1      24.400   1.831  51.628  1.00  0.00     0.005 A 
HETATM    5  C7  UNL     1      24.832   2.787  50.723  1.00  0.00     0.009 A 
HETATM    6  C8  UNL     1      23.802   3.480  49.984  1.00  0.00    -0.021 A 
HETATM    7  C9  UNL     1      23.304   4.622  50.523  1.00  0.00     0.039 A 
HETATM    8  C10 UNL     1      22.322   5.312  49.853  1.00  0.00     0.068 A 
HETATM    9 CL1  UNL     1      21.597   6.797  50.434  1.00  0.00    -0.081 Cl
HETATM   10  C11 UNL     1      21.795   4.927  48.658  1.00  0.00     0.097 A 
HETATM   11  C12 UNL     1      22.294   3.754  48.088  1.00  0.00    -0.017 A 
HETATM   12  C13 UNL     1      23.292   3.042  48.756  1.00  0.00     0.022 A 
HETATM   13  C14 UNL     1      21.956   3.054  46.819  1.00  0.00     0.088 C 
HETATM   14  C15 UNL     1      20.966   3.866  46.032  1.00  0.00     0.088 C 
HETATM   15  N1  UNL     1      19.714   3.739  46.096  1.00  0.00    -0.302 NA
HETATM   16  C16 UNL     1      18.813   4.548  45.317  1.00  0.00     0.175 C 
HETATM   17  C17 UNL     1      18.843   5.951  45.759  1.00  0.00    -0.007 C 
HETATM   18  C18 UNL     1      19.396   6.805  46.613  1.00  0.00    -0.003 C 
HETATM   19  C19 UNL     1      20.423   6.711  47.709  1.00  0.00     0.203 C 
HETATM   20  O2  UNL     1      20.851   5.381  47.784  1.00  0.00    -0.345 OA
HETATM   21  C20 UNL     1      26.202   2.974  50.627  1.00  0.00     0.074 A 
HETATM   22  C21 UNL     1      26.631   3.964  49.690  1.00  0.00     0.102 C 
HETATM   23  N2  UNL     1      26.997   4.755  48.927  1.00  0.00    -0.191 NA
HETATM   24  C22 UNL     1      27.048   2.220  51.415  1.00  0.00     0.140 A 
HETATM   25  N3  UNL     1      26.569   1.303  52.279  1.00  0.00    -0.259 NA
HETATM   26  C23 UNL     1      25.249   1.078  52.416  1.00  0.00     0.070 A 
HETATM   27  C24 UNL     1      24.794   0.134  53.306  1.00  0.00     0.069 A 
ENDROOT
BRANCH   1  28
HETATM   28  O1  UNL     1      22.826  -1.004  54.293  1.00  0.00    -0.351 OA
BRANCH  28  29
HETATM   29  C2  UNL     1      21.569  -0.868  54.877  1.00  0.00     0.171 C 
HETATM   30  C1  UNL     1      20.508  -1.690  54.176  1.00  0.00     0.034 C 
ENDBRANCH  28  29
ENDBRANCH   1  28
TORSDOF 2
ENDMDL
MODEL 6
REMARK VINA RESULT:      -8.3      4.497      7.946
REMARK  2 active torsions:
REMARK  status: ('A' for Active; 'I' for Inactive)
REMARK    1  A    between atoms: C2_2  and  O1_3 
REMARK    2  A    between atoms: O1_3  and  C3_4 
ROOT
HETATM    1  C3  UNL     1      29.357   5.987  47.871  1.00  0.00     0.070 A 
HETATM    2  C4  UNL     1      28.466   5.089  48.471  1.00  0.00     0.038 A 
HETATM    3  C5  UNL     1      27.169   5.526  48.687  1.00  0.00     0.017 A 
HETATM    4  C6  UNL     1      26.704   6.799  48.344  1.00  0.00     0.005 A 
HETATM    5  C7  UNL     1      25.389   7.160  48.594  1.00  0.00     0.009 A 
HETATM    6  C8  UNL     1      24.558   6.156  49.217  1.00  0.00    -0.021 A 
HETATM    7  C9  UNL     1      24.513   6.133  50.574  1.00  0.00     0.039 A 
HETATM    8  C10 UNL     1      23.734   5.193  51.207  1.00  0.00     0.068 A 
HETATM    9 CL1  UNL     1      23.585   5.055  52.946  1.00  0.00    -0.081 Cl
HETATM   10  C11 UNL     1      22.985   4.258  50.559  1.00  0.00     0.097 A 
HETATM   11  C12 UNL     1      23.019   4.266  49.163  1.00  0.00    -0.017 A 
HETATM   12  C13 UNL     1      23.804   5.215  48.506  1.00  0.00     0.022 A 
HETATM   13  C14 UNL     1      22.337   3.408  48.156  1.00  0.00     0.088 C 
HETATM   14  C15 UNL     1      21.399   2.456  48.843  1.00  0.00     0.088 C 
HETATM   15  N1  UNL     1      21.696   1.288  49.210  1.00  0.00    -0.302 NA
HETATM   16  C16 UNL     1      20.753   0.419  49.866  1.00  0.00     0.175 C 
HETATM   17  C17 UNL     1      20.419   0.917  51.209  1.00  0.00    -0.007 C 
HETATM   18  C18 UNL     1      20.638   1.888  52.089  1.00  0.00    -0.003 C 
HETATM   19  C19 UNL     1      21.473   3.139  52.119  1.00  0.00     0.203 C 
HETATM   20  O2  UNL     1      22.146   3.236  50.895  1.00  0.00    -0.345 OA
HETATM   21  C20 UNL     1      25.019   8.442  48.221  1.00  0.00     0.074 A 
HETATM   22  C21 UNL     1      23.661   8.800  48.487  1.00  0.00     0.102 C 
HETATM   23  N2  UNL     1      22.560   9.102  48.684  1.00  0.00    -0.191 NA
HETATM   24  C22 UNL     1      25.950   9.275  47.634  1.00  0.00     0.140 A 
HETATM   25  N3  UNL     1      27.215   8.869  47.416  1.00  0.00    -0.259 NA
HETATM   26  C23 UNL     1      27.633   7.634  47.757  1.00  0.00     0.070 A 
HETATM   27  C24 UNL     1      28.932   7.251  47.520  1.00  0.00     0.069 A 
ENDROOT
BRANCH   1  28
HETATM   28  O1  UNL     1      30.626   5.451  47.700  1.00  0.00    -0.351 OA
BRANCH  28  29
HETATM   29  C2  UNL     1      31.819   5.989  48.175  1.00  0.00     0.171 C 
HETATM   30  C1  UNL     1      31.882   6.023  49.688  1.00  0.00     0.034 C 
ENDBRANCH  28  29
ENDBRANCH   1  28
TORSDOF 2
ENDMDL
MODEL 7
REMARK VINA RESULT:      -8.0      4.229      9.084
REMARK  2 active torsions:
REMARK  status: ('A' for Active; 'I' for Inactive)
REMARK    1  A    between atoms: C2_2  and  O1_3 
REMARK    2  A    between atoms: O1_3  and  C3_4 
ROOT
HETATM    1  C3  UNL     1      27.045  10.627  48.918  1.00  0.00     0.070 A 
HETATM    2  C4  UNL     1      27.011   9.539  49.797  1.00  0.00     0.038 A 
HETATM    3  C5  UNL     1      26.172   8.484  49.475  1.00  0.00     0.017 A 
HETATM    4  C6  UNL     1      25.367   8.444  48.334  1.00  0.00     0.005 A 
HETATM    5  C7  UNL     1      24.553   7.350  48.082  1.00  0.00     0.009 A 
HETATM    6  C8  UNL     1      24.596   6.285  49.057  1.00  0.00    -0.021 A 
HETATM    7  C9  UNL     1      23.717   6.344  50.090  1.00  0.00     0.039 A 
HETATM    8  C10 UNL     1      23.724   5.350  51.040  1.00  0.00     0.068 A 
HETATM    9 CL1  UNL     1      22.645   5.305  52.418  1.00  0.00    -0.081 Cl
HETATM   10  C11 UNL     1      24.569   4.282  51.023  1.00  0.00     0.097 A 
HETATM   11  C12 UNL     1      25.480   4.204  49.968  1.00  0.00    -0.017 A 
HETATM   12  C13 UNL     1      25.485   5.205  48.996  1.00  0.00     0.022 A 
HETATM   13  C14 UNL     1      26.526   3.196  49.643  1.00  0.00     0.088 C 
HETATM   14  C15 UNL     1      26.458   2.053  50.615  1.00  0.00     0.088 C 
HETATM   15  N1  UNL     1      27.124   1.971  51.682  1.00  0.00    -0.302 NA
HETATM   16  C16 UNL     1      27.017   0.848  52.578  1.00  0.00     0.175 C 
HETATM   17  C17 UNL     1      25.696   0.809  53.223  1.00  0.00    -0.007 C 
HETATM   18  C18 UNL     1      24.514   1.410  53.307  1.00  0.00    -0.003 C 
HETATM   19  C19 UNL     1      23.876   2.615  52.669  1.00  0.00     0.203 C 
HETATM   20  O2  UNL     1      24.808   3.180  51.792  1.00  0.00    -0.345 OA
HETATM   21  C20 UNL     1      23.790   7.400  46.927  1.00  0.00     0.074 A 
HETATM   22  C21 UNL     1      22.955   6.266  46.682  1.00  0.00     0.102 C 
HETATM   23  N2  UNL     1      22.283   5.349  46.463  1.00  0.00    -0.191 NA
HETATM   24  C22 UNL     1      23.873   8.505  46.104  1.00  0.00     0.140 A 
HETATM   25  N3  UNL     1      24.683   9.540  46.400  1.00  0.00    -0.259 NA
HETATM   26  C23 UNL     1      25.448   9.549  47.509  1.00  0.00     0.070 A 
HETATM   27  C24 UNL     1      26.264  10.621  47.781  1.00  0.00     0.069 A 
ENDROOT
BRANCH   1  28
HETATM   28  O1  UNL     1      27.915  11.626  49.332  1.00  0.00    -0.351 OA
BRANCH  28  29
HETATM   29  C2  UNL     1      29.046  12.069  48.651  1.00  0.00     0.171 C 
HETATM   30  C1  UNL     1      30.267  11.218  48.934  1.00  0.00     0.034 C 
ENDBRANCH  28  29
ENDBRANCH   1  28
TORSDOF 2
ENDMDL
MODEL 8
REMARK VINA RESULT:      -8.0      8.441     12.377
REMARK  2 active torsions:
REMARK  status: ('A' for Active; 'I' for Inactive)
REMARK    1  A    between atoms: C2_2  and  O1_3 
REMARK    2  A    between atoms: O1_3  and  C3_4 
ROOT
HETATM    1  C3  UNL     1      25.826   8.457  48.788  1.00  0.00     0.070 A 
HETATM    2  C4  UNL     1      26.759   7.552  48.272  1.00  0.00     0.038 A 
HETATM    3  C5  UNL     1      28.042   8.021  48.036  1.00  0.00     0.017 A 
HETATM    4  C6  UNL     1      28.452   9.334  48.282  1.00  0.00     0.005 A 
HETATM    5  C7  UNL     1      29.755   9.727  48.019  1.00  0.00     0.009 A 
HETATM    6  C8  UNL     1      30.634   8.711  47.488  1.00  0.00    -0.021 A 
HETATM    7  C9  UNL     1      30.699   8.582  46.138  1.00  0.00     0.039 A 
HETATM    8  C10 UNL     1      31.523   7.627  45.590  1.00  0.00     0.068 A 
HETATM    9 CL1  UNL     1      31.702   7.358  43.869  1.00  0.00    -0.081 Cl
HETATM   10  C11 UNL     1      32.298   6.777  46.318  1.00  0.00     0.097 A 
HETATM   11  C12 UNL     1      32.244   6.894  47.709  1.00  0.00    -0.017 A 
HETATM   12  C13 UNL     1      31.413   7.859  48.280  1.00  0.00     0.022 A 
HETATM   13  C14 UNL     1      32.944   6.145  48.789  1.00  0.00     0.088 C 
HETATM   14  C15 UNL     1      33.928   5.180  48.190  1.00  0.00     0.088 C 
HETATM   15  N1  UNL     1      33.682   3.976  47.914  1.00  0.00    -0.302 NA
HETATM   16  C16 UNL     1      34.667   3.096  47.339  1.00  0.00     0.175 C 
HETATM   17  C17 UNL     1      35.001   3.499  45.965  1.00  0.00    -0.007 C 
HETATM   18  C18 UNL     1      34.757   4.388  45.008  1.00  0.00    -0.003 C 
HETATM   19  C19 UNL     1      33.875   5.599  44.870  1.00  0.00     0.203 C 
HETATM   20  O2  UNL     1      33.181   5.765  46.074  1.00  0.00    -0.345 OA
HETATM   21  C20 UNL     1      30.071  11.048  48.294  1.00  0.00     0.074 A 
HETATM   22  C21 UNL     1      31.417  11.438  48.016  1.00  0.00     0.102 C 
HETATM   23  N2  UNL     1      32.508  11.766  47.808  1.00  0.00    -0.191 NA
HETATM   24  C22 UNL     1      29.100  11.887  48.802  1.00  0.00     0.140 A 
HETATM   25  N3  UNL     1      27.848  11.449  49.038  1.00  0.00    -0.259 NA
HETATM   26  C23 UNL     1      27.483  10.176  48.791  1.00  0.00     0.070 A 
HETATM   27  C24 UNL     1      26.197   9.762  49.043  1.00  0.00     0.069 A 
ENDROOT
BRANCH   1  28
HETATM   28  O1  UNL     1      24.576   7.887  48.987  1.00  0.00    -0.351 OA
BRANCH  28  29
HETATM   29  C2  UNL     1      23.842   7.903  50.170  1.00  0.00     0.171 C 
HETATM   30  C1  UNL     1      24.386   6.943  51.208  1.00  0.00     0.034 C 
ENDBRANCH  28  29
ENDBRANCH   1  28
TORSDOF 2
ENDMDL
MODEL 9
REMARK VINA RESULT:      -7.7      7.082      9.225
REMARK  2 active torsions:
REMARK  status: ('A' for Active; 'I' for Inactive)
REMARK    1  A    between atoms: C2_2  and  O1_3 
REMARK    2  A    between atoms: O1_3  and  C3_4 
ROOT
HETATM    1  C3  UNL     1      31.225   5.419  48.112  1.00  0.00     0.070 A 
HETATM    2  C4  UNL     1      29.844   5.208  48.034  1.00  0.00     0.038 A 
HETATM    3  C5  UNL     1      29.019   6.312  48.181  1.00  0.00     0.017 A 
HETATM    4  C6  UNL     1      29.483   7.611  48.401  1.00  0.00     0.005 A 
HETATM    5  C7  UNL     1      28.592   8.664  48.539  1.00  0.00     0.009 A 
HETATM    6  C8  UNL     1      27.190   8.331  48.441  1.00  0.00    -0.021 A 
HETATM    7  C9  UNL     1      26.542   8.004  49.589  1.00  0.00     0.039 A 
HETATM    8  C10 UNL     1      25.206   7.680  49.541  1.00  0.00     0.068 A 
HETATM    9 CL1  UNL     1      24.254   7.242  50.943  1.00  0.00    -0.081 Cl
HETATM   10  C11 UNL     1      24.464   7.662  48.399  1.00  0.00     0.097 A 
HETATM   11  C12 UNL     1      25.113   7.996  47.209  1.00  0.00    -0.017 A 
HETATM   12  C13 UNL     1      26.469   8.328  47.242  1.00  0.00     0.022 A 
HETATM   13  C14 UNL     1      24.619   8.078  45.807  1.00  0.00     0.088 C 
HETATM   14  C15 UNL     1      23.137   7.837  45.770  1.00  0.00     0.088 C 
HETATM   15  N1  UNL     1      22.592   6.715  45.588  1.00  0.00    -0.302 NA
HETATM   16  C16 UNL     1      21.162   6.543  45.562  1.00  0.00     0.175 C 
HETATM   17  C17 UNL     1      20.576   6.781  46.890  1.00  0.00    -0.007 C 
HETATM   18  C18 UNL     1      20.844   7.112  48.148  1.00  0.00    -0.003 C 
HETATM   19  C19 UNL     1      22.087   7.456  48.924  1.00  0.00     0.203 C 
HETATM   20  O2  UNL     1      23.174   7.393  48.045  1.00  0.00    -0.345 OA
HETATM   21  C20 UNL     1      29.143   9.917  48.755  1.00  0.00     0.074 A 
HETATM   22  C21 UNL     1      28.212  10.992  48.896  1.00  0.00     0.102 C 
HETATM   23  N2  UNL     1      27.471  11.875  49.001  1.00  0.00    -0.191 NA
HETATM   24  C22 UNL     1      30.515  10.054  48.821  1.00  0.00     0.140 A 
HETATM   25  N3  UNL     1      31.333   8.992  48.680  1.00  0.00    -0.259 NA
HETATM   26  C23 UNL     1      30.855   7.751  48.468  1.00  0.00     0.070 A 
HETATM   27  C24 UNL     1      31.718   6.690  48.328  1.00  0.00     0.069 A 
ENDROOT
BRANCH   1  28
HETATM   28  O1  UNL     1      31.958   4.252  47.951  1.00  0.00    -0.351 OA
BRANCH  28  29
HETATM   29  C2  UNL     1      31.963   3.431  46.826  1.00  0.00     0.171 C 
HETATM   30  C1  UNL     1      32.826   3.980  45.708  1.00  0.00     0.034 C 
ENDBRANCH  28  29
ENDBRANCH   1  28
TORSDOF 2
ENDMDL
