MODEL 1
REMARK VINA RESULT:      -7.0      0.000      0.000
REMARK  7 active torsions:
REMARK  status: ('A' for Active; 'I' for Inactive)
REMARK    1  A    between atoms: C1_1  and  C2_2 
REMARK    2  A    between atoms: C1_1  and  N2_12 
REMARK    3  A    between atoms: C2_2  and  N1_3 
REMARK    4  A    between atoms: N1_3  and  C3_4 
REMARK    5  A    between atoms: N2_12  and  N3_13 
REMARK    6  A    between atoms: N3_13  and  C11_14 
REMARK    7  A    between atoms: C11_14  and  C12_15 
ROOT
HETATM    1  C1  UNL     1      25.870   2.559  51.193  1.00  0.00     0.081 C 
ENDROOT
BRANCH   1   2
HETATM    2  C2  UNL     1      24.656   2.955  51.035  1.00  0.00     0.062 C 
BRANCH   2   3
HETATM    3  N1  UNL     1      23.404   3.129  51.144  1.00  0.00    -0.196 NA
BRANCH   3   4
HETATM    4  C3  UNL     1      22.590   2.314  52.013  1.00  0.00     0.079 A 
HETATM    5  C4  UNL     1      21.320   2.350  52.387  1.00  0.00     0.045 A 
HETATM    6  C5  UNL     1      21.517   1.162  53.217  1.00  0.00    -0.021 A 
HETATM    7  C6  UNL     1      21.034   0.208  54.088  1.00  0.00     0.012 A 
HETATM    8  C10 UNL     1      22.855   1.113  52.833  1.00  0.00     0.004 A 
HETATM    9  C7  UNL     1      21.890  -0.781  54.561  1.00  0.00     0.001 A 
HETATM   10  C8  UNL     1      23.209  -0.823  54.177  1.00  0.00     0.001 A 
HETATM   11  C9  UNL     1      23.695   0.126  53.311  1.00  0.00     0.014 A 
ENDBRANCH   3   4
ENDBRANCH   2   3
ENDBRANCH   1   2
BRANCH   1  12
HETATM   12  N2  UNL     1      27.087   2.316  51.548  1.00  0.00    -0.124 NA
BRANCH  12  13
HETATM   13  N3  UNL     1      27.394   2.436  52.904  1.00  0.00    -0.301 N 
HETATM   14  H6  UNL     1      27.922   3.294  53.188  1.00  0.00     0.183 HD
BRANCH  13  15
HETATM   15  C11 UNL     1      27.017   1.444  53.886  1.00  0.00     0.182 C 
BRANCH  15  16
HETATM   16  C12 UNL     1      27.792   0.198  53.663  1.00  0.00    -0.021 A 
HETATM   17  C13 UNL     1      29.144   0.243  53.885  1.00  0.00     0.012 A 
HETATM   18  C14 UNL     1      29.838  -0.933  53.669  1.00  0.00     0.020 A 
HETATM   19  C15 UNL     1      29.186  -2.086  53.252  1.00  0.00     0.116 A 
HETATM   20  N4  UNL     1      27.841  -2.101  53.041  1.00  0.00    -0.273 NA
HETATM   21  C16 UNL     1      27.161  -0.968  53.246  1.00  0.00     0.125 A 
ENDBRANCH  15  16
ENDBRANCH  13  15
ENDBRANCH  12  13
ENDBRANCH   1  12
TORSDOF 7
ENDMDL
MODEL 2
REMARK VINA RESULT:      -7.0      1.634      2.177
REMARK  7 active torsions:
REMARK  status: ('A' for Active; 'I' for Inactive)
REMARK    1  A    between atoms: C1_1  and  C2_2 
REMARK    2  A    between atoms: C1_1  and  N2_12 
REMARK    3  A    between atoms: C2_2  and  N1_3 
REMARK    4  A    between atoms: N1_3  and  C3_4 
REMARK    5  A    between atoms: N2_12  and  N3_13 
REMARK    6  A    between atoms: N3_13  and  C11_14 
REMARK    7  A    between atoms: C11_14  and  C12_15 
ROOT
HETATM    1  C1  UNL     1      24.136   2.879  50.631  1.00  0.00     0.081 C 
ENDROOT
BRANCH   1   2
HETATM    2  C2  UNL     1      23.104   2.158  50.366  1.00  0.00     0.062 C 
BRANCH   2   3
HETATM    3  N1  UNL     1      22.073   1.422  50.450  1.00  0.00    -0.196 NA
BRANCH   3   4
HETATM    4  C3  UNL     1      21.775   0.654  51.635  1.00  0.00     0.079 A 
HETATM    5  C4  UNL     1      20.662   0.166  52.160  1.00  0.00     0.045 A 
HETATM    6  C5  UNL     1      21.421  -0.402  53.275  1.00  0.00    -0.021 A 
HETATM    7  C6  UNL     1      21.478  -1.113  54.455  1.00  0.00     0.012 A 
HETATM    8  C10 UNL     1      22.600   0.107  52.733  1.00  0.00     0.004 A 
HETATM    9  C7  UNL     1      22.707  -1.308  55.076  1.00  0.00     0.001 A 
HETATM   10  C8  UNL     1      23.866  -0.804  54.536  1.00  0.00     0.001 A 
HETATM   11  C9  UNL     1      23.814  -0.094  53.361  1.00  0.00     0.014 A 
ENDBRANCH   3   4
ENDBRANCH   2   3
ENDBRANCH   1   2
BRANCH   1  12
HETATM   12  N2  UNL     1      25.046   3.663  51.104  1.00  0.00    -0.124 NA
BRANCH  12  13
HETATM   13  N3  UNL     1      26.289   3.098  51.394  1.00  0.00    -0.301 N 
HETATM   14  H6  UNL     1      27.066   3.768  51.604  1.00  0.00     0.183 HD
BRANCH  13  15
HETATM   15  C11 UNL     1      26.520   1.671  51.410  1.00  0.00     0.182 C 
BRANCH  15  16
HETATM   16  C12 UNL     1      27.379   1.315  52.568  1.00  0.00    -0.021 A 
HETATM   17  C13 UNL     1      27.504  -0.014  52.882  1.00  0.00     0.012 A 
HETATM   18  C14 UNL     1      28.311  -0.313  53.963  1.00  0.00     0.020 A 
HETATM   19  C15 UNL     1      28.951   0.688  54.681  1.00  0.00     0.116 A 
HETATM   20  N4  UNL     1      28.809   2.001  54.345  1.00  0.00    -0.273 NA
HETATM   21  C16 UNL     1      28.031   2.300  53.301  1.00  0.00     0.125 A 
ENDBRANCH  15  16
ENDBRANCH  13  15
ENDBRANCH  12  13
ENDBRANCH   1  12
TORSDOF 7
ENDMDL
MODEL 3
REMARK VINA RESULT:      -6.8      2.390      6.355
REMARK  7 active torsions:
REMARK  status: ('A' for Active; 'I' for Inactive)
REMARK    1  A    between atoms: C1_1  and  C2_2 
REMARK    2  A    between atoms: C1_1  and  N2_12 
REMARK    3  A    between atoms: C2_2  and  N1_3 
REMARK    4  A    between atoms: N1_3  and  C3_4 
REMARK    5  A    between atoms: N2_12  and  N3_13 
REMARK    6  A    between atoms: N3_13  and  C11_14 
REMARK    7  A    between atoms: C11_14  and  C12_15 
ROOT
HETATM    1  C1  UNL     1      24.425   2.190  52.965  1.00  0.00     0.081 C 
ENDROOT
BRANCH   1   2
HETATM    2  C2  UNL     1      24.382   0.907  53.058  1.00  0.00     0.062 C 
BRANCH   2   3
HETATM    3  N1  UNL     1      24.682  -0.326  53.099  1.00  0.00    -0.196 NA
BRANCH   3   4
HETATM    4  C3  UNL     1      26.050  -0.783  53.070  1.00  0.00     0.079 A 
HETATM    5  C4  UNL     1      26.638  -1.904  52.681  1.00  0.00     0.045 A 
HETATM    6  C5  UNL     1      27.945  -1.363  53.052  1.00  0.00    -0.021 A 
HETATM    7  C6  UNL     1      29.315  -1.488  53.160  1.00  0.00     0.012 A 
HETATM    8  C10 UNL     1      27.339  -0.178  53.466  1.00  0.00     0.004 A 
HETATM    9  C7  UNL     1      30.058  -0.433  53.676  1.00  0.00     0.001 A 
HETATM   10  C8  UNL     1      29.453   0.733  54.082  1.00  0.00     0.001 A 
HETATM   11  C9  UNL     1      28.090   0.862  53.977  1.00  0.00     0.014 A 
ENDBRANCH   3   4
ENDBRANCH   2   3
ENDBRANCH   1   2
BRANCH   1  12
HETATM   12  N2  UNL     1      24.292   3.470  53.050  1.00  0.00    -0.124 NA
BRANCH  12  13
HETATM   13  N3  UNL     1      24.326   4.198  51.859  1.00  0.00    -0.301 N 
HETATM   14  H6  UNL     1      24.056   5.207  51.923  1.00  0.00     0.183 HD
BRANCH  13  15
HETATM   15  C11 UNL     1      24.710   3.615  50.593  1.00  0.00     0.182 C 
BRANCH  15  16
HETATM   16  C12 UNL     1      25.660   4.515  49.893  1.00  0.00    -0.021 A 
HETATM   17  C13 UNL     1      26.760   3.945  49.305  1.00  0.00     0.012 A 
HETATM   18  C14 UNL     1      27.625   4.809  48.661  1.00  0.00     0.020 A 
HETATM   19  C15 UNL     1      27.380   6.175  48.622  1.00  0.00     0.116 A 
HETATM   20  N4  UNL     1      26.278   6.713  49.215  1.00  0.00    -0.273 NA
HETATM   21  C16 UNL     1      25.436   5.886  49.841  1.00  0.00     0.125 A 
ENDBRANCH  15  16
ENDBRANCH  13  15
ENDBRANCH  12  13
ENDBRANCH   1  12
TORSDOF 7
ENDMDL
MODEL 4
REMARK VINA RESULT:      -6.8      2.730      4.778
REMARK  7 active torsions:
REMARK  status: ('A' for Active; 'I' for Inactive)
REMARK    1  A    between atoms: C1_1  and  C2_2 
REMARK    2  A    between atoms: C1_1  and  N2_12 
REMARK    3  A    between atoms: C2_2  and  N1_3 
REMARK    4  A    between atoms: N1_3  and  C3_4 
REMARK    5  A    between atoms: N2_12  and  N3_13 
REMARK    6  A    between atoms: N3_13  and  C11_14 
REMARK    7  A    between atoms: C11_14  and  C12_15 
ROOT
HETATM    1  C1  UNL     1      24.007  -1.267  55.376  1.00  0.00     0.081 C 
ENDROOT
BRANCH   1   2
HETATM    2  C2  UNL     1      22.724  -1.296  55.285  1.00  0.00     0.062 C 
BRANCH   2   3
HETATM    3  N1  UNL     1      21.527  -1.584  54.976  1.00  0.00    -0.196 NA
BRANCH   3   4
HETATM    4  C3  UNL     1      20.841  -0.935  53.885  1.00  0.00     0.079 A 
HETATM    5  C4  UNL     1      21.199  -0.051  52.966  1.00  0.00     0.045 A 
HETATM    6  C5  UNL     1      19.851  -0.073  52.400  1.00  0.00    -0.021 A 
HETATM    7  C6  UNL     1      18.928   0.359  51.471  1.00  0.00     0.012 A 
HETATM    8  C10 UNL     1      19.460  -1.003  53.362  1.00  0.00     0.004 A 
HETATM    9  C7  UNL     1      17.631  -0.142  51.512  1.00  0.00     0.001 A 
HETATM   10  C8  UNL     1      17.253  -1.060  52.463  1.00  0.00     0.001 A 
HETATM   11  C9  UNL     1      18.169  -1.492  53.392  1.00  0.00     0.014 A 
ENDBRANCH   3   4
ENDBRANCH   2   3
ENDBRANCH   1   2
BRANCH   1  12
HETATM   12  N2  UNL     1      25.251  -1.191  55.709  1.00  0.00    -0.124 NA
BRANCH  12  13
HETATM   13  N3  UNL     1      26.103  -0.493  54.851  1.00  0.00    -0.301 N 
HETATM   14  H6  UNL     1      26.679   0.266  55.283  1.00  0.00     0.183 HD
BRANCH  13  15
HETATM   15  C11 UNL     1      26.203  -0.782  53.437  1.00  0.00     0.182 C 
BRANCH  15  16
HETATM   16  C12 UNL     1      26.060   0.474  52.658  1.00  0.00    -0.021 A 
HETATM   17  C13 UNL     1      24.793   0.868  52.314  1.00  0.00     0.012 A 
HETATM   18  C14 UNL     1      24.694   2.040  51.589  1.00  0.00     0.020 A 
HETATM   19  C15 UNL     1      25.824   2.767  51.238  1.00  0.00     0.116 A 
HETATM   20  N4  UNL     1      27.070   2.351  51.595  1.00  0.00    -0.273 NA
HETATM   21  C16 UNL     1      27.177   1.218  52.295  1.00  0.00     0.125 A 
ENDBRANCH  15  16
ENDBRANCH  13  15
ENDBRANCH  12  13
ENDBRANCH   1  12
TORSDOF 7
ENDMDL
MODEL 5
REMARK VINA RESULT:      -6.6      2.245      5.332
REMARK  7 active torsions:
REMARK  status: ('A' for Active; 'I' for Inactive)
REMARK    1  A    between atoms: C1_1  and  C2_2 
REMARK    2  A    between atoms: C1_1  and  N2_12 
REMARK    3  A    between atoms: C2_2  and  N1_3 
REMARK    4  A    between atoms: N1_3  and  C3_4 
REMARK    5  A    between atoms: N2_12  and  N3_13 
REMARK    6  A    between atoms: N3_13  and  C11_14 
REMARK    7  A    between atoms: C11_14  and  C12_15 
ROOT
HETATM    1  C1  UNL     1      22.497   2.072  50.093  1.00  0.00     0.081 C 
ENDROOT
BRANCH   1   2
HETATM    2  C2  UNL     1      23.610   2.661  50.356  1.00  0.00     0.062 C 
BRANCH   2   3
HETATM    3  N1  UNL     1      24.643   3.121  50.933  1.00  0.00    -0.196 NA
BRANCH   3   4
HETATM    4  C3  UNL     1      25.210   2.494  52.102  1.00  0.00     0.079 A 
HETATM    5  C4  UNL     1      25.229   2.796  53.391  1.00  0.00     0.045 A 
HETATM    6  C5  UNL     1      26.009   1.592  53.676  1.00  0.00    -0.021 A 
HETATM    7  C6  UNL     1      26.658   0.758  54.563  1.00  0.00     0.012 A 
HETATM    8  C10 UNL     1      25.997   1.262  52.322  1.00  0.00     0.004 A 
HETATM    9  C7  UNL     1      27.284  -0.389  54.089  1.00  0.00     0.001 A 
HETATM   10  C8  UNL     1      27.267  -0.708  52.752  1.00  0.00     0.001 A 
HETATM   11  C9  UNL     1      26.623   0.119  51.864  1.00  0.00     0.014 A 
ENDBRANCH   3   4
ENDBRANCH   2   3
ENDBRANCH   1   2
BRANCH   1  12
HETATM   12  N2  UNL     1      21.522   1.329  49.689  1.00  0.00    -0.124 NA
BRANCH  12  13
HETATM   13  N3  UNL     1      21.175   0.238  50.487  1.00  0.00    -0.301 N 
HETATM   14  H6  UNL     1      21.490  -0.702  50.152  1.00  0.00     0.183 HD
BRANCH  13  15
HETATM   15  C11 UNL     1      20.421   0.370  51.714  1.00  0.00     0.182 C 
BRANCH  15  16
HETATM   16  C12 UNL     1      21.178  -0.240  52.836  1.00  0.00    -0.021 A 
HETATM   17  C13 UNL     1      22.544  -0.128  52.815  1.00  0.00     0.012 A 
HETATM   18  C14 UNL     1      23.220  -0.706  53.874  1.00  0.00     0.020 A 
HETATM   19  C15 UNL     1      22.539  -1.358  54.892  1.00  0.00     0.116 A 
HETATM   20  N4  UNL     1      21.180  -1.453  54.886  1.00  0.00    -0.273 NA
HETATM   21  C16 UNL     1      20.517  -0.898  53.867  1.00  0.00     0.125 A 
ENDBRANCH  15  16
ENDBRANCH  13  15
ENDBRANCH  12  13
ENDBRANCH   1  12
TORSDOF 7
ENDMDL
MODEL 6
REMARK VINA RESULT:      -6.6      3.018      5.878
REMARK  7 active torsions:
REMARK  status: ('A' for Active; 'I' for Inactive)
REMARK    1  A    between atoms: C1_1  and  C2_2 
REMARK    2  A    between atoms: C1_1  and  N2_12 
REMARK    3  A    between atoms: C2_2  and  N1_3 
REMARK    4  A    between atoms: N1_3  and  C3_4 
REMARK    5  A    between atoms: N2_12  and  N3_13 
REMARK    6  A    between atoms: N3_13  and  C11_14 
REMARK    7  A    between atoms: C11_14  and  C12_15 
ROOT
HETATM    1  C1  UNL     1      23.468   2.812  51.760  1.00  0.00     0.081 C 
ENDROOT
BRANCH   1   2
HETATM    2  C2  UNL     1      23.536   3.737  50.868  1.00  0.00     0.062 C 
BRANCH   2   3
HETATM    3  N1  UNL     1      23.932   4.544  49.972  1.00  0.00    -0.196 NA
BRANCH   3   4
HETATM    4  C3  UNL     1      25.311   4.601  49.549  1.00  0.00     0.079 A 
HETATM    5  C4  UNL     1      26.325   3.751  49.597  1.00  0.00     0.045 A 
HETATM    6  C5  UNL     1      27.196   4.733  48.950  1.00  0.00    -0.021 A 
HETATM    7  C6  UNL     1      28.424   5.107  48.446  1.00  0.00     0.012 A 
HETATM    8  C10 UNL     1      26.137   5.638  48.895  1.00  0.00     0.004 A 
HETATM    9  C7  UNL     1      28.579   6.373  47.893  1.00  0.00     0.001 A 
HETATM   10  C8  UNL     1      27.530   7.260  47.841  1.00  0.00     0.001 A 
HETATM   11  C9  UNL     1      26.305   6.893  48.343  1.00  0.00     0.014 A 
ENDBRANCH   3   4
ENDBRANCH   2   3
ENDBRANCH   1   2
BRANCH   1  12
HETATM   12  N2  UNL     1      23.333   1.739  52.463  1.00  0.00    -0.124 NA
BRANCH  12  13
HETATM   13  N3  UNL     1      24.460   1.275  53.145  1.00  0.00    -0.301 N 
HETATM   14  H6  UNL     1      24.881   1.927  53.846  1.00  0.00     0.183 HD
BRANCH  13  15
HETATM   15  C11 UNL     1      25.036  -0.032  52.913  1.00  0.00     0.182 C 
BRANCH  15  16
HETATM   16  C12 UNL     1      26.434  -0.059  53.410  1.00  0.00    -0.021 A 
HETATM   17  C13 UNL     1      27.297  -0.956  52.834  1.00  0.00     0.012 A 
HETATM   18  C14 UNL     1      28.591  -0.956  53.319  1.00  0.00     0.020 A 
HETATM   19  C15 UNL     1      28.980  -0.090  54.332  1.00  0.00     0.116 A 
HETATM   20  N4  UNL     1      28.101   0.791  54.885  1.00  0.00    -0.273 NA
HETATM   21  C16 UNL     1      26.847   0.799  54.423  1.00  0.00     0.125 A 
ENDBRANCH  15  16
ENDBRANCH  13  15
ENDBRANCH  12  13
ENDBRANCH   1  12
TORSDOF 7
ENDMDL
MODEL 7
REMARK VINA RESULT:      -6.5      2.278      4.771
REMARK  7 active torsions:
REMARK  status: ('A' for Active; 'I' for Inactive)
REMARK    1  A    between atoms: C1_1  and  C2_2 
REMARK    2  A    between atoms: C1_1  and  N2_12 
REMARK    3  A    between atoms: C2_2  and  N1_3 
REMARK    4  A    between atoms: N1_3  and  C3_4 
REMARK    5  A    between atoms: N2_12  and  N3_13 
REMARK    6  A    between atoms: N3_13  and  C11_14 
REMARK    7  A    between atoms: C11_14  and  C12_15 
ROOT
HETATM    1  C1  UNL     1      23.341   0.713  52.526  1.00  0.00     0.081 C 
ENDROOT
BRANCH   1   2
HETATM    2  C2  UNL     1      23.197   1.446  51.478  1.00  0.00     0.062 C 
BRANCH   2   3
HETATM    3  N1  UNL     1      23.084   1.862  50.284  1.00  0.00    -0.196 NA
BRANCH   3   4
HETATM    4  C3  UNL     1      23.659   3.112  49.851  1.00  0.00     0.079 A 
HETATM    5  C4  UNL     1      23.159   4.303  49.558  1.00  0.00     0.045 A 
HETATM    6  C5  UNL     1      24.499   4.806  49.257  1.00  0.00    -0.021 A 
HETATM    7  C6  UNL     1      25.344   5.822  48.860  1.00  0.00     0.012 A 
HETATM    8  C10 UNL     1      25.038   3.557  49.561  1.00  0.00     0.004 A 
HETATM    9  C7  UNL     1      26.711   5.579  48.774  1.00  0.00     0.001 A 
HETATM   10  C8  UNL     1      27.235   4.345  49.077  1.00  0.00     0.001 A 
HETATM   11  C9  UNL     1      26.397   3.330  49.471  1.00  0.00     0.014 A 
ENDBRANCH   3   4
ENDBRANCH   2   3
ENDBRANCH   1   2
BRANCH   1  12
HETATM   12  N2  UNL     1      23.419   0.186  53.701  1.00  0.00    -0.124 NA
BRANCH  12  13
HETATM   13  N3  UNL     1      24.618  -0.442  54.043  1.00  0.00    -0.301 N 
HETATM   14  H6  UNL     1      24.774  -0.622  55.062  1.00  0.00     0.183 HD
BRANCH  13  15
HETATM   15  C11 UNL     1      25.608  -0.831  53.064  1.00  0.00     0.182 C 
BRANCH  15  16
HETATM   16  C12 UNL     1      26.941  -0.318  53.467  1.00  0.00    -0.021 A 
HETATM   17  C13 UNL     1      28.041  -1.054  53.109  1.00  0.00     0.012 A 
HETATM   18  C14 UNL     1      29.267  -0.549  53.499  1.00  0.00     0.020 A 
HETATM   19  C15 UNL     1      29.363   0.638  54.212  1.00  0.00     0.116 A 
HETATM   20  N4  UNL     1      28.252   1.348  54.553  1.00  0.00    -0.273 NA
HETATM   21  C16 UNL     1      27.062   0.869  54.182  1.00  0.00     0.125 A 
ENDBRANCH  15  16
ENDBRANCH  13  15
ENDBRANCH  12  13
ENDBRANCH   1  12
TORSDOF 7
ENDMDL
MODEL 8
REMARK VINA RESULT:      -6.2      1.709      5.846
REMARK  7 active torsions:
REMARK  status: ('A' for Active; 'I' for Inactive)
REMARK    1  A    between atoms: C1_1  and  C2_2 
REMARK    2  A    between atoms: C1_1  and  N2_12 
REMARK    3  A    between atoms: C2_2  and  N1_3 
REMARK    4  A    between atoms: N1_3  and  C3_4 
REMARK    5  A    between atoms: N2_12  and  N3_13 
REMARK    6  A    between atoms: N3_13  and  C11_14 
REMARK    7  A    between atoms: C11_14  and  C12_15 
ROOT
HETATM    1  C1  UNL     1      23.877   2.929  51.688  1.00  0.00     0.081 C 
ENDROOT
BRANCH   1   2
HETATM    2  C2  UNL     1      24.785   2.839  52.596  1.00  0.00     0.062 C 
BRANCH   2   3
HETATM    3  N1  UNL     1      25.445   2.545  53.639  1.00  0.00    -0.196 NA
BRANCH   3   4
HETATM    4  C3  UNL     1      26.640   1.738  53.587  1.00  0.00     0.079 A 
HETATM    5  C4  UNL     1      27.927   1.987  53.773  1.00  0.00     0.045 A 
HETATM    6  C5  UNL     1      28.251   0.586  53.502  1.00  0.00    -0.021 A 
HETATM    7  C6  UNL     1      29.169  -0.435  53.374  1.00  0.00     0.012 A 
HETATM    8  C10 UNL     1      26.899   0.311  53.303  1.00  0.00     0.004 A 
HETATM    9  C7  UNL     1      28.727  -1.714  53.050  1.00  0.00     0.001 A 
HETATM   10  C8  UNL     1      27.392  -1.978  52.855  1.00  0.00     0.001 A 
HETATM   11  C9  UNL     1      26.475  -0.963  52.981  1.00  0.00     0.014 A 
ENDBRANCH   3   4
ENDBRANCH   2   3
ENDBRANCH   1   2
BRANCH   1  12
HETATM   12  N2  UNL     1      22.893   3.221  50.907  1.00  0.00    -0.124 NA
BRANCH  12  13
HETATM   13  N3  UNL     1      21.769   2.395  50.956  1.00  0.00    -0.301 N 
HETATM   14  H6  UNL     1      20.839   2.875  50.990  1.00  0.00     0.183 HD
BRANCH  13  15
HETATM   15  C11 UNL     1      21.854   0.951  50.962  1.00  0.00     0.182 C 
BRANCH  15  16
HETATM   16  C12 UNL     1      21.760   0.449  52.356  1.00  0.00    -0.021 A 
HETATM   17  C13 UNL     1      22.749  -0.392  52.797  1.00  0.00     0.012 A 
HETATM   18  C14 UNL     1      22.632  -0.842  54.098  1.00  0.00     0.020 A 
HETATM   19  C15 UNL     1      21.568  -0.454  54.901  1.00  0.00     0.116 A 
HETATM   20  N4  UNL     1      20.600   0.384  54.435  1.00  0.00    -0.273 NA
HETATM   21  C16 UNL     1      20.704   0.824  53.178  1.00  0.00     0.125 A 
ENDBRANCH  15  16
ENDBRANCH  13  15
ENDBRANCH  12  13
ENDBRANCH   1  12
TORSDOF 7
ENDMDL
MODEL 9
REMARK VINA RESULT:      -6.2      1.977      6.049
REMARK  7 active torsions:
REMARK  status: ('A' for Active; 'I' for Inactive)
REMARK    1  A    between atoms: C1_1  and  C2_2 
REMARK    2  A    between atoms: C1_1  and  N2_12 
REMARK    3  A    between atoms: C2_2  and  N1_3 
REMARK    4  A    between atoms: N1_3  and  C3_4 
REMARK    5  A    between atoms: N2_12  and  N3_13 
REMARK    6  A    between atoms: N3_13  and  C11_14 
REMARK    7  A    between atoms: C11_14  and  C12_15 
ROOT
HETATM    1  C1  UNL     1      22.928   1.542  52.683  1.00  0.00     0.081 C 
ENDROOT
BRANCH   1   2
HETATM    2  C2  UNL     1      23.584   0.447  52.851  1.00  0.00     0.062 C 
BRANCH   2   3
HETATM    3  N1  UNL     1      24.396  -0.441  53.254  1.00  0.00    -0.196 NA
BRANCH   3   4
HETATM    4  C3  UNL     1      25.772  -0.138  53.563  1.00  0.00     0.079 A 
HETATM    5  C4  UNL     1      26.384   0.891  54.129  1.00  0.00     0.045 A 
HETATM    6  C5  UNL     1      27.678   0.230  53.964  1.00  0.00    -0.021 A 
HETATM    7  C6  UNL     1      29.049   0.211  54.115  1.00  0.00     0.012 A 
HETATM    8  C10 UNL     1      27.048  -0.859  53.366  1.00  0.00     0.004 A 
HETATM    9  C7  UNL     1      29.770  -0.892  53.670  1.00  0.00     0.001 A 
HETATM   10  C8  UNL     1      29.141  -1.963  53.081  1.00  0.00     0.001 A 
HETATM   11  C9  UNL     1      27.776  -1.948  52.928  1.00  0.00     0.014 A 
ENDBRANCH   3   4
ENDBRANCH   2   3
ENDBRANCH   1   2
BRANCH   1  12
HETATM   12  N2  UNL     1      22.173   2.521  52.317  1.00  0.00    -0.124 NA
BRANCH  12  13
HETATM   13  N3  UNL     1      22.631   3.328  51.274  1.00  0.00    -0.301 N 
HETATM   14  H6  UNL     1      22.363   3.034  50.306  1.00  0.00     0.183 HD
BRANCH  13  15
HETATM   15  C11 UNL     1      23.435   4.511  51.490  1.00  0.00     0.182 C 
BRANCH  15  16
HETATM   16  C12 UNL     1      24.648   4.455  50.636  1.00  0.00    -0.021 A 
HETATM   17  C13 UNL     1      25.294   3.251  50.527  1.00  0.00     0.012 A 
HETATM   18  C14 UNL     1      26.420   3.232  49.725  1.00  0.00     0.020 A 
HETATM   19  C15 UNL     1      26.857   4.377  49.073  1.00  0.00     0.116 A 
HETATM   20  N4  UNL     1      26.193   5.559  49.199  1.00  0.00    -0.273 NA
HETATM   21  C16 UNL     1      25.104   5.588  49.973  1.00  0.00     0.125 A 
ENDBRANCH  15  16
ENDBRANCH  13  15
ENDBRANCH  12  13
ENDBRANCH   1  12
TORSDOF 7
ENDMDL
