MODEL 1
REMARK VINA RESULT:      -8.3      0.000      0.000
REMARK  5 active torsions:
REMARK  status: ('A' for Active; 'I' for Inactive)
REMARK    1  A    between atoms: C1_2  and  C2_3 
REMARK    2  A    between atoms: C3_5  and  C4_6 
REMARK    3  A    between atoms: C10_12  and  C11_13 
REMARK    4  A    between atoms: C14_16  and  O2_17 
REMARK    5  A    between atoms: C16_19  and  O3_20 
ROOT
HETATM    1  C2  UNL     1      24.562   3.269  51.403  1.00  0.00     0.073 A 
HETATM    2  N1  UNL     1      23.891   2.468  52.155  1.00  0.00    -0.249 NA
HETATM    3  C3  UNL     1      24.575   1.271  52.554  1.00  0.00     0.074 A 
HETATM    4  C10 UNL     1      25.808   1.088  52.128  1.00  0.00    -0.015 A 
HETATM    5  C17 UNL     1      26.649   1.953  51.256  1.00  0.00     0.048 A 
HETATM    6  C18 UNL     1      25.936   3.211  50.837  1.00  0.00     0.067 A 
ENDROOT
BRANCH   4   7
HETATM    7  C11 UNL     1      26.599  -0.079  52.473  1.00  0.00     0.006 A 
HETATM    8  C12 UNL     1      26.346  -1.361  51.987  1.00  0.00     0.017 A 
HETATM    9  C13 UNL     1      27.111  -2.458  52.291  1.00  0.00     0.037 A 
HETATM   10  C14 UNL     1      28.201  -2.326  53.124  1.00  0.00     0.068 A 
HETATM   11  C15 UNL     1      28.498  -1.068  53.637  1.00  0.00     0.073 A 
HETATM   12  C16 UNL     1      27.681   0.015  53.290  1.00  0.00     0.079 A 
BRANCH  10  13
HETATM   13  O2  UNL     1      28.969  -3.437  53.430  1.00  0.00    -0.361 OA
HETATM   14  H9  UNL     1      29.914  -3.381  53.742  1.00  0.00     0.217 HD
ENDBRANCH  10  13
BRANCH  12  15
HETATM   15  O3  UNL     1      28.134   1.180  53.889  1.00  0.00    -0.360 OA
HETATM   16  H11 UNL     1      28.853   1.226  54.596  1.00  0.00     0.217 HD
ENDBRANCH  12  15
ENDBRANCH   4   7
BRANCH   3  17
HETATM   17  C4  UNL     1      23.833   0.315  53.355  1.00  0.00    -0.007 A 
HETATM   18  C5  UNL     1      24.285  -0.261  54.553  1.00  0.00     0.014 A 
HETATM   19  C6  UNL     1      23.423  -1.162  55.169  1.00  0.00     0.001 A 
HETATM   20  C7  UNL     1      22.183  -1.492  54.655  1.00  0.00     0.000 A 
HETATM   21  C8  UNL     1      21.762  -0.926  53.499  1.00  0.00     0.001 A 
HETATM   22  C9  UNL     1      22.575  -0.017  52.830  1.00  0.00     0.014 A 
ENDBRANCH   3  17
BRANCH   1  23
HETATM   23  C1  UNL     1      23.902   4.480  50.985  1.00  0.00     0.285 C 
HETATM   24  O1  UNL     1      23.188   5.406  51.359  1.00  0.00    -0.300 OA
ENDBRANCH   1  23
TORSDOF 5
ENDMDL
MODEL 2
REMARK VINA RESULT:      -7.9      1.639      5.697
REMARK  5 active torsions:
REMARK  status: ('A' for Active; 'I' for Inactive)
REMARK    1  A    between atoms: C1_2  and  C2_3 
REMARK    2  A    between atoms: C3_5  and  C4_6 
REMARK    3  A    between atoms: C10_12  and  C11_13 
REMARK    4  A    between atoms: C14_16  and  O2_17 
REMARK    5  A    between atoms: C16_19  and  O3_20 
ROOT
HETATM    1  C2  UNL     1      26.299  -0.751  52.663  1.00  0.00     0.073 A 
HETATM    2  N1  UNL     1      25.031  -0.892  52.833  1.00  0.00    -0.249 NA
HETATM    3  C3  UNL     1      24.248   0.301  52.686  1.00  0.00     0.074 A 
HETATM    4  C10 UNL     1      24.873   1.423  52.394  1.00  0.00    -0.015 A 
HETATM    5  C17 UNL     1      26.325   1.675  52.189  1.00  0.00     0.048 A 
HETATM    6  C18 UNL     1      27.151   0.425  52.342  1.00  0.00     0.067 A 
ENDROOT
BRANCH   4   7
HETATM    7  C11 UNL     1      24.184   2.688  52.215  1.00  0.00     0.006 A 
HETATM    8  C12 UNL     1      23.991   3.620  53.233  1.00  0.00     0.017 A 
HETATM    9  C13 UNL     1      23.364   4.827  53.054  1.00  0.00     0.037 A 
HETATM   10  C14 UNL     1      22.884   5.175  51.811  1.00  0.00     0.068 A 
HETATM   11  C15 UNL     1      23.051   4.281  50.759  1.00  0.00     0.073 A 
HETATM   12  C16 UNL     1      23.699   3.064  51.001  1.00  0.00     0.079 A 
BRANCH  10  13
HETATM   13  O2  UNL     1      22.250   6.394  51.637  1.00  0.00    -0.361 OA
HETATM   14  H9  UNL     1      21.979   6.984  52.394  1.00  0.00     0.217 HD
ENDBRANCH  10  13
BRANCH  12  15
HETATM   15  O3  UNL     1      23.777   2.312  49.839  1.00  0.00    -0.360 OA
HETATM   16  H11 UNL     1      23.462   2.617  48.930  1.00  0.00     0.217 HD
ENDBRANCH  12  15
ENDBRANCH   4   7
BRANCH   3  17
HETATM   17  C4  UNL     1      22.821   0.195  52.926  1.00  0.00    -0.007 A 
HETATM   18  C5  UNL     1      21.827   0.236  51.935  1.00  0.00     0.014 A 
HETATM   19  C6  UNL     1      20.512   0.122  52.373  1.00  0.00     0.001 A 
HETATM   20  C7  UNL     1      20.170  -0.024  53.704  1.00  0.00     0.000 A 
HETATM   21  C8  UNL     1      21.141  -0.062  54.648  1.00  0.00     0.001 A 
HETATM   22  C9  UNL     1      22.478   0.047  54.278  1.00  0.00     0.014 A 
ENDBRANCH   3  17
BRANCH   1  23
HETATM   23  C1  UNL     1      27.113  -1.931  52.805  1.00  0.00     0.285 C 
HETATM   24  O1  UNL     1      28.202  -2.352  53.186  1.00  0.00    -0.300 OA
ENDBRANCH   1  23
TORSDOF 5
ENDMDL
MODEL 3
REMARK VINA RESULT:      -7.9      2.428      5.717
REMARK  5 active torsions:
REMARK  status: ('A' for Active; 'I' for Inactive)
REMARK    1  A    between atoms: C1_2  and  C2_3 
REMARK    2  A    between atoms: C3_5  and  C4_6 
REMARK    3  A    between atoms: C10_12  and  C11_13 
REMARK    4  A    between atoms: C14_16  and  O2_17 
REMARK    5  A    between atoms: C16_19  and  O3_20 
ROOT
HETATM    1  C2  UNL     1      22.994  -0.270  53.305  1.00  0.00     0.073 A 
HETATM    2  N1  UNL     1      24.232  -0.137  53.629  1.00  0.00    -0.249 NA
HETATM    3  C3  UNL     1      24.968   0.844  52.883  1.00  0.00     0.074 A 
HETATM    4  C10 UNL     1      24.333   1.517  51.945  1.00  0.00    -0.015 A 
HETATM    5  C17 UNL     1      22.916   1.420  51.503  1.00  0.00     0.048 A 
HETATM    6  C18 UNL     1      22.139   0.393  52.284  1.00  0.00     0.067 A 
ENDROOT
BRANCH   4   7
HETATM    7  C11 UNL     1      24.973   2.535  51.133  1.00  0.00     0.006 A 
HETATM    8  C12 UNL     1      25.988   2.275  50.216  1.00  0.00     0.017 A 
HETATM    9  C13 UNL     1      26.571   3.236  49.429  1.00  0.00     0.037 A 
HETATM   10  C14 UNL     1      26.158   4.547  49.524  1.00  0.00     0.068 A 
HETATM   11  C15 UNL     1      25.147   4.861  50.425  1.00  0.00     0.073 A 
HETATM   12  C16 UNL     1      24.588   3.838  51.201  1.00  0.00     0.079 A 
BRANCH  10  13
HETATM   13  O2  UNL     1      26.752   5.513  48.729  1.00  0.00    -0.361 OA
HETATM   14  H9  UNL     1      26.237   6.119  48.128  1.00  0.00     0.217 HD
ENDBRANCH  10  13
BRANCH  12  15
HETATM   15  O3  UNL     1      23.597   4.339  52.031  1.00  0.00    -0.360 OA
HETATM   16  H11 UNL     1      23.754   4.727  52.950  1.00  0.00     0.217 HD
ENDBRANCH  12  15
ENDBRANCH   4   7
BRANCH   3  17
HETATM   17  C4  UNL     1      26.381   0.984  53.180  1.00  0.00    -0.007 A 
HETATM   18  C5  UNL     1      27.004   2.163  53.620  1.00  0.00     0.014 A 
HETATM   19  C6  UNL     1      28.374   2.091  53.845  1.00  0.00     0.001 A 
HETATM   20  C7  UNL     1      29.111   0.937  53.655  1.00  0.00     0.000 A 
HETATM   21  C8  UNL     1      28.495  -0.192  53.231  1.00  0.00     0.001 A 
HETATM   22  C9  UNL     1      27.125  -0.190  52.986  1.00  0.00     0.014 A 
ENDBRANCH   3  17
BRANCH   1  23
HETATM   23  C1  UNL     1      22.228  -1.247  54.035  1.00  0.00     0.285 C 
HETATM   24  O1  UNL     1      21.962  -1.670  55.157  1.00  0.00    -0.300 OA
ENDBRANCH   1  23
TORSDOF 5
ENDMDL
MODEL 4
REMARK VINA RESULT:      -7.8      1.991      4.155
REMARK  5 active torsions:
REMARK  status: ('A' for Active; 'I' for Inactive)
REMARK    1  A    between atoms: C1_2  and  C2_3 
REMARK    2  A    between atoms: C3_5  and  C4_6 
REMARK    3  A    between atoms: C10_12  and  C11_13 
REMARK    4  A    between atoms: C14_16  and  O2_17 
REMARK    5  A    between atoms: C16_19  and  O3_20 
ROOT
HETATM    1  C2  UNL     1      21.922   0.103  53.733  1.00  0.00     0.073 A 
HETATM    2  N1  UNL     1      22.517   0.853  52.873  1.00  0.00    -0.249 NA
HETATM    3  C3  UNL     1      23.941   0.695  52.790  1.00  0.00     0.074 A 
HETATM    4  C10 UNL     1      24.516  -0.185  53.584  1.00  0.00    -0.015 A 
HETATM    5  C17 UNL     1      23.909  -1.081  54.605  1.00  0.00     0.048 A 
HETATM    6  C18 UNL     1      22.414  -0.921  54.694  1.00  0.00     0.067 A 
ENDROOT
BRANCH   4   7
HETATM    7  C11 UNL     1      25.946  -0.434  53.583  1.00  0.00     0.006 A 
HETATM    8  C12 UNL     1      26.578  -1.334  52.728  1.00  0.00     0.017 A 
HETATM    9  C13 UNL     1      27.934  -1.546  52.710  1.00  0.00     0.037 A 
HETATM   10  C14 UNL     1      28.751  -0.851  53.574  1.00  0.00     0.068 A 
HETATM   11  C15 UNL     1      28.169   0.060  54.450  1.00  0.00     0.073 A 
HETATM   12  C16 UNL     1      26.781   0.236  54.422  1.00  0.00     0.079 A 
BRANCH  10  13
HETATM   13  O2  UNL     1      30.117  -1.071  53.554  1.00  0.00    -0.361 OA
HETATM   14  H9  UNL     1      30.682  -1.084  54.376  1.00  0.00     0.217 HD
ENDBRANCH  10  13
BRANCH  12  15
HETATM   15  O3  UNL     1      26.388   1.182  55.356  1.00  0.00    -0.360 OA
HETATM   16  H11 UNL     1      25.991   2.083  55.135  1.00  0.00     0.217 HD
ENDBRANCH  12  15
ENDBRANCH   4   7
BRANCH   3  17
HETATM   17  C4  UNL     1      24.655   1.563  51.873  1.00  0.00    -0.007 A 
HETATM   18  C5  UNL     1      26.028   1.851  51.934  1.00  0.00     0.014 A 
HETATM   19  C6  UNL     1      26.522   2.714  50.961  1.00  0.00     0.001 A 
HETATM   20  C7  UNL     1      25.729   3.273  49.976  1.00  0.00     0.000 A 
HETATM   21  C8  UNL     1      24.406   2.984  49.931  1.00  0.00     0.001 A 
HETATM   22  C9  UNL     1      23.847   2.129  50.875  1.00  0.00     0.014 A 
ENDBRANCH   3  17
BRANCH   1  23
HETATM   23  C1  UNL     1      20.491   0.237  53.840  1.00  0.00     0.285 C 
HETATM   24  O1  UNL     1      19.416  -0.177  53.415  1.00  0.00    -0.300 OA
ENDBRANCH   1  23
TORSDOF 5
ENDMDL
MODEL 5
REMARK VINA RESULT:      -7.8      1.937      2.475
REMARK  5 active torsions:
REMARK  status: ('A' for Active; 'I' for Inactive)
REMARK    1  A    between atoms: C1_2  and  C2_3 
REMARK    2  A    between atoms: C3_5  and  C4_6 
REMARK    3  A    between atoms: C10_12  and  C11_13 
REMARK    4  A    between atoms: C14_16  and  O2_17 
REMARK    5  A    between atoms: C16_19  and  O3_20 
ROOT
HETATM    1  C2  UNL     1      22.960   2.963  49.584  1.00  0.00     0.073 A 
HETATM    2  N1  UNL     1      22.362   2.234  50.460  1.00  0.00    -0.249 NA
HETATM    3  C3  UNL     1      23.211   1.622  51.443  1.00  0.00     0.074 A 
HETATM    4  C10 UNL     1      24.507   1.850  51.373  1.00  0.00    -0.015 A 
HETATM    5  C17 UNL     1      25.276   2.667  50.396  1.00  0.00     0.048 A 
HETATM    6  C18 UNL     1      24.389   3.312  49.364  1.00  0.00     0.067 A 
ENDROOT
BRANCH   4   7
HETATM    7  C11 UNL     1      25.459   1.290  52.315  1.00  0.00     0.006 A 
HETATM    8  C12 UNL     1      26.180   0.119  52.090  1.00  0.00     0.017 A 
HETATM    9  C13 UNL     1      27.101  -0.392  52.969  1.00  0.00     0.037 A 
HETATM   10  C14 UNL     1      27.354   0.261  54.156  1.00  0.00     0.068 A 
HETATM   11  C15 UNL     1      26.662   1.435  54.430  1.00  0.00     0.073 A 
HETATM   12  C16 UNL     1      25.735   1.909  53.494  1.00  0.00     0.079 A 
BRANCH  10  13
HETATM   13  O2  UNL     1      28.282  -0.261  55.041  1.00  0.00    -0.361 OA
HETATM   14  H9  UNL     1      28.693   0.269  55.779  1.00  0.00     0.217 HD
ENDBRANCH  10  13
BRANCH  12  15
HETATM   15  O3  UNL     1      25.151   3.086  53.936  1.00  0.00    -0.360 OA
HETATM   16  H11 UNL     1      24.770   3.231  54.860  1.00  0.00     0.217 HD
ENDBRANCH  12  15
ENDBRANCH   4   7
BRANCH   3  17
HETATM   17  C4  UNL     1      22.583   0.746  52.414  1.00  0.00    -0.007 A 
HETATM   18  C5  UNL     1      22.982  -0.570  52.695  1.00  0.00     0.014 A 
HETATM   19  C6  UNL     1      22.244  -1.247  53.660  1.00  0.00     0.001 A 
HETATM   20  C7  UNL     1      21.171  -0.681  54.323  1.00  0.00     0.000 A 
HETATM   21  C8  UNL     1      20.799   0.591  54.041  1.00  0.00     0.001 A 
HETATM   22  C9  UNL     1      21.495   1.324  53.085  1.00  0.00     0.014 A 
ENDBRANCH   3  17
BRANCH   1  23
HETATM   23  C1  UNL     1      22.135   3.591  48.584  1.00  0.00     0.285 C 
HETATM   24  O1  UNL     1      22.127   4.061  47.449  1.00  0.00    -0.300 OA
ENDBRANCH   1  23
TORSDOF 5
ENDMDL
MODEL 6
REMARK VINA RESULT:      -7.7      2.959      5.169
REMARK  5 active torsions:
REMARK  status: ('A' for Active; 'I' for Inactive)
REMARK    1  A    between atoms: C1_2  and  C2_3 
REMARK    2  A    between atoms: C3_5  and  C4_6 
REMARK    3  A    between atoms: C10_12  and  C11_13 
REMARK    4  A    between atoms: C14_16  and  O2_17 
REMARK    5  A    between atoms: C16_19  and  O3_20 
ROOT
HETATM    1  C2  UNL     1      26.909   4.394  49.278  1.00  0.00     0.073 A 
HETATM    2  N1  UNL     1      27.301   3.440  50.049  1.00  0.00    -0.249 NA
HETATM    3  C3  UNL     1      26.263   2.750  50.760  1.00  0.00     0.074 A 
HETATM    4  C10 UNL     1      25.018   3.138  50.574  1.00  0.00    -0.015 A 
HETATM    5  C17 UNL     1      24.482   4.228  49.714  1.00  0.00     0.048 A 
HETATM    6  C18 UNL     1      25.567   4.954  48.964  1.00  0.00     0.067 A 
ENDROOT
BRANCH   4   7
HETATM    7  C11 UNL     1      23.887   2.511  51.234  1.00  0.00     0.006 A 
HETATM    8  C12 UNL     1      23.060   1.567  50.630  1.00  0.00     0.017 A 
HETATM    9  C13 UNL     1      22.009   0.954  51.266  1.00  0.00     0.037 A 
HETATM   10  C14 UNL     1      21.723   1.266  52.577  1.00  0.00     0.068 A 
HETATM   11  C15 UNL     1      22.518   2.203  53.227  1.00  0.00     0.073 A 
HETATM   12  C16 UNL     1      23.578   2.794  52.527  1.00  0.00     0.079 A 
BRANCH  10  13
HETATM   13  O2  UNL     1      20.659   0.647  53.212  1.00  0.00    -0.361 OA
HETATM   14  H9  UNL     1      19.726   0.663  52.861  1.00  0.00     0.217 HD
ENDBRANCH  10  13
BRANCH  12  15
HETATM   15  O3  UNL     1      24.256   3.693  53.336  1.00  0.00    -0.360 OA
HETATM   16  H11 UNL     1      24.012   3.911  54.291  1.00  0.00     0.217 HD
ENDBRANCH  12  15
ENDBRANCH   4   7
BRANCH   3  17
HETATM   17  C4  UNL     1      26.668   1.706  51.683  1.00  0.00    -0.007 A 
HETATM   18  C5  UNL     1      26.395   0.338  51.528  1.00  0.00     0.014 A 
HETATM   19  C6  UNL     1      26.868  -0.504  52.529  1.00  0.00     0.001 A 
HETATM   20  C7  UNL     1      27.571  -0.048  53.628  1.00  0.00     0.000 A 
HETATM   21  C8  UNL     1      27.827   1.276  53.762  1.00  0.00     0.001 A 
HETATM   22  C9  UNL     1      27.382   2.173  52.796  1.00  0.00     0.014 A 
ENDBRANCH   3  17
BRANCH   1  23
HETATM   23  C1  UNL     1      27.928   5.106  48.549  1.00  0.00     0.285 C 
HETATM   24  O1  UNL     1      29.114   5.101  48.231  1.00  0.00    -0.300 OA
ENDBRANCH   1  23
TORSDOF 5
ENDMDL
MODEL 7
REMARK VINA RESULT:      -7.7      2.163      4.827
REMARK  5 active torsions:
REMARK  status: ('A' for Active; 'I' for Inactive)
REMARK    1  A    between atoms: C1_2  and  C2_3 
REMARK    2  A    between atoms: C3_5  and  C4_6 
REMARK    3  A    between atoms: C10_12  and  C11_13 
REMARK    4  A    between atoms: C14_16  and  O2_17 
REMARK    5  A    between atoms: C16_19  and  O3_20 
ROOT
HETATM    1  C2  UNL     1      22.186   0.893  51.664  1.00  0.00     0.073 A 
HETATM    2  N1  UNL     1      22.852   1.756  50.980  1.00  0.00    -0.249 NA
HETATM    3  C3  UNL     1      24.230   1.914  51.351  1.00  0.00     0.074 A 
HETATM    4  C10 UNL     1      24.695   1.180  52.341  1.00  0.00    -0.015 A 
HETATM    5  C17 UNL     1      23.998   0.172  53.184  1.00  0.00     0.048 A 
HETATM    6  C18 UNL     1      22.552   0.001  52.798  1.00  0.00     0.067 A 
ENDROOT
BRANCH   4   7
HETATM    7  C11 UNL     1      26.071   1.251  52.797  1.00  0.00     0.006 A 
HETATM    8  C12 UNL     1      26.594   2.312  53.533  1.00  0.00     0.017 A 
HETATM    9  C13 UNL     1      27.887   2.363  53.988  1.00  0.00     0.037 A 
HETATM   10  C14 UNL     1      28.751   1.324  53.720  1.00  0.00     0.068 A 
HETATM   11  C15 UNL     1      28.280   0.239  52.989  1.00  0.00     0.073 A 
HETATM   12  C16 UNL     1      26.950   0.242  52.552  1.00  0.00     0.079 A 
BRANCH  10  13
HETATM   13  O2  UNL     1      30.056   1.381  54.179  1.00  0.00    -0.361 OA
HETATM   14  H9  UNL     1      30.847   1.161  53.612  1.00  0.00     0.217 HD
ENDBRANCH  10  13
BRANCH  12  15
HETATM   15  O3  UNL     1      26.663  -0.918  51.849  1.00  0.00    -0.360 OA
HETATM   16  H11 UNL     1      26.269  -1.755  52.251  1.00  0.00     0.217 HD
ENDBRANCH  12  15
ENDBRANCH   4   7
BRANCH   3  17
HETATM   17  C4  UNL     1      24.999   2.919  50.641  1.00  0.00    -0.007 A 
HETATM   18  C5  UNL     1      26.164   2.671  49.897  1.00  0.00     0.014 A 
HETATM   19  C6  UNL     1      26.759   3.774  49.294  1.00  0.00     0.001 A 
HETATM   20  C7  UNL     1      26.255   5.056  49.402  1.00  0.00     0.000 A 
HETATM   21  C8  UNL     1      25.129   5.278  50.124  1.00  0.00     0.001 A 
HETATM   22  C9  UNL     1      24.484   4.219  50.754  1.00  0.00     0.014 A 
ENDBRANCH   3  17
BRANCH   1  23
HETATM   23  C1  UNL     1      20.800   0.711  51.316  1.00  0.00     0.285 C 
HETATM   24  O1  UNL     1      19.790   0.054  51.554  1.00  0.00    -0.300 OA
ENDBRANCH   1  23
TORSDOF 5
ENDMDL
MODEL 8
REMARK VINA RESULT:      -7.5      2.546      6.358
REMARK  5 active torsions:
REMARK  status: ('A' for Active; 'I' for Inactive)
REMARK    1  A    between atoms: C1_2  and  C2_3 
REMARK    2  A    between atoms: C3_5  and  C4_6 
REMARK    3  A    between atoms: C10_12  and  C11_13 
REMARK    4  A    between atoms: C14_16  and  O2_17 
REMARK    5  A    between atoms: C16_19  and  O3_20 
ROOT
HETATM    1  C2  UNL     1      25.980   0.540  54.092  1.00  0.00     0.073 A 
HETATM    2  N1  UNL     1      25.774   1.701  53.575  1.00  0.00    -0.249 NA
HETATM    3  C3  UNL     1      24.538   1.853  52.861  1.00  0.00     0.074 A 
HETATM    4  C10 UNL     1      23.729   0.816  52.792  1.00  0.00    -0.015 A 
HETATM    5  C17 UNL     1      23.891  -0.554  53.350  1.00  0.00     0.048 A 
HETATM    6  C18 UNL     1      25.186  -0.718  54.102  1.00  0.00     0.067 A 
ENDROOT
BRANCH   4   7
HETATM    7  C11 UNL     1      22.451   0.855  52.104  1.00  0.00     0.006 A 
HETATM    8  C12 UNL     1      22.316   0.925  50.719  1.00  0.00     0.017 A 
HETATM    9  C13 UNL     1      21.108   0.933  50.069  1.00  0.00     0.037 A 
HETATM   10  C14 UNL     1      19.937   0.871  50.793  1.00  0.00     0.068 A 
HETATM   11  C15 UNL     1      20.016   0.799  52.179  1.00  0.00     0.073 A 
HETATM   12  C16 UNL     1      21.277   0.793  52.787  1.00  0.00     0.079 A 
BRANCH  10  13
HETATM   13  O2  UNL     1      18.720   0.882  50.132  1.00  0.00    -0.361 OA
HETATM   14  H9  UNL     1      18.492   1.536  49.415  1.00  0.00     0.217 HD
ENDBRANCH  10  13
BRANCH  12  15
HETATM   15  O3  UNL     1      21.156   0.712  54.166  1.00  0.00    -0.360 OA
HETATM   16  H11 UNL     1      20.681   1.388  54.745  1.00  0.00     0.217 HD
ENDBRANCH  12  15
ENDBRANCH   4   7
BRANCH   3  17
HETATM   17  C4  UNL     1      24.295   3.129  52.215  1.00  0.00    -0.007 A 
HETATM   18  C5  UNL     1      23.424   4.123  52.688  1.00  0.00     0.014 A 
HETATM   19  C6  UNL     1      23.327   5.277  51.917  1.00  0.00     0.001 A 
HETATM   20  C7  UNL     1      24.036   5.464  50.746  1.00  0.00     0.000 A 
HETATM   21  C8  UNL     1      24.873   4.494  50.303  1.00  0.00     0.001 A 
HETATM   22  C9  UNL     1      25.016   3.314  51.026  1.00  0.00     0.014 A 
ENDBRANCH   3  17
BRANCH   1  23
HETATM   23  C1  UNL     1      27.212   0.356  54.815  1.00  0.00     0.285 C 
HETATM   24  O1  UNL     1      28.194  -0.371  54.944  1.00  0.00    -0.300 OA
ENDBRANCH   1  23
TORSDOF 5
ENDMDL
MODEL 9
REMARK VINA RESULT:      -7.4      2.410      5.117
REMARK  5 active torsions:
REMARK  status: ('A' for Active; 'I' for Inactive)
REMARK    1  A    between atoms: C1_2  and  C2_3 
REMARK    2  A    between atoms: C3_5  and  C4_6 
REMARK    3  A    between atoms: C10_12  and  C11_13 
REMARK    4  A    between atoms: C14_16  and  O2_17 
REMARK    5  A    between atoms: C16_19  and  O3_20 
ROOT
HETATM    1  C2  UNL     1      21.548   1.785  50.081  1.00  0.00     0.073 A 
HETATM    2  N1  UNL     1      22.431   2.646  49.713  1.00  0.00    -0.249 NA
HETATM    3  C3  UNL     1      23.671   2.612  50.434  1.00  0.00     0.074 A 
HETATM    4  C10 UNL     1      23.807   1.721  51.396  1.00  0.00    -0.015 A 
HETATM    5  C17 UNL     1      22.841   0.702  51.888  1.00  0.00     0.048 A 
HETATM    6  C18 UNL     1      21.539   0.733  51.133  1.00  0.00     0.067 A 
ENDROOT
BRANCH   4   7
HETATM    7  C11 UNL     1      25.017   1.590  52.187  1.00  0.00     0.006 A 
HETATM    8  C12 UNL     1      25.978   0.603  51.981  1.00  0.00     0.017 A 
HETATM    9  C13 UNL     1      27.134   0.499  52.711  1.00  0.00     0.037 A 
HETATM   10  C14 UNL     1      27.396   1.403  53.717  1.00  0.00     0.068 A 
HETATM   11  C15 UNL     1      26.469   2.409  53.965  1.00  0.00     0.073 A 
HETATM   12  C16 UNL     1      25.307   2.466  53.186  1.00  0.00     0.079 A 
BRANCH  10  13
HETATM   13  O2  UNL     1      28.563   1.291  54.454  1.00  0.00    -0.361 OA
HETATM   14  H9  UNL     1      29.329   1.924  54.366  1.00  0.00     0.217 HD
ENDBRANCH  10  13
BRANCH  12  15
HETATM   15  O3  UNL     1      24.510   3.533  53.573  1.00  0.00    -0.360 OA
HETATM   16  H11 UNL     1      23.502   3.547  53.530  1.00  0.00     0.217 HD
ENDBRANCH  12  15
ENDBRANCH   4   7
BRANCH   3  17
HETATM   17  C4  UNL     1      24.671   3.604  50.088  1.00  0.00    -0.007 A 
HETATM   18  C5  UNL     1      24.538   4.989  50.278  1.00  0.00     0.014 A 
HETATM   19  C6  UNL     1      25.613   5.774  49.874  1.00  0.00     0.001 A 
HETATM   20  C7  UNL     1      26.761   5.250  49.312  1.00  0.00     0.000 A 
HETATM   21  C8  UNL     1      26.874   3.911  49.136  1.00  0.00     0.001 A 
HETATM   22  C9  UNL     1      25.836   3.067  49.518  1.00  0.00     0.014 A 
ENDBRANCH   3  17
BRANCH   1  23
HETATM   23  C1  UNL     1      20.292   1.794  49.376  1.00  0.00     0.285 C 
HETATM   24  O1  UNL     1      19.696   2.255  48.406  1.00  0.00    -0.300 OA
ENDBRANCH   1  23
TORSDOF 5
ENDMDL
