MODEL 1
REMARK VINA RESULT:      -8.7      0.000      0.000
REMARK  6 active torsions:
REMARK  status: ('A' for Active; 'I' for Inactive)
REMARK    1  A    between atoms: O1_2  and  C2_3 
REMARK    2  A    between atoms: C2_3  and  C3_4 
REMARK    3  A    between atoms: C2_3  and  C18_22 
REMARK    4  A    between atoms: C3_4  and  N1_6 
REMARK    5  A    between atoms: C18_22  and  N3_24 
REMARK    6  A    between atoms: C18_22  and  C20_25 
ROOT
HETATM    1  C20 UNL     1      24.547   3.521  49.308  1.00  0.00     0.167 C 
HETATM    2  C21 UNL     1      25.903   3.400  49.927  1.00  0.00     0.061 C 
HETATM    3  N4  UNL     1      26.956   3.317  50.426  1.00  0.00    -0.197 NA
ENDROOT
BRANCH   1   4
HETATM    4  C18 UNL     1      23.672   4.091  50.363  1.00  0.00     0.191 C 
HETATM    5  C19 UNL     1      23.283   5.502  49.821  1.00  0.00     0.053 C 
BRANCH   4   6
HETATM    6  C2  UNL     1      22.363   3.334  50.390  1.00  0.00     0.182 C 
BRANCH   6   7
HETATM    7  O1  UNL     1      21.705   3.635  51.539  1.00  0.00    -0.386 OA
HETATM    8  C1  UNL     1      20.434   4.136  51.431  1.00  0.00     0.202 C 
ENDBRANCH   6   7
BRANCH   6   9
HETATM    9  C3  UNL     1      22.554   1.853  50.152  1.00  0.00     0.118 C 
HETATM   10  C4  UNL     1      21.638   1.386  49.068  1.00  0.00     0.035 C 
BRANCH   9  11
HETATM   11  N1  UNL     1      22.407   1.047  51.361  1.00  0.00    -0.338 N 
HETATM   12  C5  UNL     1      21.308   0.494  51.901  1.00  0.00     0.046 A 
HETATM   13  C6  UNL     1      19.980   0.506  51.529  1.00  0.00     0.030 A 
HETATM   14  C10 UNL     1      21.558  -0.215  53.055  1.00  0.00     0.004 A 
HETATM   15  C7  UNL     1      18.961  -0.118  52.213  1.00  0.00     0.002 A 
HETATM   16  C8  UNL     1      19.268  -0.818  53.367  1.00  0.00     0.001 A 
HETATM   17  C9  UNL     1      20.585  -0.856  53.777  1.00  0.00     0.014 A 
HETATM   18  C11 UNL     1      22.916  -0.099  53.258  1.00  0.00     0.014 A 
HETATM   19  C12 UNL     1      23.709  -0.604  54.264  1.00  0.00     0.006 A 
HETATM   20  C16 UNL     1      23.392   0.669  52.216  1.00  0.00     0.047 A 
HETATM   21  C13 UNL     1      25.059  -0.353  54.273  1.00  0.00     0.100 A 
HETATM   22  C17 UNL     1      23.417  -1.442  55.463  1.00  0.00     0.160 A 
HETATM   23  C14 UNL     1      25.573   0.419  53.239  1.00  0.00     0.041 A 
HETATM   24  O2  UNL     1      25.628  -0.969  55.383  1.00  0.00    -0.263 OA
HETATM   25  C15 UNL     1      24.750   0.893  52.270  1.00  0.00     0.033 A 
HETATM   26  N2  UNL     1      24.684  -1.606  56.144  1.00  0.00    -0.195 NA
HETATM   27  H15 UNL     1      24.885  -2.623  56.269  1.00  0.00     0.154 HD
ENDBRANCH   9  11
ENDBRANCH   6   9
ENDBRANCH   4   6
BRANCH   4  28
HETATM   28  N3  UNL     1      24.243   4.361  51.635  1.00  0.00     0.091 N 
HETATM   29  H21 UNL     1      23.985   3.633  52.314  1.00  0.00     0.314 HD
HETATM   30  H22 UNL     1      25.271   4.489  51.555  1.00  0.00     0.314 HD
ENDBRANCH   4  28
ENDBRANCH   1   4
TORSDOF 6
ENDMDL
MODEL 2
REMARK VINA RESULT:      -8.5      1.999      3.762
REMARK  6 active torsions:
REMARK  status: ('A' for Active; 'I' for Inactive)
REMARK    1  A    between atoms: O1_2  and  C2_3 
REMARK    2  A    between atoms: C2_3  and  C3_4 
REMARK    3  A    between atoms: C2_3  and  C18_22 
REMARK    4  A    between atoms: C3_4  and  N1_6 
REMARK    5  A    between atoms: C18_22  and  N3_24 
REMARK    6  A    between atoms: C18_22  and  C20_25 
ROOT
HETATM    1  C20 UNL     1      26.011   4.300  49.293  1.00  0.00     0.167 C 
HETATM    2  C21 UNL     1      27.064   5.224  48.768  1.00  0.00     0.061 C 
HETATM    3  N4  UNL     1      27.872   5.962  48.359  1.00  0.00    -0.197 NA
ENDROOT
BRANCH   1   4
HETATM    4  C18 UNL     1      24.970   5.173  49.889  1.00  0.00     0.191 C 
HETATM    5  C19 UNL     1      24.320   5.890  48.665  1.00  0.00     0.053 C 
BRANCH   4   6
HETATM    6  C2  UNL     1      23.857   4.314  50.446  1.00  0.00     0.182 C 
BRANCH   6   7
HETATM    7  O1  UNL     1      23.808   4.476  51.794  1.00  0.00    -0.386 OA
HETATM    8  C1  UNL     1      22.629   4.908  52.341  1.00  0.00     0.202 C 
ENDBRANCH   6   7
BRANCH   6   9
HETATM    9  C3  UNL     1      23.964   2.875  49.995  1.00  0.00     0.118 C 
HETATM   10  C4  UNL     1      22.899   2.571  48.991  1.00  0.00     0.035 C 
BRANCH   9  11
HETATM   11  N1  UNL     1      23.947   1.918  51.099  1.00  0.00    -0.338 N 
HETATM   12  C5  UNL     1      24.966   1.402  51.808  1.00  0.00     0.046 A 
HETATM   13  C6  UNL     1      26.332   1.572  51.736  1.00  0.00     0.030 A 
HETATM   14  C10 UNL     1      24.562   0.526  52.792  1.00  0.00     0.004 A 
HETATM   15  C7  UNL     1      27.251   0.948  52.550  1.00  0.00     0.002 A 
HETATM   16  C8  UNL     1      26.792   0.079  53.524  1.00  0.00     0.001 A 
HETATM   17  C9  UNL     1      25.431  -0.122  53.630  1.00  0.00     0.014 A 
HETATM   18  C11 UNL     1      23.189   0.486  52.694  1.00  0.00     0.014 A 
HETATM   19  C12 UNL     1      22.268  -0.229  53.425  1.00  0.00     0.006 A 
HETATM   20  C16 UNL     1      22.857   1.339  51.662  1.00  0.00     0.047 A 
HETATM   21  C13 UNL     1      20.928  -0.121  53.146  1.00  0.00     0.100 A 
HETATM   22  C17 UNL     1      22.396  -1.187  54.562  1.00  0.00     0.160 A 
HETATM   23  C14 UNL     1      20.557   0.728  52.112  1.00  0.00     0.041 A 
HETATM   24  O2  UNL     1      20.214  -0.936  54.019  1.00  0.00    -0.263 OA
HETATM   25  C15 UNL     1      21.502   1.412  51.421  1.00  0.00     0.033 A 
HETATM   26  N2  UNL     1      21.048  -1.619  54.864  1.00  0.00    -0.195 NA
HETATM   27  H15 UNL     1      20.841  -1.438  55.871  1.00  0.00     0.154 HD
ENDBRANCH   9  11
ENDBRANCH   6   9
ENDBRANCH   4   6
BRANCH   4  28
HETATM   28  N3  UNL     1      25.388   6.241  50.726  1.00  0.00     0.091 N 
HETATM   29  H21 UNL     1      24.746   6.356  51.522  1.00  0.00     0.314 HD
HETATM   30  H22 UNL     1      26.375   6.108  51.023  1.00  0.00     0.314 HD
ENDBRANCH   4  28
ENDBRANCH   1   4
TORSDOF 6
ENDMDL
MODEL 3
REMARK VINA RESULT:      -8.4      1.543      2.114
REMARK  6 active torsions:
REMARK  status: ('A' for Active; 'I' for Inactive)
REMARK    1  A    between atoms: O1_2  and  C2_3 
REMARK    2  A    between atoms: C2_3  and  C3_4 
REMARK    3  A    between atoms: C2_3  and  C18_22 
REMARK    4  A    between atoms: C3_4  and  N1_6 
REMARK    5  A    between atoms: C18_22  and  N3_24 
REMARK    6  A    between atoms: C18_22  and  C20_25 
ROOT
HETATM    1  C20 UNL     1      24.123   4.285  49.208  1.00  0.00     0.167 C 
HETATM    2  C21 UNL     1      25.373   5.103  49.280  1.00  0.00     0.061 C 
HETATM    3  N4  UNL     1      26.341   5.754  49.351  1.00  0.00    -0.197 NA
ENDROOT
BRANCH   1   4
HETATM    4  C18 UNL     1      23.361   4.605  50.440  1.00  0.00     0.191 C 
HETATM    5  C19 UNL     1      22.475   5.825  50.040  1.00  0.00     0.053 C 
BRANCH   4   6
HETATM    6  C2  UNL     1      22.364   3.500  50.713  1.00  0.00     0.182 C 
BRANCH   6   7
HETATM    7  O1  UNL     1      21.924   3.610  51.993  1.00  0.00    -0.386 OA
HETATM    8  C1  UNL     1      20.571   3.617  52.202  1.00  0.00     0.202 C 
ENDBRANCH   6   7
BRANCH   6   9
HETATM    9  C3  UNL     1      22.910   2.136  50.356  1.00  0.00     0.118 C 
HETATM   10  C4  UNL     1      21.865   1.333  49.652  1.00  0.00     0.035 C 
BRANCH   9  11
HETATM   11  N1  UNL     1      23.459   1.414  51.501  1.00  0.00    -0.338 N 
HETATM   12  C5  UNL     1      22.853   0.589  52.372  1.00  0.00     0.046 A 
HETATM   13  C6  UNL     1      21.548   0.164  52.499  1.00  0.00     0.030 A 
HETATM   14  C10 UNL     1      23.703   0.078  53.328  1.00  0.00     0.004 A 
HETATM   15  C7  UNL     1      21.086  -0.694  53.473  1.00  0.00     0.002 A 
HETATM   16  C8  UNL     1      21.982  -1.179  54.408  1.00  0.00     0.001 A 
HETATM   17  C9  UNL     1      23.300  -0.779  54.319  1.00  0.00     0.014 A 
HETATM   18  C11 UNL     1      24.935   0.621  53.039  1.00  0.00     0.014 A 
HETATM   19  C12 UNL     1      26.146   0.461  53.672  1.00  0.00     0.006 A 
HETATM   20  C16 UNL     1      24.747   1.421  51.931  1.00  0.00     0.047 A 
HETATM   21  C13 UNL     1      27.261   1.116  53.210  1.00  0.00     0.100 A 
HETATM   22  C17 UNL     1      26.575  -0.338  54.857  1.00  0.00     0.160 A 
HETATM   23  C14 UNL     1      27.108   1.931  52.097  1.00  0.00     0.041 A 
HETATM   24  O2  UNL     1      28.348   0.788  54.016  1.00  0.00    -0.263 OA
HETATM   25  C15 UNL     1      25.894   2.057  51.507  1.00  0.00     0.033 A 
HETATM   26  N2  UNL     1      27.983  -0.053  55.034  1.00  0.00    -0.195 NA
HETATM   27  H15 UNL     1      28.523  -0.946  55.033  1.00  0.00     0.154 HD
ENDBRANCH   9  11
ENDBRANCH   6   9
ENDBRANCH   4   6
BRANCH   4  28
HETATM   28  N3  UNL     1      24.081   5.065  51.575  1.00  0.00     0.091 N 
HETATM   29  H21 UNL     1      25.007   4.621  51.626  1.00  0.00     0.314 HD
HETATM   30  H22 UNL     1      24.133   6.102  51.579  1.00  0.00     0.314 HD
ENDBRANCH   4  28
ENDBRANCH   1   4
TORSDOF 6
ENDMDL
MODEL 4
REMARK VINA RESULT:      -8.1      1.630      3.671
REMARK  6 active torsions:
REMARK  status: ('A' for Active; 'I' for Inactive)
REMARK    1  A    between atoms: O1_2  and  C2_3 
REMARK    2  A    between atoms: C2_3  and  C3_4 
REMARK    3  A    between atoms: C2_3  and  C18_22 
REMARK    4  A    between atoms: C3_4  and  N1_6 
REMARK    5  A    between atoms: C18_22  and  N3_24 
REMARK    6  A    between atoms: C18_22  and  C20_25 
ROOT
HETATM    1  C20 UNL     1      23.316   5.203  51.279  1.00  0.00     0.167 C 
HETATM    2  C21 UNL     1      23.710   6.623  51.023  1.00  0.00     0.061 C 
HETATM    3  N4  UNL     1      24.013   7.730  50.803  1.00  0.00    -0.197 NA
ENDROOT
BRANCH   1   4
HETATM    4  C18 UNL     1      22.515   4.790  50.100  1.00  0.00     0.191 C 
HETATM    5  C19 UNL     1      23.580   4.402  49.027  1.00  0.00     0.053 C 
BRANCH   4   6
HETATM    6  C2  UNL     1      21.811   3.486  50.406  1.00  0.00     0.182 C 
BRANCH   6   7
HETATM    7  O1  UNL     1      21.411   3.497  51.704  1.00  0.00    -0.386 OA
HETATM    8  C1  UNL     1      20.066   3.575  51.954  1.00  0.00     0.202 C 
ENDBRANCH   6   7
BRANCH   6   9
HETATM    9  C3  UNL     1      22.641   2.283  50.020  1.00  0.00     0.118 C 
HETATM   10  C4  UNL     1      21.816   1.325  49.223  1.00  0.00     0.035 C 
BRANCH   9  11
HETATM   11  N1  UNL     1      23.274   1.625  51.161  1.00  0.00    -0.338 N 
HETATM   12  C5  UNL     1      24.542   1.692  51.601  1.00  0.00     0.046 A 
HETATM   13  C6  UNL     1      25.654   2.364  51.140  1.00  0.00     0.030 A 
HETATM   14  C10 UNL     1      24.774   0.933  52.727  1.00  0.00     0.004 A 
HETATM   15  C7  UNL     1      26.904   2.316  51.717  1.00  0.00     0.002 A 
HETATM   16  C8  UNL     1      27.082   1.539  52.848  1.00  0.00     0.001 A 
HETATM   17  C9  UNL     1      25.995   0.847  53.343  1.00  0.00     0.014 A 
HETATM   18  C11 UNL     1      23.564   0.343  53.017  1.00  0.00     0.014 A 
HETATM   19  C12 UNL     1      23.218  -0.522  54.030  1.00  0.00     0.006 A 
HETATM   20  C16 UNL     1      22.685   0.785  52.050  1.00  0.00     0.047 A 
HETATM   21  C13 UNL     1      21.934  -1.000  54.125  1.00  0.00     0.100 A 
HETATM   22  C17 UNL     1      23.986  -1.118  55.162  1.00  0.00     0.160 A 
HETATM   23  C14 UNL     1      21.023  -0.577  53.167  1.00  0.00     0.041 A 
HETATM   24  O2  UNL     1      21.844  -1.847  55.225  1.00  0.00    -0.263 OA
HETATM   25  C15 UNL     1      21.411   0.276  52.187  1.00  0.00     0.033 A 
HETATM   26  N2  UNL     1      23.051  -1.976  55.860  1.00  0.00    -0.195 NA
HETATM   27  H15 UNL     1      23.010  -1.701  56.867  1.00  0.00     0.154 HD
ENDBRANCH   9  11
ENDBRANCH   6   9
ENDBRANCH   4   6
BRANCH   4  28
HETATM   28  N3  UNL     1      21.720   5.770  49.450  1.00  0.00     0.091 N 
HETATM   29  H21 UNL     1      20.794   5.843  49.893  1.00  0.00     0.314 HD
HETATM   30  H22 UNL     1      22.219   6.680  49.414  1.00  0.00     0.314 HD
ENDBRANCH   4  28
ENDBRANCH   1   4
TORSDOF 6
ENDMDL
MODEL 5
REMARK VINA RESULT:      -8.0      2.108      4.224
REMARK  6 active torsions:
REMARK  status: ('A' for Active; 'I' for Inactive)
REMARK    1  A    between atoms: O1_2  and  C2_3 
REMARK    2  A    between atoms: C2_3  and  C3_4 
REMARK    3  A    between atoms: C2_3  and  C18_22 
REMARK    4  A    between atoms: C3_4  and  N1_6 
REMARK    5  A    between atoms: C18_22  and  N3_24 
REMARK    6  A    between atoms: C18_22  and  C20_25 
ROOT
HETATM    1  C20 UNL     1      25.090   2.386  50.634  1.00  0.00     0.167 C 
HETATM    2  C21 UNL     1      26.383   2.441  51.385  1.00  0.00     0.061 C 
HETATM    3  N4  UNL     1      27.386   2.502  51.981  1.00  0.00    -0.197 NA
ENDROOT
BRANCH   1   4
HETATM    4  C18 UNL     1      24.188   3.347  51.316  1.00  0.00     0.191 C 
HETATM    5  C19 UNL     1      24.535   4.725  50.672  1.00  0.00     0.053 C 
BRANCH   4   6
HETATM    6  C2  UNL     1      22.762   3.087  50.882  1.00  0.00     0.182 C 
BRANCH   6   7
HETATM    7  O1  UNL     1      21.922   3.485  51.872  1.00  0.00    -0.386 OA
HETATM    8  C1  UNL     1      20.898   4.331  51.536  1.00  0.00     0.202 C 
ENDBRANCH   6   7
BRANCH   6   9
HETATM    9  C3  UNL     1      22.554   1.661  50.423  1.00  0.00     0.118 C 
HETATM   10  C4  UNL     1      21.982   1.644  49.043  1.00  0.00     0.035 C 
BRANCH   9  11
HETATM   11  N1  UNL     1      21.748   0.867  51.347  1.00  0.00    -0.338 N 
HETATM   12  C5  UNL     1      22.109   0.215  52.466  1.00  0.00     0.046 A 
HETATM   13  C6  UNL     1      23.322   0.057  53.102  1.00  0.00     0.030 A 
HETATM   14  C10 UNL     1      21.062  -0.426  53.091  1.00  0.00     0.004 A 
HETATM   15  C7  UNL     1      23.521  -0.663  54.259  1.00  0.00     0.002 A 
HETATM   16  C8  UNL     1      22.435  -1.287  54.847  1.00  0.00     0.001 A 
HETATM   17  C9  UNL     1      21.202  -1.156  54.243  1.00  0.00     0.014 A 
HETATM   18  C11 UNL     1      19.961  -0.160  52.308  1.00  0.00     0.014 A 
HETATM   19  C12 UNL     1      18.651  -0.556  52.455  1.00  0.00     0.006 A 
HETATM   20  C16 UNL     1      20.415   0.622  51.267  1.00  0.00     0.047 A 
HETATM   21  C13 UNL     1      17.705  -0.175  51.536  1.00  0.00     0.100 A 
HETATM   22  C17 UNL     1      17.949  -1.381  53.481  1.00  0.00     0.160 A 
HETATM   23  C14 UNL     1      18.127   0.612  50.473  1.00  0.00     0.041 A 
HETATM   24  O2  UNL     1      16.471  -0.700  51.909  1.00  0.00    -0.263 OA
HETATM   25  C15 UNL     1      19.429   0.977  50.371  1.00  0.00     0.033 A 
HETATM   26  N2  UNL     1      16.570  -1.455  53.048  1.00  0.00    -0.195 NA
HETATM   27  H15 UNL     1      15.944  -1.116  53.812  1.00  0.00     0.154 HD
ENDBRANCH   9  11
ENDBRANCH   6   9
ENDBRANCH   4   6
BRANCH   4  28
HETATM   28  N3  UNL     1      24.367   3.566  52.707  1.00  0.00     0.091 N 
HETATM   29  H21 UNL     1      25.201   4.144  52.882  1.00  0.00     0.314 HD
HETATM   30  H22 UNL     1      23.507   3.967  53.128  1.00  0.00     0.314 HD
ENDBRANCH   4  28
ENDBRANCH   1   4
TORSDOF 6
ENDMDL
MODEL 6
REMARK VINA RESULT:      -7.6      2.088      3.195
REMARK  6 active torsions:
REMARK  status: ('A' for Active; 'I' for Inactive)
REMARK    1  A    between atoms: O1_2  and  C2_3 
REMARK    2  A    between atoms: C2_3  and  C3_4 
REMARK    3  A    between atoms: C2_3  and  C18_22 
REMARK    4  A    between atoms: C3_4  and  N1_6 
REMARK    5  A    between atoms: C18_22  and  N3_24 
REMARK    6  A    between atoms: C18_22  and  C20_25 
ROOT
HETATM    1  C20 UNL     1      22.652   5.349  50.202  1.00  0.00     0.167 C 
HETATM    2  C21 UNL     1      22.690   6.721  49.608  1.00  0.00     0.061 C 
HETATM    3  N4  UNL     1      22.712   7.786  49.127  1.00  0.00    -0.197 NA
ENDROOT
BRANCH   1   4
HETATM    4  C18 UNL     1      21.767   4.552  49.316  1.00  0.00     0.191 C 
HETATM    5  C19 UNL     1      22.712   4.046  48.182  1.00  0.00     0.053 C 
BRANCH   4   6
HETATM    6  C2  UNL     1      21.346   3.289  50.035  1.00  0.00     0.182 C 
BRANCH   6   7
HETATM    7  O1  UNL     1      21.236   3.555  51.362  1.00  0.00    -0.386 OA
HETATM    8  C1  UNL     1      19.984   3.519  51.917  1.00  0.00     0.202 C 
ENDBRANCH   6   7
BRANCH   6   9
HETATM    9  C3  UNL     1      22.243   2.118  49.706  1.00  0.00     0.118 C 
HETATM   10  C4  UNL     1      21.436   0.998  49.133  1.00  0.00     0.035 C 
BRANCH   9  11
HETATM   11  N1  UNL     1      23.051   1.670  50.838  1.00  0.00    -0.338 N 
HETATM   12  C5  UNL     1      22.733   0.849  51.853  1.00  0.00     0.046 A 
HETATM   13  C6  UNL     1      21.574   0.181  52.183  1.00  0.00     0.030 A 
HETATM   14  C10 UNL     1      23.767   0.646  52.741  1.00  0.00     0.004 A 
HETATM   15  C7  UNL     1      21.413  -0.629  53.285  1.00  0.00     0.002 A 
HETATM   16  C8  UNL     1      22.485  -0.801  54.144  1.00  0.00     0.001 A 
HETATM   17  C9  UNL     1      23.665  -0.149  53.853  1.00  0.00     0.014 A 
HETATM   18  C11 UNL     1      24.813   1.394  52.248  1.00  0.00     0.014 A 
HETATM   19  C12 UNL     1      26.088   1.567  52.737  1.00  0.00     0.006 A 
HETATM   20  C16 UNL     1      24.342   1.997  51.100  1.00  0.00     0.047 A 
HETATM   21  C13 UNL     1      26.978   2.379  52.079  1.00  0.00     0.100 A 
HETATM   22  C17 UNL     1      26.800   1.025  53.931  1.00  0.00     0.160 A 
HETATM   23  C14 UNL     1      26.538   3.003  50.919  1.00  0.00     0.041 A 
HETATM   24  O2  UNL     1      28.186   2.384  52.770  1.00  0.00    -0.263 OA
HETATM   25  C15 UNL     1      25.272   2.801  50.477  1.00  0.00     0.033 A 
HETATM   26  N2  UNL     1      28.121   1.616  53.902  1.00  0.00    -0.195 NA
HETATM   27  H15 UNL     1      28.842   0.861  53.920  1.00  0.00     0.154 HD
ENDBRANCH   9  11
ENDBRANCH   6   9
ENDBRANCH   4   6
BRANCH   4  28
HETATM   28  N3  UNL     1      20.731   5.227  48.619  1.00  0.00     0.091 N 
HETATM   29  H21 UNL     1      20.914   6.239  48.579  1.00  0.00     0.314 HD
HETATM   30  H22 UNL     1      20.589   4.808  47.679  1.00  0.00     0.314 HD
ENDBRANCH   4  28
ENDBRANCH   1   4
TORSDOF 6
ENDMDL
MODEL 7
REMARK VINA RESULT:      -7.0      2.221      3.189
REMARK  6 active torsions:
REMARK  status: ('A' for Active; 'I' for Inactive)
REMARK    1  A    between atoms: O1_2  and  C2_3 
REMARK    2  A    between atoms: C2_3  and  C3_4 
REMARK    3  A    between atoms: C2_3  and  C18_22 
REMARK    4  A    between atoms: C3_4  and  N1_6 
REMARK    5  A    between atoms: C18_22  and  N3_24 
REMARK    6  A    between atoms: C18_22  and  C20_25 
ROOT
HETATM    1  C20 UNL     1      25.614   6.408  48.513  1.00  0.00     0.167 C 
HETATM    2  C21 UNL     1      26.897   7.156  48.688  1.00  0.00     0.061 C 
HETATM    3  N4  UNL     1      27.891   7.753  48.839  1.00  0.00    -0.197 NA
ENDROOT
BRANCH   1   4
HETATM    4  C18 UNL     1      24.781   6.759  49.690  1.00  0.00     0.191 C 
HETATM    5  C19 UNL     1      24.270   8.201  49.385  1.00  0.00     0.053 C 
BRANCH   4   6
HETATM    6  C2  UNL     1      23.525   5.915  49.682  1.00  0.00     0.182 C 
BRANCH   6   7
HETATM    7  O1  UNL     1      23.067   5.797  50.955  1.00  0.00    -0.386 OA
HETATM    8  C1  UNL     1      21.759   6.127  51.193  1.00  0.00     0.202 C 
ENDBRANCH   6   7
BRANCH   6   9
HETATM    9  C3  UNL     1      23.725   4.598  48.967  1.00  0.00     0.118 C 
HETATM   10  C4  UNL     1      22.741   4.465  47.851  1.00  0.00     0.035 C 
BRANCH   9  11
HETATM   11  N1  UNL     1      23.683   3.441  49.859  1.00  0.00    -0.338 N 
HETATM   12  C5  UNL     1      22.654   2.641  50.185  1.00  0.00     0.046 A 
HETATM   13  C6  UNL     1      21.324   2.639  49.823  1.00  0.00     0.030 A 
HETATM   14  C10 UNL     1      22.997   1.633  51.059  1.00  0.00     0.004 A 
HETATM   15  C7  UNL     1      20.385   1.733  50.264  1.00  0.00     0.002 A 
HETATM   16  C8  UNL     1      20.783   0.739  51.141  1.00  0.00     0.001 A 
HETATM   17  C9  UNL     1      22.106   0.705  51.531  1.00  0.00     0.014 A 
HETATM   18  C11 UNL     1      24.341   1.812  51.302  1.00  0.00     0.014 A 
HETATM   19  C12 UNL     1      25.200   1.097  52.106  1.00  0.00     0.006 A 
HETATM   20  C16 UNL     1      24.718   2.912  50.561  1.00  0.00     0.047 A 
HETATM   21  C13 UNL     1      26.519   1.464  52.207  1.00  0.00     0.100 A 
HETATM   22  C17 UNL     1      25.017  -0.101  52.976  1.00  0.00     0.160 A 
HETATM   23  C14 UNL     1      26.934   2.569  51.475  1.00  0.00     0.041 A 
HETATM   24  O2  UNL     1      27.170   0.590  53.072  1.00  0.00    -0.263 OA
HETATM   25  C15 UNL     1      26.049   3.241  50.697  1.00  0.00     0.033 A 
HETATM   26  N2  UNL     1      26.308  -0.345  53.583  1.00  0.00    -0.195 NA
HETATM   27  H15 UNL     1      26.609  -1.324  53.382  1.00  0.00     0.154 HD
ENDBRANCH   9  11
ENDBRANCH   6   9
ENDBRANCH   4   6
BRANCH   4  28
HETATM   28  N3  UNL     1      25.419   6.884  50.952  1.00  0.00     0.091 N 
HETATM   29  H21 UNL     1      26.010   6.065  51.147  1.00  0.00     0.314 HD
HETATM   30  H22 UNL     1      25.943   7.779  51.010  1.00  0.00     0.314 HD
ENDBRANCH   4  28
ENDBRANCH   1   4
TORSDOF 6
ENDMDL
MODEL 8
REMARK VINA RESULT:      -6.5      2.561      4.568
REMARK  6 active torsions:
REMARK  status: ('A' for Active; 'I' for Inactive)
REMARK    1  A    between atoms: O1_2  and  C2_3 
REMARK    2  A    between atoms: C2_3  and  C3_4 
REMARK    3  A    between atoms: C2_3  and  C18_22 
REMARK    4  A    between atoms: C3_4  and  N1_6 
REMARK    5  A    between atoms: C18_22  and  N3_24 
REMARK    6  A    between atoms: C18_22  and  C20_25 
ROOT
HETATM    1  C20 UNL     1      21.379   5.834  48.204  1.00  0.00     0.167 C 
HETATM    2  C21 UNL     1      20.166   6.709  48.212  1.00  0.00     0.061 C 
HETATM    3  N4  UNL     1      19.211   7.382  48.233  1.00  0.00    -0.197 NA
ENDROOT
BRANCH   1   4
HETATM    4  C18 UNL     1      21.298   5.023  49.444  1.00  0.00     0.191 C 
HETATM    5  C19 UNL     1      20.137   4.016  49.172  1.00  0.00     0.053 C 
BRANCH   4   6
HETATM    6  C2  UNL     1      22.527   4.147  49.550  1.00  0.00     0.182 C 
BRANCH   6   7
HETATM    7  O1  UNL     1      22.193   2.877  49.205  1.00  0.00    -0.386 OA
HETATM    8  C1  UNL     1      22.833   2.320  48.129  1.00  0.00     0.202 C 
ENDBRANCH   6   7
BRANCH   6   9
HETATM    9  C3  UNL     1      23.203   4.270  50.896  1.00  0.00     0.118 C 
HETATM   10  C4  UNL     1      24.508   4.982  50.752  1.00  0.00     0.035 C 
BRANCH   9  11
HETATM   11  N1  UNL     1      23.364   2.990  51.583  1.00  0.00    -0.338 N 
HETATM   12  C5  UNL     1      24.456   2.222  51.729  1.00  0.00     0.046 A 
HETATM   13  C6  UNL     1      25.755   2.353  51.285  1.00  0.00     0.030 A 
HETATM   14  C10 UNL     1      24.228   1.074  52.457  1.00  0.00     0.004 A 
HETATM   15  C7  UNL     1      26.768   1.451  51.522  1.00  0.00     0.002 A 
HETATM   16  C8  UNL     1      26.485   0.315  52.261  1.00  0.00     0.001 A 
HETATM   17  C9  UNL     1      25.197   0.142  52.724  1.00  0.00     0.014 A 
HETATM   18  C11 UNL     1      22.894   1.124  52.794  1.00  0.00     0.014 A 
HETATM   19  C12 UNL     1      22.126   0.235  53.512  1.00  0.00     0.006 A 
HETATM   20  C16 UNL     1      22.407   2.294  52.249  1.00  0.00     0.047 A 
HETATM   21  C13 UNL     1      20.793   0.485  53.723  1.00  0.00     0.100 A 
HETATM   22  C17 UNL     1      22.434  -1.062  54.182  1.00  0.00     0.160 A 
HETATM   23  C14 UNL     1      20.269   1.654  53.187  1.00  0.00     0.041 A 
HETATM   24  O2  UNL     1      20.248  -0.555  54.470  1.00  0.00    -0.263 OA
HETATM   25  C15 UNL     1      21.066   2.499  52.487  1.00  0.00     0.033 A 
HETATM   26  N2  UNL     1      21.180  -1.520  54.742  1.00  0.00    -0.195 NA
HETATM   27  H15 UNL     1      21.297  -1.692  55.765  1.00  0.00     0.154 HD
ENDBRANCH   9  11
ENDBRANCH   6   9
ENDBRANCH   4   6
BRANCH   4  28
HETATM   28  N3  UNL     1      20.911   5.672  50.646  1.00  0.00     0.091 N 
HETATM   29  H21 UNL     1      20.905   5.010  51.434  1.00  0.00     0.314 HD
HETATM   30  H22 UNL     1      21.511   6.501  50.824  1.00  0.00     0.314 HD
ENDBRANCH   4  28
ENDBRANCH   1   4
TORSDOF 6
ENDMDL
MODEL 9
REMARK VINA RESULT:      -6.4      4.844      7.378
REMARK  6 active torsions:
REMARK  status: ('A' for Active; 'I' for Inactive)
REMARK    1  A    between atoms: O1_2  and  C2_3 
REMARK    2  A    between atoms: C2_3  and  C3_4 
REMARK    3  A    between atoms: C2_3  and  C18_22 
REMARK    4  A    between atoms: C3_4  and  N1_6 
REMARK    5  A    between atoms: C18_22  and  N3_24 
REMARK    6  A    between atoms: C18_22  and  C20_25 
ROOT
HETATM    1  C20 UNL     1      14.608   3.077  52.786  1.00  0.00     0.167 C 
HETATM    2  C21 UNL     1      13.476   4.003  53.099  1.00  0.00     0.061 C 
HETATM    3  N4  UNL     1      12.584   4.724  53.324  1.00  0.00    -0.197 NA
ENDROOT
BRANCH   1   4
HETATM    4  C18 UNL     1      14.214   2.365  51.546  1.00  0.00     0.191 C 
HETATM    5  C19 UNL     1      15.323   2.743  50.515  1.00  0.00     0.053 C 
BRANCH   4   6
HETATM    6  C2  UNL     1      14.392   0.876  51.747  1.00  0.00     0.182 C 
BRANCH   6   7
HETATM    7  O1  UNL     1      14.473   0.618  53.078  1.00  0.00    -0.386 OA
HETATM    8  C1  UNL     1      13.349   0.149  53.705  1.00  0.00     0.202 C 
ENDBRANCH   6   7
BRANCH   6   9
HETATM    9  C3  UNL     1      15.540   0.322  50.934  1.00  0.00     0.118 C 
HETATM   10  C4  UNL     1      15.021  -0.578  49.859  1.00  0.00     0.035 C 
BRANCH   9  11
HETATM   11  N1  UNL     1      16.557  -0.344  51.745  1.00  0.00    -0.338 N 
HETATM   12  C5  UNL     1      16.538  -1.554  52.328  1.00  0.00     0.046 A 
HETATM   13  C6  UNL     1      15.585  -2.549  52.380  1.00  0.00     0.030 A 
HETATM   14  C10 UNL     1      17.696  -1.853  53.013  1.00  0.00     0.004 A 
HETATM   15  C7  UNL     1      15.729  -3.749  53.041  1.00  0.00     0.002 A 
HETATM   16  C8  UNL     1      16.913  -3.998  53.713  1.00  0.00     0.001 A 
HETATM   17  C9  UNL     1      17.894  -3.029  53.688  1.00  0.00     0.014 A 
HETATM   18  C11 UNL     1      18.502  -0.748  52.851  1.00  0.00     0.014 A 
HETATM   19  C12 UNL     1      19.769  -0.496  53.327  1.00  0.00     0.006 A 
HETATM   20  C16 UNL     1      17.780   0.140  52.080  1.00  0.00     0.047 A 
HETATM   21  C13 UNL     1      20.390   0.695  53.045  1.00  0.00     0.100 A 
HETATM   22  C17 UNL     1      20.718  -1.293  54.157  1.00  0.00     0.160 A 
HETATM   23  C14 UNL     1      19.692   1.614  52.273  1.00  0.00     0.041 A 
HETATM   24  O2  UNL     1      21.650   0.702  53.636  1.00  0.00    -0.263 OA
HETATM   25  C15 UNL     1      18.446   1.319  51.826  1.00  0.00     0.033 A 
HETATM   26  N2  UNL     1      21.882  -0.451  54.339  1.00  0.00    -0.195 NA
HETATM   27  H15 UNL     1      22.735  -0.958  54.014  1.00  0.00     0.154 HD
ENDBRANCH   9  11
ENDBRANCH   6   9
ENDBRANCH   4   6
BRANCH   4  28
HETATM   28  N3  UNL     1      13.008   2.750  50.904  1.00  0.00     0.091 N 
HETATM   29  H21 UNL     1      12.554   3.523  51.409  1.00  0.00     0.314 HD
HETATM   30  H22 UNL     1      13.180   2.971  49.904  1.00  0.00     0.314 HD
ENDBRANCH   4  28
ENDBRANCH   1   4
TORSDOF 6
ENDMDL
