MODEL 1
REMARK VINA RESULT:      -7.6      0.000      0.000
REMARK  5 active torsions:
REMARK  status: ('A' for Active; 'I' for Inactive)
REMARK    1  A    between atoms: O1_2  and  C2_3 
REMARK    2  A    between atoms: C7_8  and  O2_9 
REMARK    3  A    between atoms: C9_11  and  N1_12 
REMARK    4  A    between atoms: N1_12  and  C10_13 
REMARK    5  A    between atoms: C13_16  and  N2_17 
ROOT
HETATM    1  C2  UNL     1      32.741   6.023  48.798  1.00  0.00     0.103 A 
HETATM    2  C3  UNL     1      32.384   7.319  49.190  1.00  0.00     0.071 A 
HETATM    3  C4  UNL     1      31.078   7.795  49.000  1.00  0.00     0.067 A 
HETATM    4  C5  UNL     1      30.187   6.950  48.425  1.00  0.00     0.029 A 
HETATM    5  C6  UNL     1      30.536   5.668  48.036  1.00  0.00     0.056 A 
HETATM    6  C7  UNL     1      31.808   5.192  48.217  1.00  0.00     0.102 A 
HETATM    7  C9  UNL     1      28.958   7.412  48.251  1.00  0.00     0.084 A 
HETATM    8  S1  UNL     1      28.429   9.049  48.724  1.00  0.00    -0.089 SA
HETATM    9  C20 UNL     1      29.874   9.868  49.443  1.00  0.00     0.230 A 
HETATM   10  N3  UNL     1      30.977   8.978  49.420  1.00  0.00    -0.278 NA
ENDROOT
BRANCH   7  11
HETATM   11  N1  UNL     1      28.044   6.517  47.650  1.00  0.00    -0.350 N 
HETATM   12  H9  UNL     1      27.823   6.144  46.705  1.00  0.00     0.166 HD
BRANCH  11  13
HETATM   13  C10 UNL     1      27.125   5.914  48.557  1.00  0.00     0.033 A 
HETATM   14  C11 UNL     1      27.320   4.579  48.834  1.00  0.00     0.031 A 
HETATM   15  C12 UNL     1      26.489   3.911  49.698  1.00  0.00     0.031 A 
HETATM   16  C13 UNL     1      25.425   4.499  50.339  1.00  0.00     0.030 A 
HETATM   17  C18 UNL     1      25.254   5.831  50.046  1.00  0.00     0.031 A 
HETATM   18  C19 UNL     1      26.065   6.539  49.184  1.00  0.00     0.031 A 
BRANCH  16  19
HETATM   19  N2  UNL     1      24.545   3.845  51.234  1.00  0.00    -0.377 N 
HETATM   20  C14 UNL     1      24.875   2.750  52.123  1.00  0.00     0.149 C 
HETATM   21  C15 UNL     1      24.054   1.562  51.600  1.00  0.00     0.187 C 
HETATM   22  O3  UNL     1      22.760   1.817  52.009  1.00  0.00    -0.388 OA
HETATM   23  C16 UNL     1      22.239   2.981  51.517  1.00  0.00     0.187 C 
HETATM   24  C17 UNL     1      23.165   4.144  51.428  1.00  0.00     0.149 C 
ENDBRANCH  16  19
ENDBRANCH  11  13
ENDBRANCH   7  11
BRANCH   6  25
HETATM   25  O2  UNL     1      32.153   3.905  47.827  1.00  0.00    -0.353 OA
HETATM   26  C8  UNL     1      32.415   3.537  46.507  1.00  0.00     0.210 C 
ENDBRANCH   6  25
BRANCH   1  27
HETATM   27  O1  UNL     1      34.016   5.500  48.962  1.00  0.00    -0.353 OA
HETATM   28  C1  UNL     1      35.119   6.293  48.642  1.00  0.00     0.210 C 
ENDBRANCH   1  27
TORSDOF 5
ENDMDL
MODEL 2
REMARK VINA RESULT:      -7.6      6.231      8.513
REMARK  5 active torsions:
REMARK  status: ('A' for Active; 'I' for Inactive)
REMARK    1  A    between atoms: O1_2  and  C2_3 
REMARK    2  A    between atoms: C7_8  and  O2_9 
REMARK    3  A    between atoms: C9_11  and  N1_12 
REMARK    4  A    between atoms: N1_12  and  C10_13 
REMARK    5  A    between atoms: C13_16  and  N2_17 
ROOT
HETATM    1  C2  UNL     1      26.584   0.141  54.250  1.00  0.00     0.103 A 
HETATM    2  C3  UNL     1      25.440  -0.629  54.002  1.00  0.00     0.071 A 
HETATM    3  C4  UNL     1      24.275  -0.044  53.485  1.00  0.00     0.067 A 
HETATM    4  C5  UNL     1      24.307   1.289  53.239  1.00  0.00     0.029 A 
HETATM    5  C6  UNL     1      25.435   2.054  53.483  1.00  0.00     0.056 A 
HETATM    6  C7  UNL     1      26.579   1.493  53.987  1.00  0.00     0.102 A 
HETATM    7  C9  UNL     1      23.201   1.829  52.751  1.00  0.00     0.084 A 
HETATM    8  S1  UNL     1      21.708   0.914  52.410  1.00  0.00    -0.089 SA
HETATM    9  C20 UNL     1      22.045  -0.806  52.862  1.00  0.00     0.230 A 
HETATM   10  N3  UNL     1      23.374  -0.912  53.342  1.00  0.00    -0.278 NA
ENDROOT
BRANCH   7  11
HETATM   11  N1  UNL     1      23.253   3.220  52.502  1.00  0.00    -0.350 N 
HETATM   12  H9  UNL     1      23.459   4.098  53.018  1.00  0.00     0.166 HD
BRANCH  11  13
HETATM   13  C10 UNL     1      22.941   3.591  51.162  1.00  0.00     0.033 A 
HETATM   14  C11 UNL     1      23.806   3.153  50.184  1.00  0.00     0.031 A 
HETATM   15  C12 UNL     1      23.588   3.457  48.864  1.00  0.00     0.031 A 
HETATM   16  C13 UNL     1      22.521   4.201  48.420  1.00  0.00     0.030 A 
HETATM   17  C18 UNL     1      21.673   4.625  49.416  1.00  0.00     0.031 A 
HETATM   18  C19 UNL     1      21.856   4.342  50.754  1.00  0.00     0.031 A 
BRANCH  16  19
HETATM   19  N2  UNL     1      22.263   4.537  47.070  1.00  0.00    -0.377 N 
HETATM   20  C14 UNL     1      22.282   5.866  46.492  1.00  0.00     0.149 C 
HETATM   21  C15 UNL     1      20.828   6.129  46.072  1.00  0.00     0.187 C 
HETATM   22  O3  UNL     1      20.647   5.377  44.928  1.00  0.00    -0.388 OA
HETATM   23  C16 UNL     1      20.832   4.035  45.109  1.00  0.00     0.187 C 
HETATM   24  C17 UNL     1      21.935   3.627  46.022  1.00  0.00     0.149 C 
ENDBRANCH  16  19
ENDBRANCH  11  13
ENDBRANCH   7  11
BRANCH   6  25
HETATM   25  O2  UNL     1      27.707   2.264  54.229  1.00  0.00    -0.353 OA
HETATM   26  C8  UNL     1      28.667   2.562  53.262  1.00  0.00     0.210 C 
ENDBRANCH   6  25
BRANCH   1  27
HETATM   27  O1  UNL     1      27.762  -0.385  54.760  1.00  0.00    -0.353 OA
HETATM   28  C1  UNL     1      28.702  -0.919  53.878  1.00  0.00     0.210 C 
ENDBRANCH   1  27
TORSDOF 5
ENDMDL
MODEL 3
REMARK VINA RESULT:      -7.5      6.853      9.211
REMARK  5 active torsions:
REMARK  status: ('A' for Active; 'I' for Inactive)
REMARK    1  A    between atoms: O1_2  and  C2_3 
REMARK    2  A    between atoms: C7_8  and  O2_9 
REMARK    3  A    between atoms: C9_11  and  N1_12 
REMARK    4  A    between atoms: N1_12  and  C10_13 
REMARK    5  A    between atoms: C13_16  and  N2_17 
ROOT
HETATM    1  C2  UNL     1      26.384   1.151  53.994  1.00  0.00     0.103 A 
HETATM    2  C3  UNL     1      25.777   2.400  53.812  1.00  0.00     0.071 A 
HETATM    3  C4  UNL     1      24.550   2.514  53.144  1.00  0.00     0.067 A 
HETATM    4  C5  UNL     1      23.983   1.370  52.686  1.00  0.00     0.029 A 
HETATM    5  C6  UNL     1      24.580   0.133  52.865  1.00  0.00     0.056 A 
HETATM    6  C7  UNL     1      25.778   0.009  53.517  1.00  0.00     0.102 A 
HETATM    7  C9  UNL     1      22.825   1.491  52.057  1.00  0.00     0.084 A 
HETATM    8  S1  UNL     1      21.991   3.046  51.787  1.00  0.00    -0.089 SA
HETATM    9  C20 UNL     1      23.039   4.325  52.524  1.00  0.00     0.230 A 
HETATM   10  N3  UNL     1      24.189   3.720  53.090  1.00  0.00    -0.278 NA
ENDROOT
BRANCH   7  11
HETATM   11  N1  UNL     1      22.250   0.288  51.587  1.00  0.00    -0.350 N 
HETATM   12  H9  UNL     1      22.559  -0.649  51.258  1.00  0.00     0.166 HD
BRANCH  11  13
HETATM   13  C10 UNL     1      20.827   0.299  51.524  1.00  0.00     0.033 A 
HETATM   14  C11 UNL     1      20.156  -0.201  52.618  1.00  0.00     0.031 A 
HETATM   15  C12 UNL     1      18.785  -0.230  52.652  1.00  0.00     0.031 A 
HETATM   16  C13 UNL     1      17.989   0.225  51.628  1.00  0.00     0.030 A 
HETATM   17  C18 UNL     1      18.682   0.719  50.549  1.00  0.00     0.031 A 
HETATM   18  C19 UNL     1      20.059   0.766  50.474  1.00  0.00     0.031 A 
BRANCH  16  19
HETATM   19  N2  UNL     1      16.574   0.211  51.624  1.00  0.00    -0.377 N 
HETATM   20  C14 UNL     1      15.710   0.590  50.524  1.00  0.00     0.149 C 
HETATM   21  C15 UNL     1      14.967   1.838  51.024  1.00  0.00     0.187 C 
HETATM   22  O3  UNL     1      14.024   1.358  51.911  1.00  0.00    -0.388 OA
HETATM   23  C16 UNL     1      14.553   0.686  52.978  1.00  0.00     0.187 C 
HETATM   24  C17 UNL     1      15.731  -0.182  52.705  1.00  0.00     0.149 C 
ENDBRANCH  16  19
ENDBRANCH  11  13
ENDBRANCH   7  11
BRANCH   6  25
HETATM   25  O2  UNL     1      26.372  -1.233  53.694  1.00  0.00    -0.353 OA
HETATM   26  C8  UNL     1      27.018  -1.938  52.679  1.00  0.00     0.210 C 
ENDBRANCH   6  25
BRANCH   1  27
HETATM   27  O1  UNL     1      27.596   0.979  54.647  1.00  0.00    -0.353 OA
HETATM   28  C1  UNL     1      28.774   1.349  53.996  1.00  0.00     0.210 C 
ENDBRANCH   1  27
TORSDOF 5
ENDMDL
MODEL 4
REMARK VINA RESULT:      -7.5      2.926      4.846
REMARK  5 active torsions:
REMARK  status: ('A' for Active; 'I' for Inactive)
REMARK    1  A    between atoms: O1_2  and  C2_3 
REMARK    2  A    between atoms: C7_8  and  O2_9 
REMARK    3  A    between atoms: C9_11  and  N1_12 
REMARK    4  A    between atoms: N1_12  and  C10_13 
REMARK    5  A    between atoms: C13_16  and  N2_17 
ROOT
HETATM    1  C2  UNL     1      28.026   7.966  48.697  1.00  0.00     0.103 A 
HETATM    2  C3  UNL     1      26.914   8.419  49.418  1.00  0.00     0.071 A 
HETATM    3  C4  UNL     1      25.867   7.547  49.751  1.00  0.00     0.067 A 
HETATM    4  C5  UNL     1      25.980   6.258  49.345  1.00  0.00     0.029 A 
HETATM    5  C6  UNL     1      27.079   5.806  48.633  1.00  0.00     0.056 A 
HETATM    6  C7  UNL     1      28.107   6.649  48.303  1.00  0.00     0.102 A 
HETATM    7  C9  UNL     1      24.985   5.446  49.665  1.00  0.00     0.084 A 
HETATM    8  S1  UNL     1      23.538   5.949  50.580  1.00  0.00    -0.089 SA
HETATM    9  C20 UNL     1      23.743   7.712  50.936  1.00  0.00     0.230 A 
HETATM   10  N3  UNL     1      24.973   8.159  50.394  1.00  0.00    -0.278 NA
ENDROOT
BRANCH   7  11
HETATM   11  N1  UNL     1      25.121   4.106  49.233  1.00  0.00    -0.350 N 
HETATM   12  H9  UNL     1      25.543   3.580  48.442  1.00  0.00     0.166 HD
BRANCH  11  13
HETATM   13  C10 UNL     1      24.523   3.145  50.098  1.00  0.00     0.033 A 
HETATM   14  C11 UNL     1      23.305   2.636  49.705  1.00  0.00     0.031 A 
HETATM   15  C12 UNL     1      22.652   1.702  50.469  1.00  0.00     0.031 A 
HETATM   16  C13 UNL     1      23.142   1.212  51.655  1.00  0.00     0.030 A 
HETATM   17  C18 UNL     1      24.358   1.735  52.024  1.00  0.00     0.031 A 
HETATM   18  C19 UNL     1      25.048   2.674  51.286  1.00  0.00     0.031 A 
BRANCH  16  19
HETATM   19  N2  UNL     1      22.499   0.252  52.473  1.00  0.00    -0.377 N 
HETATM   20  C14 UNL     1      21.071   0.063  52.621  1.00  0.00     0.149 C 
HETATM   21  C15 UNL     1      20.779   0.429  54.085  1.00  0.00     0.187 C 
HETATM   22  O3  UNL     1      21.238  -0.647  54.819  1.00  0.00    -0.388 OA
HETATM   23  C16 UNL     1      22.574  -0.894  54.669  1.00  0.00     0.187 C 
HETATM   24  C17 UNL     1      23.140  -0.712  53.305  1.00  0.00     0.149 C 
ENDBRANCH  16  19
ENDBRANCH  11  13
ENDBRANCH   7  11
BRANCH   6  25
HETATM   25  O2  UNL     1      29.206   6.191  47.589  1.00  0.00    -0.353 OA
HETATM   26  C8  UNL     1      30.255   5.468  48.156  1.00  0.00     0.210 C 
ENDBRANCH   6  25
BRANCH   1  27
HETATM   27  O1  UNL     1      29.090   8.784  48.342  1.00  0.00    -0.353 OA
HETATM   28  C1  UNL     1      29.770   9.482  49.341  1.00  0.00     0.210 C 
ENDBRANCH   1  27
TORSDOF 5
ENDMDL
MODEL 5
REMARK VINA RESULT:      -7.4      5.159      8.378
REMARK  5 active torsions:
REMARK  status: ('A' for Active; 'I' for Inactive)
REMARK    1  A    between atoms: O1_2  and  C2_3 
REMARK    2  A    between atoms: C7_8  and  O2_9 
REMARK    3  A    between atoms: C9_11  and  N1_12 
REMARK    4  A    between atoms: N1_12  and  C10_13 
REMARK    5  A    between atoms: C13_16  and  N2_17 
ROOT
HETATM    1  C2  UNL     1      25.877   0.193  53.657  1.00  0.00     0.103 A 
HETATM    2  C3  UNL     1      24.611  -0.090  53.130  1.00  0.00     0.071 A 
HETATM    3  C4  UNL     1      23.760   0.940  52.704  1.00  0.00     0.067 A 
HETATM    4  C5  UNL     1      24.216   2.212  52.824  1.00  0.00     0.029 A 
HETATM    5  C6  UNL     1      25.468   2.496  53.344  1.00  0.00     0.056 A 
HETATM    6  C7  UNL     1      26.307   1.498  53.763  1.00  0.00     0.102 A 
HETATM    7  C9  UNL     1      23.404   3.174  52.418  1.00  0.00     0.084 A 
HETATM    8  S1  UNL     1      21.779   2.892  51.737  1.00  0.00    -0.089 SA
HETATM    9  C20 UNL     1      21.527   1.099  51.739  1.00  0.00     0.230 A 
HETATM   10  N3  UNL     1      22.678   0.465  52.270  1.00  0.00    -0.278 NA
ENDROOT
BRANCH   7  11
HETATM   11  N1  UNL     1      23.897   4.493  52.552  1.00  0.00    -0.350 N 
HETATM   12  H9  UNL     1      24.127   5.168  53.309  1.00  0.00     0.166 HD
BRANCH  11  13
HETATM   13  C10 UNL     1      24.184   5.144  51.317  1.00  0.00     0.033 A 
HETATM   14  C11 UNL     1      23.719   6.433  51.177  1.00  0.00     0.031 A 
HETATM   15  C12 UNL     1      23.948   7.142  50.025  1.00  0.00     0.031 A 
HETATM   16  C13 UNL     1      24.639   6.642  48.947  1.00  0.00     0.030 A 
HETATM   17  C18 UNL     1      25.092   5.355  49.113  1.00  0.00     0.031 A 
HETATM   18  C19 UNL     1      24.883   4.607  50.253  1.00  0.00     0.031 A 
BRANCH  16  19
HETATM   19  N2  UNL     1      24.894   7.341  47.743  1.00  0.00    -0.377 N 
HETATM   20  C14 UNL     1      26.174   7.846  47.293  1.00  0.00     0.149 C 
HETATM   21  C15 UNL     1      26.011   9.373  47.286  1.00  0.00     0.187 C 
HETATM   22  O3  UNL     1      25.243   9.644  46.170  1.00  0.00    -0.388 OA
HETATM   23  C16 UNL     1      24.010   9.054  46.185  1.00  0.00     0.187 C 
HETATM   24  C17 UNL     1      23.933   7.677  46.744  1.00  0.00     0.149 C 
ENDBRANCH  16  19
ENDBRANCH  11  13
ENDBRANCH   7  11
BRANCH   6  25
HETATM   25  O2  UNL     1      27.561   1.788  54.283  1.00  0.00    -0.353 OA
HETATM   26  C8  UNL     1      28.586   2.390  53.552  1.00  0.00     0.210 C 
ENDBRANCH   6  25
BRANCH   1  27
HETATM   27  O1  UNL     1      26.759  -0.785  54.094  1.00  0.00    -0.353 OA
HETATM   28  C1  UNL     1      27.484  -1.513  53.149  1.00  0.00     0.210 C 
ENDBRANCH   1  27
TORSDOF 5
ENDMDL
MODEL 6
REMARK VINA RESULT:      -7.4      3.219      5.067
REMARK  5 active torsions:
REMARK  status: ('A' for Active; 'I' for Inactive)
REMARK    1  A    between atoms: O1_2  and  C2_3 
REMARK    2  A    between atoms: C7_8  and  O2_9 
REMARK    3  A    between atoms: C9_11  and  N1_12 
REMARK    4  A    between atoms: N1_12  and  C10_13 
REMARK    5  A    between atoms: C13_16  and  N2_17 
ROOT
HETATM    1  C2  UNL     1      27.885   8.100  48.784  1.00  0.00     0.103 A 
HETATM    2  C3  UNL     1      26.785   8.574  49.509  1.00  0.00     0.071 A 
HETATM    3  C4  UNL     1      25.679   7.750  49.763  1.00  0.00     0.067 A 
HETATM    4  C5  UNL     1      25.723   6.484  49.277  1.00  0.00     0.029 A 
HETATM    5  C6  UNL     1      26.809   6.011  48.560  1.00  0.00     0.056 A 
HETATM    6  C7  UNL     1      27.895   6.807  48.307  1.00  0.00     0.102 A 
HETATM    7  C9  UNL     1      24.673   5.717  49.524  1.00  0.00     0.084 A 
HETATM    8  S1  UNL     1      23.237   6.250  50.439  1.00  0.00    -0.089 SA
HETATM    9  C20 UNL     1      23.540   7.971  50.912  1.00  0.00     0.230 A 
HETATM   10  N3  UNL     1      24.808   8.375  50.425  1.00  0.00    -0.278 NA
ENDROOT
BRANCH   7  11
HETATM   11  N1  UNL     1      24.738   4.402  49.009  1.00  0.00    -0.350 N 
HETATM   12  H9  UNL     1      24.550   3.902  48.117  1.00  0.00     0.166 HD
BRANCH  11  13
HETATM   13  C10 UNL     1      25.189   3.425  49.943  1.00  0.00     0.033 A 
HETATM   14  C11 UNL     1      24.216   2.683  50.577  1.00  0.00     0.031 A 
HETATM   15  C12 UNL     1      24.552   1.717  51.491  1.00  0.00     0.031 A 
HETATM   16  C13 UNL     1      25.846   1.416  51.841  1.00  0.00     0.030 A 
HETATM   17  C18 UNL     1      26.796   2.170  51.194  1.00  0.00     0.031 A 
HETATM   18  C19 UNL     1      26.502   3.150  50.270  1.00  0.00     0.031 A 
BRANCH  16  19
HETATM   19  N2  UNL     1      26.232   0.429  52.779  1.00  0.00    -0.377 N 
HETATM   20  C14 UNL     1      26.265   0.575  54.220  1.00  0.00     0.149 C 
HETATM   21  C15 UNL     1      27.752   0.463  54.590  1.00  0.00     0.187 C 
HETATM   22  O3  UNL     1      28.045  -0.883  54.481  1.00  0.00    -0.388 OA
HETATM   23  C16 UNL     1      27.847  -1.396  53.230  1.00  0.00     0.187 C 
HETATM   24  C17 UNL     1      26.662  -0.897  52.480  1.00  0.00     0.149 C 
ENDBRANCH  16  19
ENDBRANCH  11  13
ENDBRANCH   7  11
BRANCH   6  25
HETATM   25  O2  UNL     1      28.982   6.328  47.588  1.00  0.00    -0.353 OA
HETATM   26  C8  UNL     1      30.065   5.665  48.165  1.00  0.00     0.210 C 
ENDBRANCH   6  25
BRANCH   1  27
HETATM   27  O1  UNL     1      29.005   8.870  48.504  1.00  0.00    -0.353 OA
HETATM   28  C1  UNL     1      28.869   9.985  47.676  1.00  0.00     0.210 C 
ENDBRANCH   1  27
TORSDOF 5
ENDMDL
MODEL 7
REMARK VINA RESULT:      -7.4      5.721      8.446
REMARK  5 active torsions:
REMARK  status: ('A' for Active; 'I' for Inactive)
REMARK    1  A    between atoms: O1_2  and  C2_3 
REMARK    2  A    between atoms: C7_8  and  O2_9 
REMARK    3  A    between atoms: C9_11  and  N1_12 
REMARK    4  A    between atoms: N1_12  and  C10_13 
REMARK    5  A    between atoms: C13_16  and  N2_17 
ROOT
HETATM    1  C2  UNL     1      27.100  -0.280  53.276  1.00  0.00     0.103 A 
HETATM    2  C3  UNL     1      27.335   0.585  52.199  1.00  0.00     0.071 A 
HETATM    3  C4  UNL     1      26.386   1.548  51.828  1.00  0.00     0.067 A 
HETATM    4  C5  UNL     1      25.241   1.603  52.552  1.00  0.00     0.029 A 
HETATM    5  C6  UNL     1      25.005   0.750  53.618  1.00  0.00     0.056 A 
HETATM    6  C7  UNL     1      25.925  -0.194  53.990  1.00  0.00     0.102 A 
HETATM    7  C9  UNL     1      24.353   2.516  52.191  1.00  0.00     0.084 A 
HETATM    8  S1  UNL     1      24.581   3.650  50.833  1.00  0.00    -0.089 SA
HETATM    9  C20 UNL     1      26.201   3.276  50.117  1.00  0.00     0.230 A 
HETATM   10  N3  UNL     1      26.797   2.211  50.839  1.00  0.00    -0.278 NA
ENDROOT
BRANCH   7  11
HETATM   11  N1  UNL     1      23.166   2.557  52.958  1.00  0.00    -0.350 N 
HETATM   12  H9  UNL     1      22.868   2.806  53.922  1.00  0.00     0.166 HD
BRANCH  11  13
HETATM   13  C10 UNL     1      21.996   2.149  52.255  1.00  0.00     0.033 A 
HETATM   14  C11 UNL     1      20.912   2.997  52.318  1.00  0.00     0.031 A 
HETATM   15  C12 UNL     1      19.741   2.692  51.672  1.00  0.00     0.031 A 
HETATM   16  C13 UNL     1      19.556   1.550  50.930  1.00  0.00     0.030 A 
HETATM   17  C18 UNL     1      20.652   0.722  50.883  1.00  0.00     0.031 A 
HETATM   18  C19 UNL     1      21.847   0.991  51.518  1.00  0.00     0.031 A 
BRANCH  16  19
HETATM   19  N2  UNL     1      18.365   1.199  50.251  1.00  0.00    -0.377 N 
HETATM   20  C14 UNL     1      17.647   2.012  49.291  1.00  0.00     0.149 C 
HETATM   21  C15 UNL     1      16.303   2.320  49.969  1.00  0.00     0.187 C 
HETATM   22  O3  UNL     1      15.580   1.147  49.874  1.00  0.00    -0.388 OA
HETATM   23  C16 UNL     1      16.167   0.079  50.492  1.00  0.00     0.187 C 
HETATM   24  C17 UNL     1      17.648  -0.026  50.385  1.00  0.00     0.149 C 
ENDBRANCH  16  19
ENDBRANCH  11  13
ENDBRANCH   7  11
BRANCH   6  25
HETATM   25  O2  UNL     1      25.684  -1.045  55.059  1.00  0.00    -0.353 OA
HETATM   26  C8  UNL     1      24.422  -1.262  55.612  1.00  0.00     0.210 C 
ENDBRANCH   6  25
BRANCH   1  27
HETATM   27  O1  UNL     1      28.003  -1.250  53.687  1.00  0.00    -0.353 OA
HETATM   28  C1  UNL     1      29.348  -0.904  53.834  1.00  0.00     0.210 C 
ENDBRANCH   1  27
TORSDOF 5
ENDMDL
MODEL 8
REMARK VINA RESULT:      -7.2      6.341     10.022
REMARK  5 active torsions:
REMARK  status: ('A' for Active; 'I' for Inactive)
REMARK    1  A    between atoms: O1_2  and  C2_3 
REMARK    2  A    between atoms: C7_8  and  O2_9 
REMARK    3  A    between atoms: C9_11  and  N1_12 
REMARK    4  A    between atoms: N1_12  and  C10_13 
REMARK    5  A    between atoms: C13_16  and  N2_17 
ROOT
HETATM    1  C2  UNL     1      19.859   0.719  51.061  1.00  0.00     0.103 A 
HETATM    2  C3  UNL     1      20.188   1.133  49.764  1.00  0.00     0.071 A 
HETATM    3  C4  UNL     1      21.252   2.018  49.539  1.00  0.00     0.067 A 
HETATM    4  C5  UNL     1      21.941   2.451  50.624  1.00  0.00     0.029 A 
HETATM    5  C6  UNL     1      21.618   2.044  51.908  1.00  0.00     0.056 A 
HETATM    6  C7  UNL     1      20.581   1.179  52.140  1.00  0.00     0.102 A 
HETATM    7  C9  UNL     1      22.942   3.286  50.397  1.00  0.00     0.084 A 
HETATM    8  S1  UNL     1      23.421   3.857  48.776  1.00  0.00    -0.089 SA
HETATM    9  C20 UNL     1      22.286   3.078  47.601  1.00  0.00     0.230 A 
HETATM   10  N3  UNL     1      21.371   2.257  48.308  1.00  0.00    -0.278 NA
ENDROOT
BRANCH   7  11
HETATM   11  N1  UNL     1      23.647   3.726  51.541  1.00  0.00    -0.350 N 
HETATM   12  H9  UNL     1      23.660   4.543  52.184  1.00  0.00     0.166 HD
BRANCH  11  13
HETATM   13  C10 UNL     1      24.653   2.825  51.997  1.00  0.00     0.033 A 
HETATM   14  C11 UNL     1      24.802   2.708  53.362  1.00  0.00     0.031 A 
HETATM   15  C12 UNL     1      25.742   1.863  53.897  1.00  0.00     0.031 A 
HETATM   16  C13 UNL     1      26.587   1.087  53.141  1.00  0.00     0.030 A 
HETATM   17  C18 UNL     1      26.417   1.223  51.783  1.00  0.00     0.031 A 
HETATM   18  C19 UNL     1      25.486   2.060  51.204  1.00  0.00     0.031 A 
BRANCH  16  19
HETATM   19  N2  UNL     1      27.569   0.207  53.654  1.00  0.00    -0.377 N 
HETATM   20  C14 UNL     1      28.627   0.543  54.585  1.00  0.00     0.149 C 
HETATM   21  C15 UNL     1      29.925   0.353  53.786  1.00  0.00     0.187 C 
HETATM   22  O3  UNL     1      30.100  -1.016  53.712  1.00  0.00    -0.388 OA
HETATM   23  C16 UNL     1      29.079  -1.674  53.085  1.00  0.00     0.187 C 
HETATM   24  C17 UNL     1      27.700  -1.180  53.349  1.00  0.00     0.149 C 
ENDBRANCH  16  19
ENDBRANCH  11  13
ENDBRANCH   7  11
BRANCH   6  25
HETATM   25  O2  UNL     1      20.263   0.774  53.429  1.00  0.00    -0.353 OA
HETATM   26  C8  UNL     1      21.036  -0.113  54.179  1.00  0.00     0.210 C 
ENDBRANCH   6  25
BRANCH   1  27
HETATM   27  O1  UNL     1      18.818  -0.154  51.342  1.00  0.00    -0.353 OA
HETATM   28  C1  UNL     1      17.531   0.359  51.515  1.00  0.00     0.210 C 
ENDBRANCH   1  27
TORSDOF 5
ENDMDL
MODEL 9
REMARK VINA RESULT:      -7.1      4.020      9.371
REMARK  5 active torsions:
REMARK  status: ('A' for Active; 'I' for Inactive)
REMARK    1  A    between atoms: O1_2  and  C2_3 
REMARK    2  A    between atoms: C7_8  and  O2_9 
REMARK    3  A    between atoms: C9_11  and  N1_12 
REMARK    4  A    between atoms: N1_12  and  C10_13 
REMARK    5  A    between atoms: C13_16  and  N2_17 
ROOT
HETATM    1  C2  UNL     1      22.221  -0.132  52.912  1.00  0.00     0.103 A 
HETATM    2  C3  UNL     1      23.517  -0.028  53.431  1.00  0.00     0.071 A 
HETATM    3  C4  UNL     1      24.474   0.797  52.822  1.00  0.00     0.067 A 
HETATM    4  C5  UNL     1      24.089   1.482  51.716  1.00  0.00     0.029 A 
HETATM    5  C6  UNL     1      22.808   1.382  51.200  1.00  0.00     0.056 A 
HETATM    6  C7  UNL     1      21.865   0.580  51.787  1.00  0.00     0.102 A 
HETATM    7  C9  UNL     1      25.001   2.257  51.151  1.00  0.00     0.084 A 
HETATM    8  S1  UNL     1      26.670   2.442  51.754  1.00  0.00    -0.089 SA
HETATM    9  C20 UNL     1      26.806   1.386  53.218  1.00  0.00     0.230 A 
HETATM   10  N3  UNL     1      25.566   0.741  53.447  1.00  0.00    -0.278 NA
ENDROOT
BRANCH   7  11
HETATM   11  N1  UNL     1      24.581   2.962  49.999  1.00  0.00    -0.350 N 
HETATM   12  H9  UNL     1      23.937   2.830  49.194  1.00  0.00     0.166 HD
BRANCH  11  13
HETATM   13  C10 UNL     1      25.182   4.244  49.841  1.00  0.00     0.033 A 
HETATM   14  C11 UNL     1      26.307   4.303  49.048  1.00  0.00     0.031 A 
HETATM   15  C12 UNL     1      26.955   5.493  48.833  1.00  0.00     0.031 A 
HETATM   16  C13 UNL     1      26.550   6.690  49.374  1.00  0.00     0.030 A 
HETATM   17  C18 UNL     1      25.426   6.603  50.161  1.00  0.00     0.031 A 
HETATM   18  C19 UNL     1      24.745   5.428  50.403  1.00  0.00     0.031 A 
BRANCH  16  19
HETATM   19  N2  UNL     1      27.192   7.936  49.179  1.00  0.00    -0.377 N 
HETATM   20  C14 UNL     1      27.046   9.120  50.000  1.00  0.00     0.149 C 
HETATM   21  C15 UNL     1      26.372  10.151  49.081  1.00  0.00     0.187 C 
HETATM   22  O3  UNL     1      27.373  10.576  48.229  1.00  0.00    -0.388 OA
HETATM   23  C16 UNL     1      27.920   9.578  47.471  1.00  0.00     0.187 C 
HETATM   24  C17 UNL     1      28.106   8.258  48.133  1.00  0.00     0.149 C 
ENDBRANCH  16  19
ENDBRANCH  11  13
ENDBRANCH   7  11
BRANCH   6  25
HETATM   25  O2  UNL     1      20.583   0.483  51.266  1.00  0.00    -0.353 OA
HETATM   26  C8  UNL     1      19.611   1.474  51.402  1.00  0.00     0.210 C 
ENDBRANCH   6  25
BRANCH   1  27
HETATM   27  O1  UNL     1      21.236  -0.932  53.474  1.00  0.00    -0.353 OA
HETATM   28  C1  UNL     1      21.542  -1.688  54.607  1.00  0.00     0.210 C 
ENDBRANCH   1  27
TORSDOF 5
ENDMDL
