MODEL 1
REMARK VINA RESULT:      -8.5      0.000      0.000
REMARK  5 active torsions:
REMARK  status: ('A' for Active; 'I' for Inactive)
REMARK    1  A    between atoms: C2_2  and  C3_3 
REMARK    2  A    between atoms: C4_4  and  N1_5 
REMARK    3  A    between atoms: C6_8  and  C7_9 
REMARK    4  A    between atoms: C17_21  and  C18_22 
REMARK    5  A    between atoms: C19_24  and  N5_25 
ROOT
HETATM    1  N1  UNL     1      25.528   3.114  50.599  1.00  0.00    -0.295 N 
HETATM    2  C5  UNL     1      26.375   2.798  49.435  1.00  0.00     0.291 C 
HETATM    3  N2  UNL     1      27.101   3.987  49.013  1.00  0.00    -0.271 NA
HETATM    4  C6  UNL     1      26.634   5.156  49.082  1.00  0.00     0.053 C 
HETATM    5  C16 UNL     1      25.273   5.250  49.633  1.00  0.00     0.170 C 
HETATM    6  N4  UNL     1      25.062   4.424  50.787  1.00  0.00    -0.231 NA
HETATM    7  H20 UNL     1      25.510   4.877  51.616  1.00  0.00     0.147 HD
ENDROOT
BRANCH   1   8
HETATM    8  C4  UNL     1      25.150   2.133  51.569  1.00  0.00     0.046 C 
HETATM    9  C3  UNL     1      23.926   1.590  51.435  1.00  0.00    -0.032 C 
HETATM   10  C24 UNL     1      23.266   0.565  52.273  1.00  0.00     0.026 C 
HETATM   11  C23 UNL     1      23.814  -0.160  53.263  1.00  0.00     0.088 C 
HETATM   12  N6  UNL     1      25.176  -0.109  53.741  1.00  0.00    -0.364 N 
HETATM   13  C19 UNL     1      26.286   0.359  52.905  1.00  0.00     0.339 C 
HETATM   14  C22 UNL     1      25.251  -0.573  55.112  1.00  0.00     0.151 C 
HETATM   15  C17 UNL     1      26.166   1.830  52.615  1.00  0.00     0.151 C 
BRANCH   9  16
HETATM   16  C2  UNL     1      23.043   2.018  50.321  1.00  0.00     0.036 C 
HETATM   17  C1  UNL     1      21.844   1.113  50.197  1.00  0.00     0.010 C 
ENDBRANCH   9  16
BRANCH  13  18
HETATM   18  N5  UNL     1      27.548   0.057  53.498  1.00  0.00     0.104 N 
HETATM   19  C20 UNL     1      28.118  -1.202  53.107  1.00  0.00     0.312 C 
HETATM   20  C21 UNL     1      28.485   1.104  53.202  1.00  0.00     0.312 C 
ENDBRANCH  13  18
BRANCH  15  21
HETATM   21  C18 UNL     1      25.817   2.525  53.868  1.00  0.00     0.245 C 
HETATM   22  O1  UNL     1      24.924   3.321  54.026  1.00  0.00    -0.306 OA
ENDBRANCH  15  21
ENDBRANCH   1   8
BRANCH   4  23
HETATM   23  C7  UNL     1      27.322   6.378  48.672  1.00  0.00    -0.008 C 
HETATM   24  C8  UNL     1      26.868   7.528  49.289  1.00  0.00     0.100 C 
HETATM   25  N3  UNL     1      27.838   8.444  48.704  1.00  0.00    -0.364 N 
HETATM   26  C9  UNL     1      28.665   9.413  49.436  1.00  0.00     0.097 C 
HETATM   27  C15 UNL     1      27.870   8.048  47.253  1.00  0.00     0.141 C 
HETATM   28  C10 UNL     1      29.991   9.103  49.278  1.00  0.00    -0.047 C 
HETATM   29  C11 UNL     1      30.729  10.276  49.757  1.00  0.00     0.049 C 
HETATM   30  C12 UNL     1      30.565   7.827  48.753  1.00  0.00     0.005 C 
HETATM   31  C13 UNL     1      29.772   6.829  48.270  1.00  0.00    -0.015 C 
HETATM   32  C14 UNL     1      28.442   6.639  47.685  1.00  0.00     0.063 C 
ENDBRANCH   4  23
TORSDOF 5
ENDMDL
MODEL 2
REMARK VINA RESULT:      -8.0      3.053      8.244
REMARK  5 active torsions:
REMARK  status: ('A' for Active; 'I' for Inactive)
REMARK    1  A    between atoms: C2_2  and  C3_3 
REMARK    2  A    between atoms: C4_4  and  N1_5 
REMARK    3  A    between atoms: C6_8  and  C7_9 
REMARK    4  A    between atoms: C17_21  and  C18_22 
REMARK    5  A    between atoms: C19_24  and  N5_25 
ROOT
HETATM    1  N1  UNL     1      23.642   4.061  50.289  1.00  0.00    -0.295 N 
HETATM    2  C5  UNL     1      23.483   4.417  51.710  1.00  0.00     0.291 C 
HETATM    3  N2  UNL     1      24.345   3.577  52.530  1.00  0.00    -0.271 NA
HETATM    4  C6  UNL     1      24.609   2.373  52.266  1.00  0.00     0.053 C 
HETATM    5  C16 UNL     1      23.979   1.853  51.044  1.00  0.00     0.170 C 
HETATM    6  N4  UNL     1      24.036   2.762  49.935  1.00  0.00    -0.231 NA
HETATM    7  H20 UNL     1      25.001   2.748  49.533  1.00  0.00     0.147 HD
ENDROOT
BRANCH   1   8
HETATM    8  C4  UNL     1      23.411   4.993  49.228  1.00  0.00     0.046 C 
HETATM    9  C3  UNL     1      24.407   5.854  48.951  1.00  0.00    -0.032 C 
HETATM   10  C24 UNL     1      24.460   6.917  47.924  1.00  0.00     0.026 C 
HETATM   11  C23 UNL     1      23.576   7.149  46.939  1.00  0.00     0.088 C 
HETATM   12  N6  UNL     1      22.366   6.414  46.652  1.00  0.00    -0.364 N 
HETATM   13  C19 UNL     1      22.180   5.017  47.059  1.00  0.00     0.339 C 
HETATM   14  C22 UNL     1      21.423   7.246  45.933  1.00  0.00     0.151 C 
HETATM   15  C17 UNL     1      22.086   4.895  48.554  1.00  0.00     0.151 C 
BRANCH   9  16
HETATM   16  C2  UNL     1      25.667   5.804  49.734  1.00  0.00     0.036 C 
HETATM   17  C1  UNL     1      26.766   5.124  48.957  1.00  0.00     0.010 C 
ENDBRANCH   9  16
BRANCH  13  18
HETATM   18  N5  UNL     1      21.038   4.439  46.426  1.00  0.00     0.104 N 
HETATM   19  C20 UNL     1      21.254   3.983  45.082  1.00  0.00     0.312 C 
HETATM   20  C21 UNL     1      20.550   3.344  47.217  1.00  0.00     0.312 C 
ENDBRANCH  13  18
BRANCH  15  21
HETATM   21  C18 UNL     1      21.190   5.954  49.055  1.00  0.00     0.245 C 
HETATM   22  O1  UNL     1      20.561   5.940  50.084  1.00  0.00    -0.306 OA
ENDBRANCH  15  21
ENDBRANCH   1   8
BRANCH   4  23
HETATM   23  C7  UNL     1      25.466   1.493  53.057  1.00  0.00    -0.008 C 
HETATM   24  C8  UNL     1      25.398   0.158  52.705  1.00  0.00     0.100 C 
HETATM   25  N3  UNL     1      26.425  -0.324  53.619  1.00  0.00    -0.364 N 
HETATM   26  C9  UNL     1      27.565  -1.181  53.267  1.00  0.00     0.097 C 
HETATM   27  C15 UNL     1      26.105   0.375  54.912  1.00  0.00     0.141 C 
HETATM   28  C10 UNL     1      28.738  -0.510  53.499  1.00  0.00    -0.047 C 
HETATM   29  C11 UNL     1      29.792  -1.527  53.430  1.00  0.00     0.049 C 
HETATM   30  C12 UNL     1      28.909   0.954  53.745  1.00  0.00     0.005 C 
HETATM   31  C13 UNL     1      27.840   1.792  53.856  1.00  0.00    -0.015 C 
HETATM   32  C14 UNL     1      26.418   1.755  54.206  1.00  0.00     0.063 C 
ENDBRANCH   4  23
TORSDOF 5
ENDMDL
MODEL 3
REMARK VINA RESULT:      -7.9      2.885      8.022
REMARK  5 active torsions:
REMARK  status: ('A' for Active; 'I' for Inactive)
REMARK    1  A    between atoms: C2_2  and  C3_3 
REMARK    2  A    between atoms: C4_4  and  N1_5 
REMARK    3  A    between atoms: C6_8  and  C7_9 
REMARK    4  A    between atoms: C17_21  and  C18_22 
REMARK    5  A    between atoms: C19_24  and  N5_25 
ROOT
HETATM    1  N1  UNL     1      24.182   4.429  50.243  1.00  0.00    -0.295 N 
HETATM    2  C5  UNL     1      23.651   3.061  50.103  1.00  0.00     0.291 C 
HETATM    3  N2  UNL     1      24.281   2.184  51.080  1.00  0.00    -0.271 NA
HETATM    4  C6  UNL     1      25.478   2.299  51.459  1.00  0.00     0.053 C 
HETATM    5  C16 UNL     1      26.222   3.406  50.839  1.00  0.00     0.170 C 
HETATM    6  N4  UNL     1      25.472   4.627  50.757  1.00  0.00    -0.231 NA
HETATM    7  H20 UNL     1      25.446   5.074  51.702  1.00  0.00     0.147 HD
ENDROOT
BRANCH   1   8
HETATM    8  C4  UNL     1      23.433   5.590  49.874  1.00  0.00     0.046 C 
HETATM    9  C3  UNL     1      22.423   5.944  50.690  1.00  0.00    -0.032 C 
HETATM   10  C24 UNL     1      21.485   7.081  50.572  1.00  0.00     0.026 C 
HETATM   11  C23 UNL     1      21.541   8.101  49.698  1.00  0.00     0.088 C 
HETATM   12  N6  UNL     1      22.530   8.326  48.670  1.00  0.00    -0.364 N 
HETATM   13  C19 UNL     1      23.884   7.769  48.747  1.00  0.00     0.339 C 
HETATM   14  C22 UNL     1      21.983   9.149  47.610  1.00  0.00     0.151 C 
HETATM   15  C17 UNL     1      23.865   6.271  48.622  1.00  0.00     0.151 C 
BRANCH   9  16
HETATM   16  C2  UNL     1      22.136   5.138  51.904  1.00  0.00     0.036 C 
HETATM   17  C1  UNL     1      20.810   4.431  51.788  1.00  0.00     0.010 C 
ENDBRANCH   9  16
BRANCH  13  18
HETATM   18  N5  UNL     1      24.743   8.353  47.769  1.00  0.00     0.104 N 
HETATM   19  C20 UNL     1      25.186   9.687  48.066  1.00  0.00     0.312 C 
HETATM   20  C21 UNL     1      25.892   7.515  47.571  1.00  0.00     0.312 C 
ENDBRANCH  13  18
BRANCH  15  21
HETATM   21  C18 UNL     1      22.960   5.907  47.515  1.00  0.00     0.245 C 
HETATM   22  O1  UNL     1      22.494   4.817  47.294  1.00  0.00    -0.306 OA
ENDBRANCH  15  21
ENDBRANCH   1   8
BRANCH   4  23
HETATM   23  C7  UNL     1      26.153   1.445  52.434  1.00  0.00    -0.008 C 
HETATM   24  C8  UNL     1      26.137   0.098  52.125  1.00  0.00     0.100 C 
HETATM   25  N3  UNL     1      26.959  -0.353  53.239  1.00  0.00    -0.364 N 
HETATM   26  C9  UNL     1      28.136  -1.230  53.148  1.00  0.00     0.097 C 
HETATM   27  C15 UNL     1      26.403   0.396  54.418  1.00  0.00     0.141 C 
HETATM   28  C10 UNL     1      29.249  -0.557  53.581  1.00  0.00    -0.047 C 
HETATM   29  C11 UNL     1      30.283  -1.581  53.757  1.00  0.00     0.049 C 
HETATM   30  C12 UNL     1      29.388   0.914  53.802  1.00  0.00     0.005 C 
HETATM   31  C13 UNL     1      28.329   1.762  53.670  1.00  0.00    -0.015 C 
HETATM   32  C14 UNL     1      26.865   1.746  53.737  1.00  0.00     0.063 C 
ENDBRANCH   4  23
TORSDOF 5
ENDMDL
MODEL 4
REMARK VINA RESULT:      -7.9      3.733      8.062
REMARK  5 active torsions:
REMARK  status: ('A' for Active; 'I' for Inactive)
REMARK    1  A    between atoms: C2_2  and  C3_3 
REMARK    2  A    between atoms: C4_4  and  N1_5 
REMARK    3  A    between atoms: C6_8  and  C7_9 
REMARK    4  A    between atoms: C17_21  and  C18_22 
REMARK    5  A    between atoms: C19_24  and  N5_25 
ROOT
HETATM    1  N1  UNL     1      23.727   4.170  49.717  1.00  0.00    -0.295 N 
HETATM    2  C5  UNL     1      25.192   4.227  49.565  1.00  0.00     0.291 C 
HETATM    3  N2  UNL     1      25.817   3.243  50.437  1.00  0.00    -0.271 NA
HETATM    4  C6  UNL     1      25.369   2.924  51.572  1.00  0.00     0.053 C 
HETATM    5  C16 UNL     1      24.139   3.623  51.973  1.00  0.00     0.170 C 
HETATM    6  N4  UNL     1      23.166   3.723  50.923  1.00  0.00    -0.231 NA
HETATM    7  H20 UNL     1      22.693   2.798  50.808  1.00  0.00     0.147 HD
ENDROOT
BRANCH   1   8
HETATM    8  C4  UNL     1      22.827   4.554  48.673  1.00  0.00     0.046 C 
HETATM    9  C3  UNL     1      22.339   3.567  47.900  1.00  0.00    -0.032 C 
HETATM   10  C24 UNL     1      21.402   3.654  46.759  1.00  0.00     0.026 C 
HETATM   11  C23 UNL     1      20.712   4.731  46.347  1.00  0.00     0.088 C 
HETATM   12  N6  UNL     1      20.723   6.056  46.921  1.00  0.00    -0.364 N 
HETATM   13  C19 UNL     1      21.083   6.303  48.321  1.00  0.00     0.339 C 
HETATM   14  C22 UNL     1      20.340   7.043  45.932  1.00  0.00     0.151 C 
HETATM   15  C17 UNL     1      22.537   6.012  48.569  1.00  0.00     0.151 C 
BRANCH   9  16
HETATM   16  C2  UNL     1      22.743   2.161  48.153  1.00  0.00     0.036 C 
HETATM   17  C1  UNL     1      21.551   1.304  48.495  1.00  0.00     0.010 C 
ENDBRANCH   9  16
BRANCH  13  18
HETATM   18  N5  UNL     1      20.753   7.634  48.717  1.00  0.00     0.104 N 
HETATM   19  C20 UNL     1      19.356   7.873  48.944  1.00  0.00     0.312 C 
HETATM   20  C21 UNL     1      21.485   7.981  49.903  1.00  0.00     0.312 C 
ENDBRANCH  13  18
BRANCH  15  21
HETATM   21  C18 UNL     1      23.325   6.602  47.471  1.00  0.00     0.245 C 
HETATM   22  O1  UNL     1      24.277   7.335  47.580  1.00  0.00    -0.306 OA
ENDBRANCH  15  21
ENDBRANCH   1   8
BRANCH   4  23
HETATM   23  C7  UNL     1      25.961   1.944  52.481  1.00  0.00    -0.008 C 
HETATM   24  C8  UNL     1      25.767   0.627  52.111  1.00  0.00     0.100 C 
HETATM   25  N3  UNL     1      26.559   0.021  53.171  1.00  0.00    -0.364 N 
HETATM   26  C9  UNL     1      27.613  -0.989  52.997  1.00  0.00     0.097 C 
HETATM   27  C15 UNL     1      26.139   0.774  54.404  1.00  0.00     0.141 C 
HETATM   28  C10 UNL     1      28.815  -0.483  53.418  1.00  0.00    -0.047 C 
HETATM   29  C11 UNL     1      29.717  -1.635  53.508  1.00  0.00     0.049 C 
HETATM   30  C12 UNL     1      29.145   0.948  53.701  1.00  0.00     0.005 C 
HETATM   31  C13 UNL     1      28.197   1.926  53.648  1.00  0.00    -0.015 C 
HETATM   32  C14 UNL     1      26.746   2.088  53.768  1.00  0.00     0.063 C 
ENDBRANCH   4  23
TORSDOF 5
ENDMDL
MODEL 5
REMARK VINA RESULT:      -7.9      2.714      4.833
REMARK  5 active torsions:
REMARK  status: ('A' for Active; 'I' for Inactive)
REMARK    1  A    between atoms: C2_2  and  C3_3 
REMARK    2  A    between atoms: C4_4  and  N1_5 
REMARK    3  A    between atoms: C6_8  and  C7_9 
REMARK    4  A    between atoms: C17_21  and  C18_22 
REMARK    5  A    between atoms: C19_24  and  N5_25 
ROOT
HETATM    1  N1  UNL     1      23.513   3.471  50.781  1.00  0.00    -0.295 N 
HETATM    2  C5  UNL     1      23.690   4.613  51.697  1.00  0.00     0.291 C 
HETATM    3  N2  UNL     1      24.409   5.683  51.019  1.00  0.00    -0.271 NA
HETATM    4  C6  UNL     1      25.313   5.488  50.162  1.00  0.00     0.053 C 
HETATM    5  C16 UNL     1      25.605   4.076  49.877  1.00  0.00     0.170 C 
HETATM    6  N4  UNL     1      24.431   3.262  49.741  1.00  0.00    -0.231 NA
HETATM    7  H20 UNL     1      24.000   3.440  48.805  1.00  0.00     0.147 HD
ENDROOT
BRANCH   1   8
HETATM    8  C4  UNL     1      22.429   2.546  50.901  1.00  0.00     0.046 C 
HETATM    9  C3  UNL     1      22.641   1.459  51.665  1.00  0.00    -0.032 C 
HETATM   10  C24 UNL     1      21.721   0.342  51.974  1.00  0.00     0.026 C 
HETATM   11  C23 UNL     1      20.413   0.254  51.678  1.00  0.00     0.088 C 
HETATM   12  N6  UNL     1      19.599   1.229  50.989  1.00  0.00    -0.364 N 
HETATM   13  C19 UNL     1      19.937   2.655  50.960  1.00  0.00     0.339 C 
HETATM   14  C22 UNL     1      18.456   0.590  50.369  1.00  0.00     0.151 C 
HETATM   15  C17 UNL     1      21.186   2.902  50.160  1.00  0.00     0.151 C 
BRANCH   9  16
HETATM   16  C2  UNL     1      23.954   1.269  52.333  1.00  0.00     0.036 C 
HETATM   17  C1  UNL     1      23.962   0.017  53.173  1.00  0.00     0.010 C 
ENDBRANCH   9  16
BRANCH  13  18
HETATM   18  N5  UNL     1      18.851   3.437  50.465  1.00  0.00     0.104 N 
HETATM   19  C20 UNL     1      17.782   3.653  51.398  1.00  0.00     0.312 C 
HETATM   20  C21 UNL     1      19.338   4.710  50.012  1.00  0.00     0.312 C 
ENDBRANCH  13  18
BRANCH  15  21
HETATM   21  C18 UNL     1      21.105   2.118  48.914  1.00  0.00     0.245 C 
HETATM   22  O1  UNL     1      22.030   1.746  48.234  1.00  0.00    -0.306 OA
ENDBRANCH  15  21
ENDBRANCH   1   8
BRANCH   4  23
HETATM   23  C7  UNL     1      26.061   6.527  49.458  1.00  0.00    -0.008 C 
HETATM   24  C8  UNL     1      26.098   7.747  50.106  1.00  0.00     0.100 C 
HETATM   25  N3  UNL     1      26.980   8.426  49.166  1.00  0.00    -0.364 N 
HETATM   26  C9  UNL     1      28.192   9.184  49.508  1.00  0.00     0.097 C 
HETATM   27  C15 UNL     1      26.431   8.038  47.820  1.00  0.00     0.141 C 
HETATM   28  C10 UNL     1      29.287   8.587  48.941  1.00  0.00    -0.047 C 
HETATM   29  C11 UNL     1      30.374   9.563  49.060  1.00  0.00     0.049 C 
HETATM   30  C12 UNL     1      29.365   7.217  48.348  1.00  0.00     0.005 C 
HETATM   31  C13 UNL     1      28.263   6.422  48.231  1.00  0.00    -0.015 C 
HETATM   32  C14 UNL     1      26.805   6.535  48.138  1.00  0.00     0.063 C 
ENDBRANCH   4  23
TORSDOF 5
ENDMDL
MODEL 6
REMARK VINA RESULT:      -7.7      3.136      8.752
REMARK  5 active torsions:
REMARK  status: ('A' for Active; 'I' for Inactive)
REMARK    1  A    between atoms: C2_2  and  C3_3 
REMARK    2  A    between atoms: C4_4  and  N1_5 
REMARK    3  A    between atoms: C6_8  and  C7_9 
REMARK    4  A    between atoms: C17_21  and  C18_22 
REMARK    5  A    between atoms: C19_24  and  N5_25 
ROOT
HETATM    1  N1  UNL     1      27.470   6.608  48.595  1.00  0.00    -0.295 N 
HETATM    2  C5  UNL     1      26.168   6.898  47.969  1.00  0.00     0.291 C 
HETATM    3  N2  UNL     1      25.108   6.208  48.690  1.00  0.00    -0.271 NA
HETATM    4  C6  UNL     1      25.246   5.077  49.230  1.00  0.00     0.053 C 
HETATM    5  C16 UNL     1      26.582   4.480  49.086  1.00  0.00     0.170 C 
HETATM    6  N4  UNL     1      27.654   5.409  49.300  1.00  0.00    -0.231 NA
HETATM    7  H20 UNL     1      27.758   5.578  50.327  1.00  0.00     0.147 HD
ENDROOT
BRANCH   1   8
HETATM    8  C4  UNL     1      28.580   7.507  48.520  1.00  0.00     0.046 C 
HETATM    9  C3  UNL     1      28.470   8.663  49.200  1.00  0.00    -0.032 C 
HETATM   10  C24 UNL     1      29.440   9.775  49.311  1.00  0.00     0.026 C 
HETATM   11  C23 UNL     1      30.712   9.797  48.878  1.00  0.00     0.088 C 
HETATM   12  N6  UNL     1      31.431   8.742  48.203  1.00  0.00    -0.364 N 
HETATM   13  C19 UNL     1      31.062   7.329  48.338  1.00  0.00     0.339 C 
HETATM   14  C22 UNL     1      32.517   9.289  47.415  1.00  0.00     0.151 C 
HETATM   15  C17 UNL     1      29.732   7.050  47.694  1.00  0.00     0.151 C 
BRANCH   9  16
HETATM   16  C2  UNL     1      27.237   8.951  49.975  1.00  0.00     0.036 C 
HETATM   17  C1  UNL     1      26.429  10.048  49.329  1.00  0.00     0.010 C 
ENDBRANCH   9  16
BRANCH  13  18
HETATM   18  N5  UNL     1      32.075   6.473  47.810  1.00  0.00     0.104 N 
HETATM   19  C20 UNL     1      33.220   6.291  48.657  1.00  0.00     0.312 C 
HETATM   20  C21 UNL     1      31.512   5.188  47.504  1.00  0.00     0.312 C 
ENDBRANCH  13  18
BRANCH  15  21
HETATM   21  C18 UNL     1      29.701   7.717  46.379  1.00  0.00     0.245 C 
HETATM   22  O1  UNL     1      28.722   8.100  45.788  1.00  0.00    -0.306 OA
ENDBRANCH  15  21
ENDBRANCH   1   8
BRANCH   4  23
HETATM   23  C7  UNL     1      24.214   4.347  49.963  1.00  0.00    -0.008 C 
HETATM   24  C8  UNL     1      23.713   3.242  49.300  1.00  0.00     0.100 C 
HETATM   25  N3  UNL     1      22.836   2.774  50.365  1.00  0.00    -0.364 N 
HETATM   26  C9  UNL     1      22.774   1.406  50.897  1.00  0.00     0.097 C 
HETATM   27  C15 UNL     1      22.160   4.029  50.846  1.00  0.00     0.141 C 
HETATM   28  C10 UNL     1      23.132   1.406  52.220  1.00  0.00    -0.047 C 
HETATM   29  C11 UNL     1      22.738   0.091  52.734  1.00  0.00     0.049 C 
HETATM   30  C12 UNL     1      23.807   2.506  52.974  1.00  0.00     0.005 C 
HETATM   31  C13 UNL     1      24.063   3.716  52.400  1.00  0.00    -0.015 C 
HETATM   32  C14 UNL     1      23.570   4.569  51.316  1.00  0.00     0.063 C 
ENDBRANCH   4  23
TORSDOF 5
ENDMDL
MODEL 7
REMARK VINA RESULT:      -7.2      3.346      9.569
REMARK  5 active torsions:
REMARK  status: ('A' for Active; 'I' for Inactive)
REMARK    1  A    between atoms: C2_2  and  C3_3 
REMARK    2  A    between atoms: C4_4  and  N1_5 
REMARK    3  A    between atoms: C6_8  and  C7_9 
REMARK    4  A    between atoms: C17_21  and  C18_22 
REMARK    5  A    between atoms: C19_24  and  N5_25 
ROOT
HETATM    1  N1  UNL     1      24.853   6.776  49.098  1.00  0.00    -0.295 N 
HETATM    2  C5  UNL     1      24.745   6.919  50.562  1.00  0.00     0.291 C 
HETATM    3  N2  UNL     1      24.282   5.669  51.148  1.00  0.00    -0.271 NA
HETATM    4  C6  UNL     1      23.466   4.890  50.586  1.00  0.00     0.053 C 
HETATM    5  C16 UNL     1      22.999   5.329  49.262  1.00  0.00     0.170 C 
HETATM    6  N4  UNL     1      24.043   5.848  48.427  1.00  0.00    -0.231 NA
HETATM    7  H20 UNL     1      24.603   5.051  48.048  1.00  0.00     0.147 HD
ENDROOT
BRANCH   1   8
HETATM    8  C4  UNL     1      25.763   7.550  48.311  1.00  0.00     0.046 C 
HETATM    9  C3  UNL     1      26.966   7.003  48.063  1.00  0.00    -0.032 C 
HETATM   10  C24 UNL     1      28.100   7.556  47.290  1.00  0.00     0.026 C 
HETATM   11  C23 UNL     1      28.110   8.667  46.534  1.00  0.00     0.088 C 
HETATM   12  N6  UNL     1      27.017   9.582  46.300  1.00  0.00    -0.364 N 
HETATM   13  C19 UNL     1      25.613   9.179  46.428  1.00  0.00     0.339 C 
HETATM   14  C22 UNL     1      27.520  10.892  45.938  1.00  0.00     0.151 C 
HETATM   15  C17 UNL     1      25.262   8.878  47.859  1.00  0.00     0.151 C 
BRANCH   9  16
HETATM   16  C2  UNL     1      27.293   5.658  48.600  1.00  0.00     0.036 C 
HETATM   17  C1  UNL     1      28.736   5.303  48.344  1.00  0.00     0.010 C 
ENDBRANCH   9  16
BRANCH  13  18
HETATM   18  N5  UNL     1      24.737  10.165  45.883  1.00  0.00     0.104 N 
HETATM   19  C20 UNL     1      24.613  10.145  44.453  1.00  0.00     0.312 C 
HETATM   20  C21 UNL     1      23.432  10.027  46.466  1.00  0.00     0.312 C 
ENDBRANCH  13  18
BRANCH  15  21
HETATM   21  C18 UNL     1      25.824   9.942  48.711  1.00  0.00     0.245 C 
HETATM   22  O1  UNL     1      26.354   9.800  49.786  1.00  0.00    -0.306 OA
ENDBRANCH  15  21
ENDBRANCH   1   8
BRANCH   4  23
HETATM   23  C7  UNL     1      22.972   3.628  51.134  1.00  0.00    -0.008 C 
HETATM   24  C8  UNL     1      22.056   3.767  52.158  1.00  0.00     0.100 C 
HETATM   25  N3  UNL     1      21.762   2.352  52.333  1.00  0.00    -0.364 N 
HETATM   26  C9  UNL     1      20.425   1.744  52.381  1.00  0.00     0.097 C 
HETATM   27  C15 UNL     1      23.118   1.701  52.302  1.00  0.00     0.141 C 
HETATM   28  C10 UNL     1      20.274   0.873  51.334  1.00  0.00    -0.047 C 
HETATM   29  C11 UNL     1      19.070   0.095  51.639  1.00  0.00     0.049 C 
HETATM   30  C12 UNL     1      21.140   0.759  50.120  1.00  0.00     0.005 C 
HETATM   31  C13 UNL     1      22.279   1.495  49.981  1.00  0.00    -0.015 C 
HETATM   32  C14 UNL     1      23.277   2.181  50.804  1.00  0.00     0.063 C 
ENDBRANCH   4  23
TORSDOF 5
ENDMDL
MODEL 8
REMARK VINA RESULT:      -7.2      5.183      7.809
REMARK  5 active torsions:
REMARK  status: ('A' for Active; 'I' for Inactive)
REMARK    1  A    between atoms: C2_2  and  C3_3 
REMARK    2  A    between atoms: C4_4  and  N1_5 
REMARK    3  A    between atoms: C6_8  and  C7_9 
REMARK    4  A    between atoms: C17_21  and  C18_22 
REMARK    5  A    between atoms: C19_24  and  N5_25 
ROOT
HETATM    1  N1  UNL     1      19.372   1.680  51.310  1.00  0.00    -0.295 N 
HETATM    2  C5  UNL     1      19.935   1.703  49.949  1.00  0.00     0.291 C 
HETATM    3  N2  UNL     1      21.150   2.504  49.930  1.00  0.00    -0.271 NA
HETATM    4  C6  UNL     1      21.326   3.530  50.642  1.00  0.00     0.053 C 
HETATM    5  C16 UNL     1      20.199   3.878  51.520  1.00  0.00     0.170 C 
HETATM    6  N4  UNL     1      19.620   2.747  52.186  1.00  0.00    -0.231 NA
HETATM    7  H20 UNL     1      20.244   2.461  52.975  1.00  0.00     0.147 HD
ENDROOT
BRANCH   1   8
HETATM    8  C4  UNL     1      18.568   0.600  51.796  1.00  0.00     0.046 C 
HETATM    9  C3  UNL     1      19.166  -0.273  52.627  1.00  0.00    -0.032 C 
HETATM   10  C24 UNL     1      18.599  -1.473  53.281  1.00  0.00     0.026 C 
HETATM   11  C23 UNL     1      17.313  -1.861  53.307  1.00  0.00     0.088 C 
HETATM   12  N6  UNL     1      16.181  -1.198  52.702  1.00  0.00    -0.364 N 
HETATM   13  C19 UNL     1      16.177   0.239  52.409  1.00  0.00     0.339 C 
HETATM   14  C22 UNL     1      15.113  -2.143  52.449  1.00  0.00     0.151 C 
HETATM   15  C17 UNL     1      17.157   0.575  51.319  1.00  0.00     0.151 C 
BRANCH   9  16
HETATM   16  C2  UNL     1      20.592  -0.088  52.995  1.00  0.00     0.036 C 
HETATM   17  C1  UNL     1      20.752   0.096  54.482  1.00  0.00     0.010 C 
ENDBRANCH   9  16
BRANCH  13  18
HETATM   18  N5  UNL     1      14.867   0.699  52.077  1.00  0.00     0.104 N 
HETATM   19  C20 UNL     1      13.949   0.765  53.179  1.00  0.00     0.312 C 
HETATM   20  C21 UNL     1      14.950   1.994  51.462  1.00  0.00     0.312 C 
ENDBRANCH  13  18
BRANCH  15  21
HETATM   21  C18 UNL     1      17.012  -0.418  50.238  1.00  0.00     0.245 C 
HETATM   22  O1  UNL     1      16.386  -0.283  49.215  1.00  0.00    -0.306 OA
ENDBRANCH  15  21
ENDBRANCH   1   8
BRANCH   4  23
HETATM   23  C7  UNL     1      22.526   4.365  50.657  1.00  0.00    -0.008 C 
HETATM   24  C8  UNL     1      23.672   3.715  51.073  1.00  0.00     0.100 C 
HETATM   25  N3  UNL     1      24.597   4.819  50.853  1.00  0.00    -0.364 N 
HETATM   26  C9  UNL     1      25.865   4.751  50.113  1.00  0.00     0.097 C 
HETATM   27  C15 UNL     1      23.873   6.008  51.422  1.00  0.00     0.141 C 
HETATM   28  C10 UNL     1      25.807   5.572  49.017  1.00  0.00    -0.047 C 
HETATM   29  C11 UNL     1      27.188   5.687  48.538  1.00  0.00     0.049 C 
HETATM   30  C12 UNL     1      24.588   6.198  48.420  1.00  0.00     0.005 C 
HETATM   31  C13 UNL     1      23.361   6.073  48.999  1.00  0.00    -0.015 C 
HETATM   32  C14 UNL     1      22.762   5.821  50.312  1.00  0.00     0.063 C 
ENDBRANCH   4  23
TORSDOF 5
ENDMDL
MODEL 9
REMARK VINA RESULT:      -7.1      3.420      9.593
REMARK  5 active torsions:
REMARK  status: ('A' for Active; 'I' for Inactive)
REMARK    1  A    between atoms: C2_2  and  C3_3 
REMARK    2  A    between atoms: C4_4  and  N1_5 
REMARK    3  A    between atoms: C6_8  and  C7_9 
REMARK    4  A    between atoms: C17_21  and  C18_22 
REMARK    5  A    between atoms: C19_24  and  N5_25 
ROOT
HETATM    1  N1  UNL     1      23.526   5.726  48.952  1.00  0.00    -0.295 N 
HETATM    2  C5  UNL     1      23.112   5.918  50.354  1.00  0.00     0.291 C 
HETATM    3  N2  UNL     1      22.817   4.629  50.963  1.00  0.00    -0.271 NA
HETATM    4  C6  UNL     1      22.306   3.659  50.341  1.00  0.00     0.053 C 
HETATM    5  C16 UNL     1      22.020   3.912  48.921  1.00  0.00     0.170 C 
HETATM    6  N4  UNL     1      23.073   4.607  48.238  1.00  0.00    -0.231 NA
HETATM    7  H20 UNL     1      23.850   3.936  48.039  1.00  0.00     0.147 HD
ENDROOT
BRANCH   1   8
HETATM    8  C4  UNL     1      24.386   6.642  48.268  1.00  0.00     0.046 C 
HETATM    9  C3  UNL     1      25.708   6.498  48.473  1.00  0.00    -0.032 C 
HETATM   10  C24 UNL     1      26.829   7.284  47.911  1.00  0.00     0.026 C 
HETATM   11  C23 UNL     1      26.770   8.219  46.947  1.00  0.00     0.088 C 
HETATM   12  N6  UNL     1      25.600   8.675  46.234  1.00  0.00    -0.364 N 
HETATM   13  C19 UNL     1      24.398   7.849  46.085  1.00  0.00     0.339 C 
HETATM   14  C22 UNL     1      25.808  10.014  45.719  1.00  0.00     0.151 C 
HETATM   15  C17 UNL     1      23.708   7.650  47.407  1.00  0.00     0.151 C 
BRANCH   9  16
HETATM   16  C2  UNL     1      26.206   5.428  49.373  1.00  0.00     0.036 C 
HETATM   17  C1  UNL     1      27.386   4.710  48.767  1.00  0.00     0.010 C 
ENDBRANCH   9  16
BRANCH  13  18
HETATM   18  N5  UNL     1      23.503   8.401  45.120  1.00  0.00     0.104 N 
HETATM   19  C20 UNL     1      23.820   8.096  43.753  1.00  0.00     0.312 C 
HETATM   20  C21 UNL     1      22.164   7.963  45.396  1.00  0.00     0.312 C 
ENDBRANCH  13  18
BRANCH  15  21
HETATM   21  C18 UNL     1      23.652   8.948  48.104  1.00  0.00     0.245 C 
HETATM   22  O1  UNL     1      23.051   9.195  49.120  1.00  0.00    -0.306 OA
ENDBRANCH  15  21
ENDBRANCH   1   8
BRANCH   4  23
HETATM   23  C7  UNL     1      21.992   2.349  50.909  1.00  0.00    -0.008 C 
HETATM   24  C8  UNL     1      23.087   1.528  51.098  1.00  0.00     0.100 C 
HETATM   25  N3  UNL     1      22.381   0.427  51.739  1.00  0.00    -0.364 N 
HETATM   26  C9  UNL     1      22.760  -0.227  53.000  1.00  0.00     0.097 C 
HETATM   27  C15 UNL     1      21.150   0.253  50.893  1.00  0.00     0.141 C 
HETATM   28  C10 UNL     1      21.772  -0.043  53.932  1.00  0.00    -0.047 C 
HETATM   29  C11 UNL     1      22.079  -0.978  55.019  1.00  0.00     0.049 C 
HETATM   30  C12 UNL     1      20.635   0.925  53.867  1.00  0.00     0.005 C 
HETATM   31  C13 UNL     1      20.414   1.697  52.766  1.00  0.00    -0.015 C 
HETATM   32  C14 UNL     1      20.687   1.702  51.326  1.00  0.00     0.063 C 
ENDBRANCH   4  23
TORSDOF 5
ENDMDL
