MODEL 1
REMARK VINA RESULT:      -9.0      0.000      0.000
REMARK  4 active torsions:
REMARK  status: ('A' for Active; 'I' for Inactive)
REMARK    1  A    between atoms: C12_19  and  C13_20 
REMARK    2  A    between atoms: C14_21  and  C15_22 
REMARK    3  A    between atoms: C15_22  and  C16_23 
REMARK    4  A    between atoms: C16_23  and  C17_24 
ROOT
HETATM    1  C1  UNL     1      23.739   4.913  49.558  1.00  0.00     0.177 C 
HETATM    2  N1  UNL     1      23.467   4.255  50.767  1.00  0.00    -0.299 NA
HETATM    3  C2  UNL     1      23.031   3.028  50.778  1.00  0.00     0.053 C 
HETATM    4  C3  UNL     1      22.827   2.332  49.486  1.00  0.00     0.229 C 
HETATM    5  N2  UNL     1      21.728   1.554  49.276  1.00  0.00    -0.191 NA
HETATM    6  N3  UNL     1      20.677   1.758  48.740  1.00  0.00    -0.178 NA
HETATM    7  C4  UNL     1      20.284   2.978  48.139  1.00  0.00     0.294 C 
HETATM    8  N4  UNL     1      19.039   3.378  48.818  1.00  0.00    -0.379 N 
HETATM    9  C5  UNL     1      19.688   3.034  49.996  1.00  0.00     0.098 C 
HETATM   10  C6  UNL     1      19.651   2.103  50.963  1.00  0.00     0.008 C 
HETATM   11  C7  UNL     1      18.555   1.197  50.628  1.00  0.00     0.030 C 
HETATM   12  C8  UNL     1      18.488  -0.062  51.045  1.00  0.00     0.018 C 
HETATM   13  C9  UNL     1      18.721  -0.320  52.325  1.00  0.00     0.147 C 
HETATM   14  F1  UNL     1      18.173  -1.140  53.219  1.00  0.00    -0.204 F 
HETATM   15  C10 UNL     1      19.832   0.527  52.726  1.00  0.00     0.077 C 
HETATM   16 BR1  UNL     1      20.872   0.171  54.315  1.00  0.00    -0.045 Br
HETATM   17  C11 UNL     1      20.329   1.619  52.196  1.00  0.00     0.061 C 
HETATM   18  N5  UNL     1      21.472   2.356  52.605  1.00  0.00    -0.375 N 
HETATM   19  C12 UNL     1      22.817   2.515  52.124  1.00  0.00     0.154 C 
HETATM   20  H8  UNL     1      18.213   3.634  49.398  1.00  0.00     0.160 HD
HETATM   21  H11 UNL     1      20.951   2.735  53.431  1.00  0.00     0.160 HD
ENDROOT
BRANCH  19  22
HETATM   22  C13 UNL     1      23.626   1.237  52.221  1.00  0.00     0.000 C 
HETATM   23  C14 UNL     1      24.418   0.812  53.198  1.00  0.00    -0.028 C 
BRANCH  23  24
HETATM   24  C15 UNL     1      25.133  -0.506  53.083  1.00  0.00     0.031 C 
BRANCH  24  25
HETATM   25  C16 UNL     1      26.344  -0.355  52.172  1.00  0.00     0.042 C 
BRANCH  25  26
HETATM   26  C17 UNL     1      27.354   0.440  52.914  1.00  0.00    -0.058 A 
HETATM   27  C18 UNL     1      28.018  -0.252  53.905  1.00  0.00     0.007 A 
HETATM   28  C19 UNL     1      28.989   0.354  54.681  1.00  0.00     0.001 A 
HETATM   29  C20 UNL     1      29.284   1.687  54.440  1.00  0.00     0.000 A 
HETATM   30  C21 UNL     1      28.586   2.315  53.439  1.00  0.00     0.001 A 
HETATM   31  C22 UNL     1      27.619   1.763  52.645  1.00  0.00     0.007 A 
ENDBRANCH  25  26
ENDBRANCH  24  25
ENDBRANCH  23  24
ENDBRANCH  19  22
TORSDOF 4
ENDMDL
MODEL 2
REMARK VINA RESULT:      -8.7      1.782      2.429
REMARK  4 active torsions:
REMARK  status: ('A' for Active; 'I' for Inactive)
REMARK    1  A    between atoms: C12_19  and  C13_20 
REMARK    2  A    between atoms: C14_21  and  C15_22 
REMARK    3  A    between atoms: C15_22  and  C16_23 
REMARK    4  A    between atoms: C16_23  and  C17_24 
ROOT
HETATM    1  C1  UNL     1      24.774   6.793  50.737  1.00  0.00     0.177 C 
HETATM    2  N1  UNL     1      24.092   5.965  51.642  1.00  0.00    -0.299 NA
HETATM    3  C2  UNL     1      23.863   4.714  51.361  1.00  0.00     0.053 C 
HETATM    4  C3  UNL     1      24.336   4.175  50.065  1.00  0.00     0.229 C 
HETATM    5  N2  UNL     1      23.553   3.340  49.326  1.00  0.00    -0.191 NA
HETATM    6  N3  UNL     1      22.823   3.521  48.394  1.00  0.00    -0.178 NA
HETATM    7  C4  UNL     1      22.573   4.771  47.777  1.00  0.00     0.294 C 
HETATM    8  N4  UNL     1      21.116   4.974  47.857  1.00  0.00    -0.379 N 
HETATM    9  C5  UNL     1      21.226   4.538  49.169  1.00  0.00     0.098 C 
HETATM   10  C6  UNL     1      20.895   3.490  49.942  1.00  0.00     0.008 C 
HETATM   11  C7  UNL     1      20.186   2.545  49.084  1.00  0.00     0.030 C 
HETATM   12  C8  UNL     1      20.112   1.242  49.327  1.00  0.00     0.018 C 
HETATM   13  C9  UNL     1      19.796   0.842  50.552  1.00  0.00     0.147 C 
HETATM   14  F1  UNL     1      19.028  -0.129  51.040  1.00  0.00    -0.204 F 
HETATM   15  C10 UNL     1      20.498   1.722  51.473  1.00  0.00     0.077 C 
HETATM   16 BR1  UNL     1      20.780   1.254  53.326  1.00  0.00    -0.045 Br
HETATM   17  C11 UNL     1      21.027   2.911  51.307  1.00  0.00     0.061 C 
HETATM   18  N5  UNL     1      21.769   3.683  52.240  1.00  0.00    -0.375 N 
HETATM   19  C12 UNL     1      23.155   4.017  52.425  1.00  0.00     0.154 C 
HETATM   20  H8  UNL     1      20.093   5.082  48.023  1.00  0.00     0.160 HD
HETATM   21  H11 UNL     1      20.894   3.908  52.772  1.00  0.00     0.160 HD
ENDROOT
BRANCH  19  22
HETATM   22  C13 UNL     1      24.002   2.810  52.774  1.00  0.00     0.000 C 
HETATM   23  C14 UNL     1      25.128   2.744  53.476  1.00  0.00    -0.028 C 
BRANCH  23  24
HETATM   24  C15 UNL     1      25.810   1.422  53.702  1.00  0.00     0.031 C 
BRANCH  24  25
HETATM   25  C16 UNL     1      26.183   0.801  52.363  1.00  0.00     0.042 C 
BRANCH  25  26
HETATM   26  C17 UNL     1      27.111  -0.323  52.645  1.00  0.00    -0.058 A 
HETATM   27  C18 UNL     1      28.331   0.055  53.164  1.00  0.00     0.007 A 
HETATM   28  C19 UNL     1      29.301  -0.879  53.480  1.00  0.00     0.001 A 
HETATM   29  C20 UNL     1      29.018  -2.219  53.259  1.00  0.00     0.000 A 
HETATM   30  C21 UNL     1      27.784  -2.524  52.740  1.00  0.00     0.001 A 
HETATM   31  C22 UNL     1      26.793  -1.640  52.412  1.00  0.00     0.007 A 
ENDBRANCH  25  26
ENDBRANCH  24  25
ENDBRANCH  23  24
ENDBRANCH  19  22
TORSDOF 4
ENDMDL
MODEL 3
REMARK VINA RESULT:      -8.5      3.347      5.438
REMARK  4 active torsions:
REMARK  status: ('A' for Active; 'I' for Inactive)
REMARK    1  A    between atoms: C12_19  and  C13_20 
REMARK    2  A    between atoms: C14_21  and  C15_22 
REMARK    3  A    between atoms: C15_22  and  C16_23 
REMARK    4  A    between atoms: C16_23  and  C17_24 
ROOT
HETATM    1  C1  UNL     1      19.320   4.308  50.998  1.00  0.00     0.177 C 
HETATM    2  N1  UNL     1      20.648   4.380  51.444  1.00  0.00    -0.299 NA
HETATM    3  C2  UNL     1      21.494   3.426  51.181  1.00  0.00     0.053 C 
HETATM    4  C3  UNL     1      21.031   2.257  50.397  1.00  0.00     0.229 C 
HETATM    5  N2  UNL     1      21.404   0.992  50.740  1.00  0.00    -0.191 NA
HETATM    6  N3  UNL     1      20.865   0.128  51.370  1.00  0.00    -0.178 NA
HETATM    7  C4  UNL     1      19.587   0.224  51.972  1.00  0.00     0.294 C 
HETATM    8  N4  UNL     1      19.796  -0.048  53.404  1.00  0.00    -0.379 N 
HETATM    9  C5  UNL     1      20.894   0.795  53.303  1.00  0.00     0.098 C 
HETATM   10  C6  UNL     1      22.236   0.753  53.331  1.00  0.00     0.008 C 
HETATM   11  C7  UNL     1      22.605  -0.642  53.552  1.00  0.00     0.030 C 
HETATM   12  C8  UNL     1      23.772  -1.162  53.188  1.00  0.00     0.018 C 
HETATM   13  C9  UNL     1      24.882  -0.498  53.485  1.00  0.00     0.147 C 
HETATM   14  F1  UNL     1      26.090  -0.858  53.911  1.00  0.00    -0.204 F 
HETATM   15  C10 UNL     1      24.602   0.910  53.255  1.00  0.00     0.077 C 
HETATM   16 BR1  UNL     1      26.010   2.216  53.048  1.00  0.00    -0.045 Br
HETATM   17  C11 UNL     1      23.470   1.568  53.166  1.00  0.00     0.061 C 
HETATM   18  N5  UNL     1      23.272   2.941  52.863  1.00  0.00    -0.375 N 
HETATM   19  C12 UNL     1      22.823   3.685  51.717  1.00  0.00     0.154 C 
HETATM   20  H8  UNL     1      20.035  -0.169  54.411  1.00  0.00     0.160 HD
HETATM   21  H11 UNL     1      23.607   3.217  53.816  1.00  0.00     0.160 HD
ENDROOT
BRANCH  19  22
HETATM   22  C13 UNL     1      23.778   3.580  50.545  1.00  0.00     0.000 C 
HETATM   23  C14 UNL     1      24.749   4.406  50.170  1.00  0.00    -0.028 C 
BRANCH  23  24
HETATM   24  C15 UNL     1      25.584   4.103  48.957  1.00  0.00     0.031 C 
BRANCH  24  25
HETATM   25  C16 UNL     1      27.060   4.239  49.303  1.00  0.00     0.042 C 
BRANCH  25  26
HETATM   26  C17 UNL     1      27.564   5.450  48.608  1.00  0.00    -0.058 A 
HETATM   27  C18 UNL     1      28.900   5.407  48.272  1.00  0.00     0.007 A 
HETATM   28  C19 UNL     1      29.514   6.459  47.618  1.00  0.00     0.001 A 
HETATM   29  C20 UNL     1      28.749   7.572  47.305  1.00  0.00     0.000 A 
HETATM   30  C21 UNL     1      27.425   7.549  47.668  1.00  0.00     0.001 A 
HETATM   31  C22 UNL     1      26.772   6.535  48.314  1.00  0.00     0.007 A 
ENDBRANCH  25  26
ENDBRANCH  24  25
ENDBRANCH  23  24
ENDBRANCH  19  22
TORSDOF 4
ENDMDL
MODEL 4
REMARK VINA RESULT:      -8.5      3.094      5.229
REMARK  4 active torsions:
REMARK  status: ('A' for Active; 'I' for Inactive)
REMARK    1  A    between atoms: C12_19  and  C13_20 
REMARK    2  A    between atoms: C14_21  and  C15_22 
REMARK    3  A    between atoms: C15_22  and  C16_23 
REMARK    4  A    between atoms: C16_23  and  C17_24 
ROOT
HETATM    1  C1  UNL     1      17.481   3.576  51.504  1.00  0.00     0.177 C 
HETATM    2  N1  UNL     1      18.805   3.845  51.884  1.00  0.00    -0.299 NA
HETATM    3  C2  UNL     1      19.780   3.069  51.508  1.00  0.00     0.053 C 
HETATM    4  C3  UNL     1      19.470   1.890  50.666  1.00  0.00     0.229 C 
HETATM    5  N2  UNL     1      20.070   0.688  50.896  1.00  0.00    -0.191 NA
HETATM    6  N3  UNL     1      19.725  -0.293  51.490  1.00  0.00    -0.178 NA
HETATM    7  C4  UNL     1      18.490  -0.455  52.163  1.00  0.00     0.294 C 
HETATM    8  N4  UNL     1      18.832  -0.776  53.559  1.00  0.00    -0.379 N 
HETATM    9  C5  UNL     1      19.765   0.247  53.462  1.00  0.00     0.098 C 
HETATM   10  C6  UNL     1      21.094   0.434  53.416  1.00  0.00     0.008 C 
HETATM   11  C7  UNL     1      21.705  -0.889  53.516  1.00  0.00     0.030 C 
HETATM   12  C8  UNL     1      22.917  -1.177  53.054  1.00  0.00     0.018 C 
HETATM   13  C9  UNL     1      23.917  -0.353  53.340  1.00  0.00     0.147 C 
HETATM   14  F1  UNL     1      25.193  -0.528  53.675  1.00  0.00    -0.204 F 
HETATM   15  C10 UNL     1      23.391   0.997  53.228  1.00  0.00     0.077 C 
HETATM   16 BR1  UNL     1      24.545   2.536  53.042  1.00  0.00    -0.045 Br
HETATM   17  C11 UNL     1      22.162   1.456  53.247  1.00  0.00     0.061 C 
HETATM   18  N5  UNL     1      21.718   2.792  53.054  1.00  0.00    -0.375 N 
HETATM   19  C12 UNL     1      21.079   3.518  51.991  1.00  0.00     0.154 C 
HETATM   20  H8  UNL     1      19.152  -0.917  54.541  1.00  0.00     0.160 HD
HETATM   21  H11 UNL     1      22.063   3.060  54.006  1.00  0.00     0.160 HD
ENDROOT
BRANCH  19  22
HETATM   22  C13 UNL     1      21.961   3.652  50.766  1.00  0.00     0.000 C 
HETATM   23  C14 UNL     1      22.649   4.702  50.332  1.00  0.00    -0.028 C 
BRANCH  23  24
HETATM   24  C15 UNL     1      23.468   4.611  49.074  1.00  0.00     0.031 C 
BRANCH  24  25
HETATM   25  C16 UNL     1      24.811   3.965  49.380  1.00  0.00     0.042 C 
BRANCH  25  26
HETATM   26  C17 UNL     1      25.865   4.927  48.972  1.00  0.00    -0.058 A 
HETATM   27  C18 UNL     1      27.134   4.394  48.894  1.00  0.00     0.007 A 
HETATM   28  C19 UNL     1      28.219   5.166  48.525  1.00  0.00     0.001 A 
HETATM   29  C20 UNL     1      28.004   6.504  48.232  1.00  0.00     0.000 A 
HETATM   30  C21 UNL     1      26.716   6.969  48.329  1.00  0.00     0.001 A 
HETATM   31  C22 UNL     1      25.611   6.249  48.689  1.00  0.00     0.007 A 
ENDBRANCH  25  26
ENDBRANCH  24  25
ENDBRANCH  23  24
ENDBRANCH  19  22
TORSDOF 4
ENDMDL
MODEL 5
REMARK VINA RESULT:      -8.5      3.274      5.256
REMARK  4 active torsions:
REMARK  status: ('A' for Active; 'I' for Inactive)
REMARK    1  A    between atoms: C12_19  and  C13_20 
REMARK    2  A    between atoms: C14_21  and  C15_22 
REMARK    3  A    between atoms: C15_22  and  C16_23 
REMARK    4  A    between atoms: C16_23  and  C17_24 
ROOT
HETATM    1  C1  UNL     1      19.484   2.050  50.180  1.00  0.00     0.177 C 
HETATM    2  N1  UNL     1      20.850   1.887  49.907  1.00  0.00    -0.299 NA
HETATM    3  C2  UNL     1      21.739   2.661  50.460  1.00  0.00     0.053 C 
HETATM    4  C3  UNL     1      21.284   3.723  51.388  1.00  0.00     0.229 C 
HETATM    5  N2  UNL     1      21.833   4.969  51.349  1.00  0.00    -0.191 NA
HETATM    6  N3  UNL     1      21.489   5.994  50.833  1.00  0.00    -0.178 NA
HETATM    7  C4  UNL     1      20.315   6.172  50.061  1.00  0.00     0.294 C 
HETATM    8  N4  UNL     1      20.768   6.665  48.749  1.00  0.00    -0.379 N 
HETATM    9  C5  UNL     1      21.745   5.682  48.828  1.00  0.00     0.098 C 
HETATM   10  C6  UNL     1      23.073   5.554  48.986  1.00  0.00     0.008 C 
HETATM   11  C7  UNL     1      23.613   6.907  49.090  1.00  0.00     0.030 C 
HETATM   12  C8  UNL     1      24.757   7.198  49.699  1.00  0.00     0.018 C 
HETATM   13  C9  UNL     1      25.826   6.459  49.427  1.00  0.00     0.147 C 
HETATM   14  F1  UNL     1      27.115   6.730  49.242  1.00  0.00    -0.204 F 
HETATM   15  C10 UNL     1      25.370   5.082  49.341  1.00  0.00     0.077 C 
HETATM   16 BR1  UNL     1      26.588   3.588  49.473  1.00  0.00    -0.045 Br
HETATM   17  C11 UNL     1      24.177   4.570  49.150  1.00  0.00     0.061 C 
HETATM   18  N5  UNL     1      23.794   3.202  49.153  1.00  0.00    -0.375 N 
HETATM   19  C12 UNL     1      23.101   2.332  50.063  1.00  0.00     0.154 C 
HETATM   20  H8  UNL     1      21.170   6.930  47.825  1.00  0.00     0.160 HD
HETATM   21  H11 UNL     1      24.242   3.059  48.216  1.00  0.00     0.160 HD
ENDROOT
BRANCH  19  22
HETATM   22  C13 UNL     1      23.871   2.102  51.348  1.00  0.00     0.000 C 
HETATM   23  C14 UNL     1      23.844   1.062  52.174  1.00  0.00    -0.028 C 
BRANCH  23  24
HETATM   24  C15 UNL     1      24.701   1.045  53.409  1.00  0.00     0.031 C 
BRANCH  24  25
HETATM   25  C16 UNL     1      26.001   1.791  53.143  1.00  0.00     0.042 C 
BRANCH  25  26
HETATM   26  C17 UNL     1      27.102   0.798  53.227  1.00  0.00    -0.058 A 
HETATM   27  C18 UNL     1      28.312   1.313  53.640  1.00  0.00     0.007 A 
HETATM   28  C19 UNL     1      29.431   0.511  53.769  1.00  0.00     0.001 A 
HETATM   29  C20 UNL     1      29.310  -0.837  53.471  1.00  0.00     0.000 A 
HETATM   30  C21 UNL     1      28.076  -1.284  53.066  1.00  0.00     0.001 A 
HETATM   31  C22 UNL     1      26.941  -0.533  52.923  1.00  0.00     0.007 A 
ENDBRANCH  25  26
ENDBRANCH  24  25
ENDBRANCH  23  24
ENDBRANCH  19  22
TORSDOF 4
ENDMDL
MODEL 6
REMARK VINA RESULT:      -8.4      1.471      1.787
REMARK  4 active torsions:
REMARK  status: ('A' for Active; 'I' for Inactive)
REMARK    1  A    between atoms: C12_19  and  C13_20 
REMARK    2  A    between atoms: C14_21  and  C15_22 
REMARK    3  A    between atoms: C15_22  and  C16_23 
REMARK    4  A    between atoms: C16_23  and  C17_24 
ROOT
HETATM    1  C1  UNL     1      23.725   6.887  50.763  1.00  0.00     0.177 C 
HETATM    2  N1  UNL     1      23.488   5.804  51.622  1.00  0.00    -0.299 NA
HETATM    3  C2  UNL     1      23.182   4.630  51.150  1.00  0.00     0.053 C 
HETATM    4  C3  UNL     1      23.089   4.454  49.681  1.00  0.00     0.229 C 
HETATM    5  N2  UNL     1      22.084   3.720  49.127  1.00  0.00    -0.191 NA
HETATM    6  N3  UNL     1      21.032   4.019  48.636  1.00  0.00    -0.178 NA
HETATM    7  C4  UNL     1      20.532   5.337  48.505  1.00  0.00     0.294 C 
HETATM    8  N4  UNL     1      19.234   5.345  49.201  1.00  0.00    -0.379 N 
HETATM    9  C5  UNL     1      19.881   4.642  50.208  1.00  0.00     0.098 C 
HETATM   10  C6  UNL     1      19.912   3.417  50.757  1.00  0.00     0.008 C 
HETATM   11  C7  UNL     1      18.927   2.612  50.040  1.00  0.00     0.030 C 
HETATM   12  C8  UNL     1      18.979   1.288  49.956  1.00  0.00     0.018 C 
HETATM   13  C9  UNL     1      19.200   0.590  51.063  1.00  0.00     0.147 C 
HETATM   14  F1  UNL     1      18.715  -0.548  51.552  1.00  0.00    -0.204 F 
HETATM   15  C10 UNL     1      20.205   1.317  51.821  1.00  0.00     0.077 C 
HETATM   16 BR1  UNL     1      21.231   0.482  53.230  1.00  0.00    -0.045 Br
HETATM   17  C11 UNL     1      20.601   2.566  51.765  1.00  0.00     0.061 C 
HETATM   18  N5  UNL     1      21.650   3.191  52.492  1.00  0.00    -0.375 N 
HETATM   19  C12 UNL     1      22.984   3.634  52.193  1.00  0.00     0.154 C 
HETATM   20  H8  UNL     1      18.369   5.293  49.779  1.00  0.00     0.160 HD
HETATM   21  H11 UNL     1      21.068   3.187  53.364  1.00  0.00     0.160 HD
ENDROOT
BRANCH  19  22
HETATM   22  C13 UNL     1      23.918   2.487  51.863  1.00  0.00     0.000 C 
HETATM   23  C14 UNL     1      24.651   1.735  52.676  1.00  0.00    -0.028 C 
BRANCH  23  24
HETATM   24  C15 UNL     1      25.519   0.637  52.126  1.00  0.00     0.031 C 
BRANCH  24  25
HETATM   25  C16 UNL     1      25.771  -0.408  53.204  1.00  0.00     0.042 C 
BRANCH  25  26
HETATM   26  C17 UNL     1      27.240  -0.490  53.400  1.00  0.00    -0.058 A 
HETATM   27  C18 UNL     1      27.808  -1.683  53.008  1.00  0.00     0.007 A 
HETATM   28  C19 UNL     1      29.167  -1.909  53.127  1.00  0.00     0.001 A 
HETATM   29  C20 UNL     1      29.956  -0.899  53.656  1.00  0.00     0.000 A 
HETATM   30  C21 UNL     1      29.326   0.263  54.026  1.00  0.00     0.001 A 
HETATM   31  C22 UNL     1      27.989   0.535  53.929  1.00  0.00     0.007 A 
ENDBRANCH  25  26
ENDBRANCH  24  25
ENDBRANCH  23  24
ENDBRANCH  19  22
TORSDOF 4
ENDMDL
MODEL 7
REMARK VINA RESULT:      -8.0      6.977     10.135
REMARK  4 active torsions:
REMARK  status: ('A' for Active; 'I' for Inactive)
REMARK    1  A    between atoms: C12_19  and  C13_20 
REMARK    2  A    between atoms: C14_21  and  C15_22 
REMARK    3  A    between atoms: C15_22  and  C16_23 
REMARK    4  A    between atoms: C16_23  and  C17_24 
ROOT
HETATM    1  C1  UNL     1      24.222  10.327  46.571  1.00  0.00     0.177 C 
HETATM    2  N1  UNL     1      25.073   9.211  46.562  1.00  0.00    -0.299 NA
HETATM    3  C2  UNL     1      25.846   8.952  47.576  1.00  0.00     0.053 C 
HETATM    4  C3  UNL     1      25.814   9.858  48.748  1.00  0.00     0.229 C 
HETATM    5  N2  UNL     1      26.964  10.231  49.377  1.00  0.00    -0.191 NA
HETATM    6  N3  UNL     1      27.657  11.204  49.297  1.00  0.00    -0.178 NA
HETATM    7  C4  UNL     1      27.425  12.309  48.442  1.00  0.00     0.294 C 
HETATM    8  N4  UNL     1      28.634  12.433  47.610  1.00  0.00    -0.379 N 
HETATM    9  C5  UNL     1      28.557  11.055  47.466  1.00  0.00     0.098 C 
HETATM   10  C6  UNL     1      29.204   9.939  47.841  1.00  0.00     0.008 C 
HETATM   11  C7  UNL     1      30.349  10.368  48.639  1.00  0.00     0.030 C 
HETATM   12  C8  UNL     1      30.941   9.601  49.548  1.00  0.00     0.018 C 
HETATM   13  C9  UNL     1      31.241   8.350  49.225  1.00  0.00     0.147 C 
HETATM   14  F1  UNL     1      32.282   7.557  49.464  1.00  0.00    -0.204 F 
HETATM   15  C10 UNL     1      30.123   7.839  48.450  1.00  0.00     0.077 C 
HETATM   16 BR1  UNL     1      29.838   5.946  48.184  1.00  0.00    -0.045 Br
HETATM   17  C11 UNL     1      29.163   8.452  47.799  1.00  0.00     0.061 C 
HETATM   18  N5  UNL     1      28.052   7.880  47.122  1.00  0.00    -0.375 N 
HETATM   19  C12 UNL     1      26.646   7.749  47.386  1.00  0.00     0.154 C 
HETATM   20  H8  UNL     1      29.484  12.406  47.007  1.00  0.00     0.160 HD
HETATM   21  H11 UNL     1      28.674   7.561  46.341  1.00  0.00     0.160 HD
ENDROOT
BRANCH  19  22
HETATM   22  C13 UNL     1      26.357   6.859  48.578  1.00  0.00     0.000 C 
HETATM   23  C14 UNL     1      25.987   5.584  48.609  1.00  0.00    -0.028 C 
BRANCH  23  24
HETATM   24  C15 UNL     1      25.751   4.889  49.922  1.00  0.00     0.031 C 
BRANCH  24  25
HETATM   25  C16 UNL     1      26.581   3.615  49.985  1.00  0.00     0.042 C 
BRANCH  25  26
HETATM   26  C17 UNL     1      25.836   2.646  50.827  1.00  0.00    -0.058 A 
HETATM   27  C18 UNL     1      26.627   1.740  51.501  1.00  0.00     0.007 A 
HETATM   28  C19 UNL     1      26.078   0.777  52.326  1.00  0.00     0.001 A 
HETATM   29  C20 UNL     1      24.698   0.739  52.463  1.00  0.00     0.000 A 
HETATM   30  C21 UNL     1      23.971   1.671  51.765  1.00  0.00     0.001 A 
HETATM   31  C22 UNL     1      24.465   2.641  50.938  1.00  0.00     0.007 A 
ENDBRANCH  25  26
ENDBRANCH  24  25
ENDBRANCH  23  24
ENDBRANCH  19  22
TORSDOF 4
ENDMDL
MODEL 8
REMARK VINA RESULT:      -8.0      3.763      8.552
REMARK  4 active torsions:
REMARK  status: ('A' for Active; 'I' for Inactive)
REMARK    1  A    between atoms: C12_19  and  C13_20 
REMARK    2  A    between atoms: C14_21  and  C15_22 
REMARK    3  A    between atoms: C15_22  and  C16_23 
REMARK    4  A    between atoms: C16_23  and  C17_24 
ROOT
HETATM    1  C1  UNL     1      21.080   5.098  48.616  1.00  0.00     0.177 C 
HETATM    2  N1  UNL     1      20.220   4.034  48.925  1.00  0.00    -0.299 NA
HETATM    3  C2  UNL     1      20.061   3.638  50.156  1.00  0.00     0.053 C 
HETATM    4  C3  UNL     1      20.807   4.334  51.231  1.00  0.00     0.229 C 
HETATM    5  N2  UNL     1      21.390   3.635  52.244  1.00  0.00    -0.191 NA
HETATM    6  N3  UNL     1      22.509   3.251  52.430  1.00  0.00    -0.178 NA
HETATM    7  C4  UNL     1      23.601   3.449  51.551  1.00  0.00     0.294 C 
HETATM    8  N4  UNL     1      24.109   2.103  51.232  1.00  0.00    -0.379 N 
HETATM    9  C5  UNL     1      22.777   1.747  51.069  1.00  0.00     0.098 C 
HETATM   10  C6  UNL     1      21.826   1.003  51.658  1.00  0.00     0.008 C 
HETATM   11  C7  UNL     1      22.445   0.384  52.827  1.00  0.00     0.030 C 
HETATM   12  C8  UNL     1      21.763  -0.024  53.891  1.00  0.00     0.018 C 
HETATM   13  C9  UNL     1      20.667  -0.747  53.703  1.00  0.00     0.147 C 
HETATM   14  F1  UNL     1      20.139  -1.805  54.314  1.00  0.00    -0.204 F 
HETATM   15  C10 UNL     1      19.973  -0.166  52.566  1.00  0.00     0.077 C 
HETATM   16 BR1  UNL     1      18.106  -0.520  52.212  1.00  0.00    -0.045 Br
HETATM   17  C11 UNL     1      20.389   0.622  51.603  1.00  0.00     0.061 C 
HETATM   18  N5  UNL     1      19.629   1.215  50.560  1.00  0.00    -0.375 N 
HETATM   19  C12 UNL     1      19.123   2.531  50.278  1.00  0.00     0.154 C 
HETATM   20  H8  UNL     1      24.357   1.120  50.991  1.00  0.00     0.160 HD
HETATM   21  H11 UNL     1      19.557   0.293  50.067  1.00  0.00     0.160 HD
ENDROOT
BRANCH  19  22
HETATM   22  C13 UNL     1      18.073   2.977  51.275  1.00  0.00     0.000 C 
HETATM   23  C14 UNL     1      16.810   3.334  51.067  1.00  0.00    -0.028 C 
BRANCH  23  24
HETATM   24  C15 UNL     1      15.935   3.747  52.218  1.00  0.00     0.031 C 
BRANCH  24  25
HETATM   25  C16 UNL     1      14.510   3.963  51.728  1.00  0.00     0.042 C 
BRANCH  25  26
HETATM   26  C17 UNL     1      13.600   3.492  52.803  1.00  0.00    -0.058 A 
HETATM   27  C18 UNL     1      13.006   4.497  53.536  1.00  0.00     0.007 A 
HETATM   28  C19 UNL     1      12.132   4.215  54.570  1.00  0.00     0.001 A 
HETATM   29  C20 UNL     1      11.863   2.885  54.857  1.00  0.00     0.000 A 
HETATM   30  C21 UNL     1      12.488   1.936  54.087  1.00  0.00     0.001 A 
HETATM   31  C22 UNL     1      13.358   2.162  53.057  1.00  0.00     0.007 A 
ENDBRANCH  25  26
ENDBRANCH  24  25
ENDBRANCH  23  24
ENDBRANCH  19  22
TORSDOF 4
ENDMDL
MODEL 9
REMARK VINA RESULT:      -7.7      2.659      6.295
REMARK  4 active torsions:
REMARK  status: ('A' for Active; 'I' for Inactive)
REMARK    1  A    between atoms: C12_19  and  C13_20 
REMARK    2  A    between atoms: C14_21  and  C15_22 
REMARK    3  A    between atoms: C15_22  and  C16_23 
REMARK    4  A    between atoms: C16_23  and  C17_24 
ROOT
HETATM    1  C1  UNL     1      26.524   3.696  49.700  1.00  0.00     0.177 C 
HETATM    2  N1  UNL     1      25.244   3.255  49.332  1.00  0.00    -0.299 NA
HETATM    3  C2  UNL     1      24.247   3.328  50.166  1.00  0.00     0.053 C 
HETATM    4  C3  UNL     1      24.486   3.887  51.517  1.00  0.00     0.229 C 
HETATM    5  N2  UNL     1      23.932   3.312  52.621  1.00  0.00    -0.191 NA
HETATM    6  N3  UNL     1      24.352   2.538  53.433  1.00  0.00    -0.178 NA
HETATM    7  C4  UNL     1      25.653   1.980  53.440  1.00  0.00     0.294 C 
HETATM    8  N4  UNL     1      25.463   0.519  53.411  1.00  0.00    -0.379 N 
HETATM    9  C5  UNL     1      24.510   0.762  52.432  1.00  0.00     0.098 C 
HETATM   10  C6  UNL     1      23.180   0.711  52.248  1.00  0.00     0.008 C 
HETATM   11  C7  UNL     1      22.604   0.231  53.501  1.00  0.00     0.030 C 
HETATM   12  C8  UNL     1      21.355   0.480  53.880  1.00  0.00     0.018 C 
HETATM   13  C9  UNL     1      20.378   0.298  53.001  1.00  0.00     0.147 C 
HETATM   14  F1  UNL     1      19.147  -0.201  53.076  1.00  0.00    -0.204 F 
HETATM   15  C10 UNL     1      20.868   0.788  51.723  1.00  0.00     0.077 C 
HETATM   16 BR1  UNL     1      19.678   1.217  50.263  1.00  0.00    -0.045 Br
HETATM   17  C11 UNL     1      22.085   1.010  51.286  1.00  0.00     0.061 C 
HETATM   18  N5  UNL     1      22.486   1.565  50.041  1.00  0.00    -0.375 N 
HETATM   19  C12 UNL     1      22.999   2.834  49.601  1.00  0.00     0.154 C 
HETATM   20  H8  UNL     1      25.250  -0.495  53.307  1.00  0.00     0.160 HD
HETATM   21  H11 UNL     1      22.238   0.675  49.547  1.00  0.00     0.160 HD
ENDROOT
BRANCH  19  22
HETATM   22  C13 UNL     1      21.992   3.955  49.758  1.00  0.00     0.000 C 
HETATM   23  C14 UNL     1      21.880   5.090  49.077  1.00  0.00    -0.028 C 
BRANCH  23  24
HETATM   24  C15 UNL     1      20.791   6.074  49.407  1.00  0.00     0.031 C 
BRANCH  24  25
HETATM   25  C16 UNL     1      21.233   6.962  50.562  1.00  0.00     0.042 C 
BRANCH  25  26
HETATM   26  C17 UNL     1      22.460   7.672  50.123  1.00  0.00    -0.058 A 
HETATM   27  C18 UNL     1      22.294   8.480  49.019  1.00  0.00     0.007 A 
HETATM   28  C19 UNL     1      23.346   9.208  48.493  1.00  0.00     0.001 A 
HETATM   29  C20 UNL     1      24.585   9.107  49.107  1.00  0.00     0.000 A 
HETATM   30  C21 UNL     1      24.679   8.285  50.202  1.00  0.00     0.001 A 
HETATM   31  C22 UNL     1      23.672   7.547  50.760  1.00  0.00     0.007 A 
ENDBRANCH  25  26
ENDBRANCH  24  25
ENDBRANCH  23  24
ENDBRANCH  19  22
TORSDOF 4
ENDMDL
