MODEL 1
REMARK VINA RESULT:      -8.3      0.000      0.000
REMARK  5 active torsions:
REMARK  status: ('A' for Active; 'I' for Inactive)
REMARK    1  A    between atoms: C12_14  and  O2_15 
REMARK    2  A    between atoms: O2_15  and  C13_16 
REMARK    3  A    between atoms: C13_16  and  C14_17 
REMARK    4  A    between atoms: C14_17  and  C15_18 
REMARK    5  A    between atoms: C15_18  and  N2_19 
ROOT
HETATM    1  C1  UNL     1      18.194  -2.009  53.690  1.00  0.00     0.019 C 
HETATM    2  C2  UNL     1      19.248  -0.895  53.460  1.00  0.00     0.068 C 
HETATM    3  C3  UNL     1      20.583  -1.556  53.635  1.00  0.00     0.179 C 
HETATM    4  O1  UNL     1      21.724  -1.099  53.517  1.00  0.00    -0.387 OA
HETATM    5  C4  UNL     1      22.878  -0.638  53.395  1.00  0.00     0.195 C 
HETATM    6  C5  UNL     1      23.281   0.624  52.789  1.00  0.00     0.000 C 
HETATM    7  C6  UNL     1      23.847   1.820  52.819  1.00  0.00     0.013 C 
HETATM    8  C7  UNL     1      23.873   2.639  51.623  1.00  0.00     0.007 C 
HETATM    9  C8  UNL     1      22.638   3.108  51.782  1.00  0.00     0.100 C 
HETATM   10  N1  UNL     1      21.876   2.535  50.941  1.00  0.00    -0.228 NA
HETATM   11  C9  UNL     1      22.453   2.222  49.638  1.00  0.00     0.129 C 
HETATM   12  C10 UNL     1      23.497   2.982  49.248  1.00  0.00     0.064 C 
HETATM   13  C11 UNL     1      24.358   3.248  50.394  1.00  0.00     0.002 C 
HETATM   14  C12 UNL     1      25.458   3.966  50.330  1.00  0.00     0.147 C 
HETATM   15  N3  UNL     1      21.965   1.163  48.777  1.00  0.00    -0.351 N 
HETATM   16  C20 UNL     1      20.568   1.361  49.106  1.00  0.00     0.090 C 
HETATM   17  C21 UNL     1      20.113   0.835  50.206  1.00  0.00     0.020 C 
HETATM   18  C22 UNL     1      19.130   0.522  51.207  1.00  0.00     0.039 C 
HETATM   19  C23 UNL     1      18.927  -0.102  52.331  1.00  0.00     0.099 C 
HETATM   20  F1  UNL     1      17.589   0.193  52.559  1.00  0.00    -0.210 F 
HETATM   21  H27 UNL     1      21.667   0.402  48.153  1.00  0.00     0.166 HD
ENDROOT
BRANCH  14  22
HETATM   22  O2  UNL     1      25.812   4.488  49.110  1.00  0.00    -0.362 OA
BRANCH  22  23
HETATM   23  C13 UNL     1      26.517   5.699  48.902  1.00  0.00     0.176 C 
BRANCH  23  24
HETATM   24  C14 UNL     1      27.953   5.396  48.504  1.00  0.00     0.046 C 
BRANCH  24  25
HETATM   25  C15 UNL     1      28.513   6.671  47.913  1.00  0.00     0.119 C 
BRANCH  25  26
HETATM   26  N2  UNL     1      29.914   6.777  47.993  1.00  0.00    -0.408 N 
HETATM   27  C16 UNL     1      30.470   7.820  48.778  1.00  0.00     0.143 C 
HETATM   28  C17 UNL     1      31.752   7.283  49.411  1.00  0.00     0.187 C 
HETATM   29  O3  UNL     1      32.634   6.789  48.472  1.00  0.00    -0.388 OA
HETATM   30  C18 UNL     1      32.071   5.875  47.608  1.00  0.00     0.187 C 
HETATM   31  C19 UNL     1      30.634   5.548  48.021  1.00  0.00     0.143 C 
ENDBRANCH  25  26
ENDBRANCH  24  25
ENDBRANCH  23  24
ENDBRANCH  22  23
ENDBRANCH  14  22
TORSDOF 5
ENDMDL
MODEL 2
REMARK VINA RESULT:      -8.3      5.058     10.645
REMARK  5 active torsions:
REMARK  status: ('A' for Active; 'I' for Inactive)
REMARK    1  A    between atoms: C12_14  and  O2_15 
REMARK    2  A    between atoms: O2_15  and  C13_16 
REMARK    3  A    between atoms: C13_16  and  C14_17 
REMARK    4  A    between atoms: C14_17  and  C15_18 
REMARK    5  A    between atoms: C15_18  and  N2_19 
ROOT
HETATM    1  C1  UNL     1      32.137  11.470  47.551  1.00  0.00     0.019 C 
HETATM    2  C2  UNL     1      31.171  10.259  47.479  1.00  0.00     0.068 C 
HETATM    3  C3  UNL     1      31.855   9.149  48.220  1.00  0.00     0.179 C 
HETATM    4  O1  UNL     1      31.477   8.001  48.470  1.00  0.00    -0.387 OA
HETATM    5  C4  UNL     1      31.093   6.840  48.726  1.00  0.00     0.195 C 
HETATM    6  C5  UNL     1      29.747   6.293  48.606  1.00  0.00     0.000 C 
HETATM    7  C6  UNL     1      28.859   5.444  48.114  1.00  0.00     0.013 C 
HETATM    8  C7  UNL     1      27.474   5.519  48.540  1.00  0.00     0.007 C 
HETATM    9  C8  UNL     1      27.153   6.500  47.699  1.00  0.00     0.100 C 
HETATM   10  N1  UNL     1      27.041   7.579  48.360  1.00  0.00    -0.228 NA
HETATM   11  C9  UNL     1      26.498   7.470  49.710  1.00  0.00     0.129 C 
HETATM   12  C10 UNL     1      25.707   6.404  49.952  1.00  0.00     0.064 C 
HETATM   13  C11 UNL     1      26.254   5.233  49.277  1.00  0.00     0.002 C 
HETATM   14  C12 UNL     1      25.704   4.039  49.325  1.00  0.00     0.147 C 
HETATM   15  N3  UNL     1      26.765   8.430  50.763  1.00  0.00    -0.351 N 
HETATM   16  C20 UNL     1      26.753   9.586  49.891  1.00  0.00     0.090 C 
HETATM   17  C21 UNL     1      27.829   9.857  49.212  1.00  0.00     0.020 C 
HETATM   18  C22 UNL     1      28.654  10.588  48.288  1.00  0.00     0.039 C 
HETATM   19  C23 UNL     1      29.834  10.645  47.741  1.00  0.00     0.099 C 
HETATM   20  F1  UNL     1      29.685  11.748  46.910  1.00  0.00    -0.210 F 
HETATM   21  H27 UNL     1      26.955   9.071  51.543  1.00  0.00     0.166 HD
ENDROOT
BRANCH  14  22
HETATM   22  O2  UNL     1      24.551   3.895  50.057  1.00  0.00    -0.362 OA
BRANCH  22  23
HETATM   23  C13 UNL     1      24.334   2.937  51.078  1.00  0.00     0.176 C 
BRANCH  23  24
HETATM   24  C14 UNL     1      25.567   2.838  51.962  1.00  0.00     0.046 C 
BRANCH  24  25
HETATM   25  C15 UNL     1      26.346   1.634  51.480  1.00  0.00     0.119 C 
BRANCH  25  26
HETATM   26  N2  UNL     1      27.014   0.933  52.501  1.00  0.00    -0.408 N 
HETATM   27  C16 UNL     1      26.982   1.460  53.818  1.00  0.00     0.143 C 
HETATM   28  C17 UNL     1      26.944   0.278  54.784  1.00  0.00     0.187 C 
HETATM   29  O3  UNL     1      27.989  -0.599  54.582  1.00  0.00    -0.388 OA
HETATM   30  C18 UNL     1      28.120  -1.014  53.275  1.00  0.00     0.187 C 
HETATM   31  C19 UNL     1      26.967  -0.489  52.417  1.00  0.00     0.143 C 
ENDBRANCH  25  26
ENDBRANCH  24  25
ENDBRANCH  23  24
ENDBRANCH  22  23
ENDBRANCH  14  22
TORSDOF 5
ENDMDL
MODEL 3
REMARK VINA RESULT:      -8.3      5.192     10.779
REMARK  5 active torsions:
REMARK  status: ('A' for Active; 'I' for Inactive)
REMARK    1  A    between atoms: C12_14  and  O2_15 
REMARK    2  A    between atoms: O2_15  and  C13_16 
REMARK    3  A    between atoms: C13_16  and  C14_17 
REMARK    4  A    between atoms: C14_17  and  C15_18 
REMARK    5  A    between atoms: C15_18  and  N2_19 
ROOT
HETATM    1  C1  UNL     1      27.733  -0.673  53.335  1.00  0.00     0.019 C 
HETATM    2  C2  UNL     1      26.287  -0.414  52.837  1.00  0.00     0.068 C 
HETATM    3  C3  UNL     1      25.395  -0.711  54.005  1.00  0.00     0.179 C 
HETATM    4  O1  UNL     1      24.169  -0.619  54.121  1.00  0.00    -0.387 OA
HETATM    5  C4  UNL     1      22.930  -0.524  54.238  1.00  0.00     0.195 C 
HETATM    6  C5  UNL     1      21.994   0.157  53.352  1.00  0.00     0.000 C 
HETATM    7  C6  UNL     1      20.950   0.189  52.538  1.00  0.00     0.013 C 
HETATM    8  C7  UNL     1      20.543   1.442  51.933  1.00  0.00     0.007 C 
HETATM    9  C8  UNL     1      21.437   1.387  50.949  1.00  0.00     0.100 C 
HETATM   10  N1  UNL     1      22.364   2.220  51.197  1.00  0.00    -0.228 NA
HETATM   11  C9  UNL     1      21.974   3.462  51.855  1.00  0.00     0.129 C 
HETATM   12  C10 UNL     1      20.694   3.854  51.682  1.00  0.00     0.064 C 
HETATM   13  C11 UNL     1      19.820   2.687  51.723  1.00  0.00     0.002 C 
HETATM   14  C12 UNL     1      18.514   2.747  51.582  1.00  0.00     0.147 C 
HETATM   15  N3  UNL     1      22.875   4.263  52.659  1.00  0.00    -0.351 N 
HETATM   16  C20 UNL     1      24.037   4.025  51.828  1.00  0.00     0.090 C 
HETATM   17  C21 UNL     1      24.694   2.914  51.989  1.00  0.00     0.020 C 
HETATM   18  C22 UNL     1      25.725   1.946  51.734  1.00  0.00     0.039 C 
HETATM   19  C23 UNL     1      26.202   0.789  52.094  1.00  0.00     0.099 C 
HETATM   20  F1  UNL     1      27.267   0.657  51.211  1.00  0.00    -0.210 F 
HETATM   21  H27 UNL     1      23.475   4.841  53.261  1.00  0.00     0.166 HD
ENDROOT
BRANCH  14  22
HETATM   22  O2  UNL     1      17.948   3.983  51.390  1.00  0.00    -0.362 OA
BRANCH  22  23
HETATM   23  C13 UNL     1      16.606   4.227  51.007  1.00  0.00     0.176 C 
BRANCH  23  24
HETATM   24  C14 UNL     1      15.729   4.338  52.245  1.00  0.00     0.046 C 
BRANCH  24  25
HETATM   25  C15 UNL     1      14.782   3.158  52.207  1.00  0.00     0.119 C 
BRANCH  25  26
HETATM   26  N2  UNL     1      13.836   3.145  53.248  1.00  0.00    -0.408 N 
HETATM   27  C16 UNL     1      13.565   4.358  53.933  1.00  0.00     0.143 C 
HETATM   28  C17 UNL     1      12.083   4.352  54.305  1.00  0.00     0.187 C 
HETATM   29  O3  UNL     1      11.729   3.235  55.032  1.00  0.00    -0.388 OA
HETATM   30  C18 UNL     1      12.111   2.047  54.447  1.00  0.00     0.187 C 
HETATM   31  C19 UNL     1      12.711   2.291  53.060  1.00  0.00     0.143 C 
ENDBRANCH  25  26
ENDBRANCH  24  25
ENDBRANCH  23  24
ENDBRANCH  22  23
ENDBRANCH  14  22
TORSDOF 5
ENDMDL
MODEL 4
REMARK VINA RESULT:      -8.1      3.507      9.474
REMARK  5 active torsions:
REMARK  status: ('A' for Active; 'I' for Inactive)
REMARK    1  A    between atoms: C12_14  and  O2_15 
REMARK    2  A    between atoms: O2_15  and  C13_16 
REMARK    3  A    between atoms: C13_16  and  C14_17 
REMARK    4  A    between atoms: C14_17  and  C15_18 
REMARK    5  A    between atoms: C15_18  and  N2_19 
ROOT
HETATM    1  C1  UNL     1      26.975   9.584  46.307  1.00  0.00     0.019 C 
HETATM    2  C2  UNL     1      26.439   8.243  46.870  1.00  0.00     0.068 C 
HETATM    3  C3  UNL     1      27.637   7.523  47.413  1.00  0.00     0.179 C 
HETATM    4  O1  UNL     1      27.724   6.437  47.994  1.00  0.00    -0.387 OA
HETATM    5  C4  UNL     1      27.810   5.340  48.585  1.00  0.00     0.195 C 
HETATM    6  C5  UNL     1      26.734   4.541  49.159  1.00  0.00     0.000 C 
HETATM    7  C6  UNL     1      26.004   3.441  49.256  1.00  0.00     0.013 C 
HETATM    8  C7  UNL     1      24.926   3.373  50.224  1.00  0.00     0.007 C 
HETATM    9  C8  UNL     1      24.046   4.010  49.455  1.00  0.00     0.100 C 
HETATM   10  N1  UNL     1      23.895   5.188  49.906  1.00  0.00    -0.228 NA
HETATM   11  C9  UNL     1      23.962   5.353  51.354  1.00  0.00     0.129 C 
HETATM   12  C10 UNL     1      23.659   4.266  52.094  1.00  0.00     0.064 C 
HETATM   13  C11 UNL     1      24.214   3.077  51.457  1.00  0.00     0.002 C 
HETATM   14  C12 UNL     1      24.084   1.862  51.942  1.00  0.00     0.147 C 
HETATM   15  N3  UNL     1      24.327   6.595  52.005  1.00  0.00    -0.351 N 
HETATM   16  C20 UNL     1      23.658   7.448  51.044  1.00  0.00     0.090 C 
HETATM   17  C21 UNL     1      24.270   7.718  49.928  1.00  0.00     0.020 C 
HETATM   18  C22 UNL     1      24.439   8.308  48.628  1.00  0.00     0.039 C 
HETATM   19  C23 UNL     1      25.253   8.431  47.620  1.00  0.00     0.099 C 
HETATM   20  F1  UNL     1      24.494   9.219  46.763  1.00  0.00    -0.210 F 
HETATM   21  H27 UNL     1      24.611   7.449  52.502  1.00  0.00     0.166 HD
ENDROOT
BRANCH  14  22
HETATM   22  O2  UNL     1      23.389   1.711  53.116  1.00  0.00    -0.362 OA
BRANCH  22  23
HETATM   23  C13 UNL     1      22.813   0.506  53.588  1.00  0.00     0.176 C 
BRANCH  23  24
HETATM   24  C14 UNL     1      21.974  -0.128  52.491  1.00  0.00     0.046 C 
BRANCH  24  25
HETATM   25  C15 UNL     1      20.575   0.429  52.642  1.00  0.00     0.119 C 
BRANCH  25  26
HETATM   26  N2  UNL     1      20.190   1.310  51.615  1.00  0.00    -0.408 N 
HETATM   27  C16 UNL     1      19.974   2.674  51.937  1.00  0.00     0.143 C 
HETATM   28  C17 UNL     1      20.427   3.505  50.738  1.00  0.00     0.187 C 
HETATM   29  O3  UNL     1      19.802   3.124  49.569  1.00  0.00    -0.388 OA
HETATM   30  C18 UNL     1      19.883   1.773  49.311  1.00  0.00     0.187 C 
HETATM   31  C19 UNL     1      20.777   1.074  50.338  1.00  0.00     0.143 C 
ENDBRANCH  25  26
ENDBRANCH  24  25
ENDBRANCH  23  24
ENDBRANCH  22  23
ENDBRANCH  14  22
TORSDOF 5
ENDMDL
MODEL 5
REMARK VINA RESULT:      -8.0      5.588     12.176
REMARK  5 active torsions:
REMARK  status: ('A' for Active; 'I' for Inactive)
REMARK    1  A    between atoms: C12_14  and  O2_15 
REMARK    2  A    between atoms: O2_15  and  C13_16 
REMARK    3  A    between atoms: C13_16  and  C14_17 
REMARK    4  A    between atoms: C14_17  and  C15_18 
REMARK    5  A    between atoms: C15_18  and  N2_19 
ROOT
HETATM    1  C1  UNL     1      32.384  12.585  44.602  1.00  0.00     0.019 C 
HETATM    2  C2  UNL     1      31.399  11.705  45.414  1.00  0.00     0.068 C 
HETATM    3  C3  UNL     1      30.429  11.151  44.414  1.00  0.00     0.179 C 
HETATM    4  O1  UNL     1      29.484  10.370  44.562  1.00  0.00    -0.387 OA
HETATM    5  C4  UNL     1      28.530   9.578  44.712  1.00  0.00     0.195 C 
HETATM    6  C5  UNL     1      28.229   8.744  45.869  1.00  0.00     0.000 C 
HETATM    7  C6  UNL     1      27.456   8.347  46.868  1.00  0.00     0.013 C 
HETATM    8  C7  UNL     1      27.900   7.281  47.745  1.00  0.00     0.007 C 
HETATM    9  C8  UNL     1      28.653   8.070  48.507  1.00  0.00     0.100 C 
HETATM   10  N1  UNL     1      29.874   7.859  48.225  1.00  0.00    -0.228 NA
HETATM   11  C9  UNL     1      30.242   6.491  47.877  1.00  0.00     0.129 C 
HETATM   12  C10 UNL     1      29.448   5.515  48.366  1.00  0.00     0.064 C 
HETATM   13  C11 UNL     1      28.057   5.947  48.303  1.00  0.00     0.002 C 
HETATM   14  C12 UNL     1      27.045   5.211  48.708  1.00  0.00     0.147 C 
HETATM   15  N3  UNL     1      31.388   6.151  47.057  1.00  0.00    -0.351 N 
HETATM   16  C20 UNL     1      32.242   7.194  47.588  1.00  0.00     0.090 C 
HETATM   17  C21 UNL     1      32.112   8.398  47.113  1.00  0.00     0.020 C 
HETATM   18  C22 UNL     1      32.396   9.802  46.990  1.00  0.00     0.039 C 
HETATM   19  C23 UNL     1      32.082  10.892  46.352  1.00  0.00     0.099 C 
HETATM   20  F1  UNL     1      32.922  11.810  46.970  1.00  0.00    -0.210 F 
HETATM   21  H27 UNL     1      32.172   5.872  46.454  1.00  0.00     0.166 HD
ENDROOT
BRANCH  14  22
HETATM   22  O2  UNL     1      27.322   3.965  49.216  1.00  0.00    -0.362 OA
BRANCH  22  23
HETATM   23  C13 UNL     1      26.375   3.066  49.764  1.00  0.00     0.176 C 
BRANCH  23  24
HETATM   24  C14 UNL     1      26.708   2.793  51.222  1.00  0.00     0.046 C 
BRANCH  24  25
HETATM   25  C15 UNL     1      25.618   1.885  51.749  1.00  0.00     0.119 C 
BRANCH  25  26
HETATM   26  N2  UNL     1      26.072   0.901  52.647  1.00  0.00    -0.408 N 
HETATM   27  C16 UNL     1      26.733  -0.240  52.125  1.00  0.00     0.143 C 
HETATM   28  C17 UNL     1      27.809  -0.646  53.130  1.00  0.00     0.187 C 
HETATM   29  O3  UNL     1      27.296  -0.855  54.392  1.00  0.00    -0.388 OA
HETATM   30  C18 UNL     1      26.531   0.191  54.861  1.00  0.00     0.187 C 
HETATM   31  C19 UNL     1      26.575   1.376  53.893  1.00  0.00     0.143 C 
ENDBRANCH  25  26
ENDBRANCH  24  25
ENDBRANCH  23  24
ENDBRANCH  22  23
ENDBRANCH  14  22
TORSDOF 5
ENDMDL
MODEL 6
REMARK VINA RESULT:      -7.8      2.083      3.255
REMARK  5 active torsions:
REMARK  status: ('A' for Active; 'I' for Inactive)
REMARK    1  A    between atoms: C12_14  and  O2_15 
REMARK    2  A    between atoms: O2_15  and  C13_16 
REMARK    3  A    between atoms: C13_16  and  C14_17 
REMARK    4  A    between atoms: C14_17  and  C15_18 
REMARK    5  A    between atoms: C15_18  and  N2_19 
ROOT
HETATM    1  C1  UNL     1      20.637  -1.378  54.336  1.00  0.00     0.019 C 
HETATM    2  C2  UNL     1      21.000  -0.423  53.170  1.00  0.00     0.068 C 
HETATM    3  C3  UNL     1      20.280   0.861  53.455  1.00  0.00     0.179 C 
HETATM    4  O1  UNL     1      20.280   1.933  52.842  1.00  0.00    -0.387 OA
HETATM    5  C4  UNL     1      20.282   3.017  52.223  1.00  0.00     0.195 C 
HETATM    6  C5  UNL     1      21.195   3.450  51.173  1.00  0.00     0.000 C 
HETATM    7  C6  UNL     1      21.472   3.855  49.943  1.00  0.00     0.013 C 
HETATM    8  C7  UNL     1      22.842   4.149  49.570  1.00  0.00     0.007 C 
HETATM    9  C8  UNL     1      23.167   2.881  49.333  1.00  0.00     0.100 C 
HETATM   10  N1  UNL     1      23.895   2.465  50.289  1.00  0.00    -0.228 NA
HETATM   11  C9  UNL     1      24.812   3.430  50.885  1.00  0.00     0.129 C 
HETATM   12  C10 UNL     1      25.192   4.459  50.099  1.00  0.00     0.064 C 
HETATM   13  C11 UNL     1      24.053   4.910  49.308  1.00  0.00     0.002 C 
HETATM   14  C12 UNL     1      24.111   5.900  48.445  1.00  0.00     0.147 C 
HETATM   15  N3  UNL     1      25.313   3.330  52.242  1.00  0.00    -0.351 N 
HETATM   16  C20 UNL     1      25.425   1.886  52.233  1.00  0.00     0.090 C 
HETATM   17  C21 UNL     1      24.353   1.183  52.453  1.00  0.00     0.020 C 
HETATM   18  C22 UNL     1      23.574  -0.015  52.614  1.00  0.00     0.039 C 
HETATM   19  C23 UNL     1      22.383  -0.475  52.868  1.00  0.00     0.099 C 
HETATM   20  F1  UNL     1      22.608  -1.844  52.790  1.00  0.00    -0.210 F 
HETATM   21  H27 UNL     1      25.665   3.310  53.207  1.00  0.00     0.166 HD
ENDROOT
BRANCH  14  22
HETATM   22  O2  UNL     1      25.314   6.543  48.287  1.00  0.00    -0.362 OA
BRANCH  22  23
HETATM   23  C13 UNL     1      25.573   7.901  48.596  1.00  0.00     0.176 C 
BRANCH  23  24
HETATM   24  C14 UNL     1      26.914   8.022  49.303  1.00  0.00     0.046 C 
BRANCH  24  25
HETATM   25  C15 UNL     1      27.907   7.234  48.477  1.00  0.00     0.119 C 
BRANCH  25  26
HETATM   26  N2  UNL     1      29.170   7.844  48.358  1.00  0.00    -0.408 N 
HETATM   27  C16 UNL     1      29.369   9.113  48.959  1.00  0.00     0.143 C 
HETATM   28  C17 UNL     1      30.810   9.161  49.463  1.00  0.00     0.187 C 
HETATM   29  O3  UNL     1      31.723   8.891  48.466  1.00  0.00    -0.388 OA
HETATM   30  C18 UNL     1      31.464   7.726  47.776  1.00  0.00     0.187 C 
HETATM   31  C19 UNL     1      30.293   6.968  48.407  1.00  0.00     0.143 C 
ENDBRANCH  25  26
ENDBRANCH  24  25
ENDBRANCH  23  24
ENDBRANCH  22  23
ENDBRANCH  14  22
TORSDOF 5
ENDMDL
MODEL 7
REMARK VINA RESULT:      -7.8      2.884      4.138
REMARK  5 active torsions:
REMARK  status: ('A' for Active; 'I' for Inactive)
REMARK    1  A    between atoms: C12_14  and  O2_15 
REMARK    2  A    between atoms: O2_15  and  C13_16 
REMARK    3  A    between atoms: C13_16  and  C14_17 
REMARK    4  A    between atoms: C14_17  and  C15_18 
REMARK    5  A    between atoms: C15_18  and  N2_19 
ROOT
HETATM    1  C1  UNL     1      22.067  -1.016  54.824  1.00  0.00     0.019 C 
HETATM    2  C2  UNL     1      22.002  -0.232  53.488  1.00  0.00     0.068 C 
HETATM    3  C3  UNL     1      20.967   0.834  53.691  1.00  0.00     0.179 C 
HETATM    4  O1  UNL     1      20.581   1.730  52.935  1.00  0.00    -0.387 OA
HETATM    5  C4  UNL     1      20.193   2.639  52.171  1.00  0.00     0.195 C 
HETATM    6  C5  UNL     1      20.816   3.103  50.938  1.00  0.00     0.000 C 
HETATM    7  C6  UNL     1      20.825   3.332  49.635  1.00  0.00     0.013 C 
HETATM    8  C7  UNL     1      21.997   3.917  49.011  1.00  0.00     0.007 C 
HETATM    9  C8  UNL     1      22.658   2.767  48.916  1.00  0.00     0.100 C 
HETATM   10  N1  UNL     1      23.575   2.753  49.795  1.00  0.00    -0.228 NA
HETATM   11  C9  UNL     1      24.222   4.027  50.092  1.00  0.00     0.129 C 
HETATM   12  C10 UNL     1      24.191   4.955  49.114  1.00  0.00     0.064 C 
HETATM   13  C11 UNL     1      22.891   4.920  48.454  1.00  0.00     0.002 C 
HETATM   14  C12 UNL     1      22.557   5.709  47.456  1.00  0.00     0.147 C 
HETATM   15  N3  UNL     1      24.873   4.323  51.353  1.00  0.00    -0.351 N 
HETATM   16  C20 UNL     1      25.409   2.990  51.538  1.00  0.00     0.090 C 
HETATM   17  C21 UNL     1      24.625   2.072  52.025  1.00  0.00     0.020 C 
HETATM   18  C22 UNL     1      24.261   0.758  52.481  1.00  0.00     0.039 C 
HETATM   19  C23 UNL     1      23.296   0.043  52.983  1.00  0.00     0.099 C 
HETATM   20  F1  UNL     1      23.910  -1.200  53.073  1.00  0.00    -0.210 F 
HETATM   21  H27 UNL     1      25.317   4.581  52.243  1.00  0.00     0.166 HD
ENDROOT
BRANCH  14  22
HETATM   22  O2  UNL     1      23.489   6.617  47.018  1.00  0.00    -0.362 OA
BRANCH  22  23
HETATM   23  C13 UNL     1      23.238   7.976  46.707  1.00  0.00     0.176 C 
BRANCH  23  24
HETATM   24  C14 UNL     1      24.432   8.826  47.108  1.00  0.00     0.046 C 
BRANCH  24  25
HETATM   25  C15 UNL     1      25.598   7.877  47.280  1.00  0.00     0.119 C 
BRANCH  25  26
HETATM   26  N2  UNL     1      26.674   8.410  48.013  1.00  0.00    -0.408 N 
HETATM   27  C16 UNL     1      26.412   9.455  48.936  1.00  0.00     0.143 C 
HETATM   28  C17 UNL     1      27.362   9.270  50.118  1.00  0.00     0.187 C 
HETATM   29  O3  UNL     1      28.683   9.218  49.726  1.00  0.00    -0.388 OA
HETATM   30  C18 UNL     1      28.930   8.302  48.727  1.00  0.00     0.187 C 
HETATM   31  C19 UNL     1      27.676   7.482  48.416  1.00  0.00     0.143 C 
ENDBRANCH  25  26
ENDBRANCH  24  25
ENDBRANCH  23  24
ENDBRANCH  22  23
ENDBRANCH  14  22
TORSDOF 5
ENDMDL
MODEL 8
REMARK VINA RESULT:      -7.8      4.158      5.446
REMARK  5 active torsions:
REMARK  status: ('A' for Active; 'I' for Inactive)
REMARK    1  A    between atoms: C12_14  and  O2_15 
REMARK    2  A    between atoms: O2_15  and  C13_16 
REMARK    3  A    between atoms: C13_16  and  C14_17 
REMARK    4  A    between atoms: C14_17  and  C15_18 
REMARK    5  A    between atoms: C15_18  and  N2_19 
ROOT
HETATM    1  C1  UNL     1      13.558   0.235  52.475  1.00  0.00     0.019 C 
HETATM    2  C2  UNL     1      15.055   0.564  52.708  1.00  0.00     0.068 C 
HETATM    3  C3  UNL     1      15.736  -0.758  52.903  1.00  0.00     0.179 C 
HETATM    4  O1  UNL     1      16.928  -1.026  53.084  1.00  0.00    -0.387 OA
HETATM    5  C4  UNL     1      18.134  -1.297  53.263  1.00  0.00     0.195 C 
HETATM    6  C5  UNL     1      19.287  -0.426  53.078  1.00  0.00     0.000 C 
HETATM    7  C6  UNL     1      20.363   0.214  53.507  1.00  0.00     0.013 C 
HETATM    8  C7  UNL     1      21.141   1.020  52.586  1.00  0.00     0.007 C 
HETATM    9  C8  UNL     1      20.348   2.085  52.674  1.00  0.00     0.100 C 
HETATM   10  N1  UNL     1      19.663   2.169  51.607  1.00  0.00    -0.228 NA
HETATM   11  C9  UNL     1      20.319   1.758  50.370  1.00  0.00     0.129 C 
HETATM   12  C10 UNL     1      21.666   1.828  50.356  1.00  0.00     0.064 C 
HETATM   13  C11 UNL     1      22.187   1.398  51.648  1.00  0.00     0.002 C 
HETATM   14  C12 UNL     1      23.468   1.358  51.943  1.00  0.00     0.147 C 
HETATM   15  N3  UNL     1      19.604   1.294  49.197  1.00  0.00    -0.351 N 
HETATM   16  C20 UNL     1      18.492   2.210  49.352  1.00  0.00     0.090 C 
HETATM   17  C21 UNL     1      17.550   1.900  50.193  1.00  0.00     0.020 C 
HETATM   18  C22 UNL     1      16.320   2.077  50.916  1.00  0.00     0.039 C 
HETATM   19  C23 UNL     1      15.522   1.539  51.792  1.00  0.00     0.099 C 
HETATM   20  F1  UNL     1      14.536   2.514  51.884  1.00  0.00    -0.210 F 
HETATM   21  H27 UNL     1      19.135   0.932  48.358  1.00  0.00     0.166 HD
ENDROOT
BRANCH  14  22
HETATM   22  O2  UNL     1      24.360   1.739  50.971  1.00  0.00    -0.362 OA
BRANCH  22  23
HETATM   23  C13 UNL     1      25.050   2.976  50.921  1.00  0.00     0.176 C 
BRANCH  23  24
HETATM   24  C14 UNL     1      26.441   2.813  51.511  1.00  0.00     0.046 C 
BRANCH  24  25
HETATM   25  C15 UNL     1      26.722   1.327  51.549  1.00  0.00     0.119 C 
BRANCH  25  26
HETATM   26  N2  UNL     1      27.260   0.872  52.767  1.00  0.00    -0.408 N 
HETATM   27  C16 UNL     1      26.676   1.327  53.977  1.00  0.00     0.143 C 
HETATM   28  C17 UNL     1      26.755   0.180  54.984  1.00  0.00     0.187 C 
HETATM   29  O3  UNL     1      28.043  -0.284  55.150  1.00  0.00    -0.388 OA
HETATM   30  C18 UNL     1      28.677  -0.599  53.968  1.00  0.00     0.187 C 
HETATM   31  C19 UNL     1      27.715  -0.478  52.784  1.00  0.00     0.143 C 
ENDBRANCH  25  26
ENDBRANCH  24  25
ENDBRANCH  23  24
ENDBRANCH  22  23
ENDBRANCH  14  22
TORSDOF 5
ENDMDL
MODEL 9
REMARK VINA RESULT:      -7.7      4.260     11.526
REMARK  5 active torsions:
REMARK  status: ('A' for Active; 'I' for Inactive)
REMARK    1  A    between atoms: C12_14  and  O2_15 
REMARK    2  A    between atoms: O2_15  and  C13_16 
REMARK    3  A    between atoms: C13_16  and  C14_17 
REMARK    4  A    between atoms: C14_17  and  C15_18 
REMARK    5  A    between atoms: C15_18  and  N2_19 
ROOT
HETATM    1  C1  UNL     1      35.051   9.057  47.371  1.00  0.00     0.019 C 
HETATM    2  C2  UNL     1      33.626   8.452  47.289  1.00  0.00     0.068 C 
HETATM    3  C3  UNL     1      33.633   7.269  48.210  1.00  0.00     0.179 C 
HETATM    4  O1  UNL     1      32.728   6.486  48.516  1.00  0.00    -0.387 OA
HETATM    5  C4  UNL     1      31.812   5.696  48.826  1.00  0.00     0.195 C 
HETATM    6  C5  UNL     1      30.382   5.841  48.586  1.00  0.00     0.000 C 
HETATM    7  C6  UNL     1      29.228   5.454  48.065  1.00  0.00     0.013 C 
HETATM    8  C7  UNL     1      28.029   6.236  48.302  1.00  0.00     0.007 C 
HETATM    9  C8  UNL     1      28.282   7.120  47.340  1.00  0.00     0.100 C 
HETATM   10  N1  UNL     1      28.665   8.205  47.879  1.00  0.00    -0.228 NA
HETATM   11  C9  UNL     1      28.048   8.561  49.152  1.00  0.00     0.129 C 
HETATM   12  C10 UNL     1      26.825   8.043  49.389  1.00  0.00     0.064 C 
HETATM   13  C11 UNL     1      26.777   6.670  48.901  1.00  0.00     0.002 C 
HETATM   14  C12 UNL     1      25.714   5.900  48.988  1.00  0.00     0.147 C 
HETATM   15  N3  UNL     1      28.676   9.418  50.138  1.00  0.00    -0.351 N 
HETATM   16  C20 UNL     1      29.287  10.304  49.168  1.00  0.00     0.090 C 
HETATM   17  C21 UNL     1      30.402   9.933  48.610  1.00  0.00     0.020 C 
HETATM   18  C22 UNL     1      31.538  10.046  47.736  1.00  0.00     0.039 C 
HETATM   19  C23 UNL     1      32.630   9.458  47.341  1.00  0.00     0.099 C 
HETATM   20  F1  UNL     1      33.093  10.369  46.399  1.00  0.00    -0.210 F 
HETATM   21  H27 UNL     1      29.102   9.996  50.873  1.00  0.00     0.166 HD
ENDROOT
BRANCH  14  22
HETATM   22  O2  UNL     1      24.590   6.425  49.577  1.00  0.00    -0.362 OA
BRANCH  22  23
HETATM   23  C13 UNL     1      23.374   5.734  49.800  1.00  0.00     0.176 C 
BRANCH  23  24
HETATM   24  C14 UNL     1      23.504   4.296  49.324  1.00  0.00     0.046 C 
BRANCH  24  25
HETATM   25  C15 UNL     1      22.443   3.504  50.056  1.00  0.00     0.119 C 
BRANCH  25  26
HETATM   26  N2  UNL     1      22.948   2.641  51.046  1.00  0.00    -0.408 N 
HETATM   27  C16 UNL     1      24.348   2.617  51.273  1.00  0.00     0.143 C 
HETATM   28  C17 UNL     1      24.566   2.385  52.768  1.00  0.00     0.187 C 
HETATM   29  O3  UNL     1      23.929   1.248  53.220  1.00  0.00    -0.388 OA
HETATM   30  C18 UNL     1      22.594   1.189  52.885  1.00  0.00     0.187 C 
HETATM   31  C19 UNL     1      22.142   2.487  52.211  1.00  0.00     0.143 C 
ENDBRANCH  25  26
ENDBRANCH  24  25
ENDBRANCH  23  24
ENDBRANCH  22  23
ENDBRANCH  14  22
TORSDOF 5
ENDMDL
