MODEL 1
REMARK VINA RESULT:      -8.0      0.000      0.000
REMARK  5 active torsions:
REMARK  status: ('A' for Active; 'I' for Inactive)
REMARK    1  A    between atoms: C2_2  and  C3_4 
REMARK    2  A    between atoms: C4_5  and  C5_6 
REMARK    3  A    between atoms: C6_7  and  N1_8 
REMARK    4  A    between atoms: N1_8  and  C7_9 
REMARK    5  A    between atoms: C11_15  and  O1_16 
ROOT
HETATM    1  O1  UNL     1      25.718   4.208  50.112  1.00  0.00    -0.348 OA
HETATM    2  C12 UNL     1      26.197   5.114  49.351  1.00  0.00     0.171 C 
HETATM    3  C13 UNL     1      26.734   6.131  48.495  1.00  0.00     0.034 C 
ENDROOT
BRANCH   1   4
HETATM    4  C11 UNL     1      25.751   3.134  50.847  1.00  0.00     0.107 A 
HETATM    5  C10 UNL     1      26.836   2.536  51.459  1.00  0.00     0.072 A 
HETATM    6  C9  UNL     1      26.607   1.391  52.205  1.00  0.00     0.077 A 
HETATM    7  N3  UNL     1      27.690   0.835  52.812  1.00  0.00    -0.241 NA
HETATM    8  C16 UNL     1      25.340   0.897  52.311  1.00  0.00     0.075 A 
HETATM    9  C8  UNL     1      27.499  -0.282  53.574  1.00  0.00     0.236 A 
HETATM   10  N2  UNL     1      26.261  -0.810  53.710  1.00  0.00    -0.223 NA
HETATM   11  C7  UNL     1      25.243  -0.217  53.087  1.00  0.00     0.144 A 
HETATM   12  C15 UNL     1      24.227   1.451  51.721  1.00  0.00     0.121 A 
HETATM   13  C14 UNL     1      24.440   2.608  50.966  1.00  0.00     0.136 A 
HETATM   14  O2  UNL     1      22.946   0.936  51.827  1.00  0.00    -0.345 OA
HETATM   15  O3  UNL     1      23.269   3.096  50.404  1.00  0.00    -0.344 OA
HETATM   16  C18 UNL     1      22.233   2.233  49.903  1.00  0.00     0.202 C 
HETATM   17  C17 UNL     1      21.965   1.076  50.821  1.00  0.00     0.202 C 
BRANCH  11  18
HETATM   18  N1  UNL     1      23.989  -0.817  53.322  1.00  0.00    -0.350 N 
HETATM   19  H7  UNL     1      23.174  -1.312  52.909  1.00  0.00     0.166 HD
BRANCH  18  20
HETATM   20  C6  UNL     1      23.295  -0.947  54.546  1.00  0.00     0.090 C 
HETATM   21  C5  UNL     1      22.095  -1.145  55.045  1.00  0.00     0.017 C 
BRANCH  21  22
HETATM   22  C4  UNL     1      20.964  -1.314  54.142  1.00  0.00     0.003 C 
HETATM   23  C3  UNL     1      20.323  -0.193  53.874  1.00  0.00     0.019 C 
BRANCH  23  24
HETATM   24  C2  UNL     1      19.167  -0.388  52.965  1.00  0.00     0.009 A 
HETATM   25  C1  UNL     1      18.381  -0.388  51.903  1.00  0.00     0.152 A 
HETATM   26 CL1  UNL     1      17.604  -1.221  53.142  1.00  0.00    -0.182 Cl
ENDBRANCH  23  24
ENDBRANCH  21  22
ENDBRANCH  18  20
ENDBRANCH  11  18
ENDBRANCH   1   4
TORSDOF 5
ENDMDL
MODEL 2
REMARK VINA RESULT:      -7.8      3.252      6.984
REMARK  5 active torsions:
REMARK  status: ('A' for Active; 'I' for Inactive)
REMARK    1  A    between atoms: C2_2  and  C3_4 
REMARK    2  A    between atoms: C4_5  and  C5_6 
REMARK    3  A    between atoms: C6_7  and  N1_8 
REMARK    4  A    between atoms: N1_8  and  C7_9 
REMARK    5  A    between atoms: C11_15  and  O1_16 
ROOT
HETATM    1  O1  UNL     1      18.643  -0.670  53.063  1.00  0.00    -0.348 OA
HETATM    2  C12 UNL     1      17.528  -1.254  52.851  1.00  0.00     0.171 C 
HETATM    3  C13 UNL     1      16.274  -1.908  52.612  1.00  0.00     0.034 C 
ENDROOT
BRANCH   1   4
HETATM    4  C11 UNL     1      19.918  -0.601  53.317  1.00  0.00     0.107 A 
HETATM    5  C10 UNL     1      20.628  -1.185  54.348  1.00  0.00     0.072 A 
HETATM    6  C9  UNL     1      21.996  -0.966  54.396  1.00  0.00     0.077 A 
HETATM    7  N3  UNL     1      22.673  -1.569  55.410  1.00  0.00    -0.241 NA
HETATM    8  C16 UNL     1      22.589  -0.194  53.440  1.00  0.00     0.075 A 
HETATM    9  C8  UNL     1      24.025  -1.394  55.476  1.00  0.00     0.236 A 
HETATM   10  N2  UNL     1      24.659  -0.638  54.551  1.00  0.00    -0.223 NA
HETATM   11  C7  UNL     1      23.937  -0.073  53.584  1.00  0.00     0.144 A 
HETATM   12  C15 UNL     1      21.929   0.411  52.396  1.00  0.00     0.121 A 
HETATM   13  C14 UNL     1      20.548   0.199  52.332  1.00  0.00     0.136 A 
HETATM   14  O2  UNL     1      22.540   1.201  51.436  1.00  0.00    -0.345 OA
HETATM   15  O3  UNL     1      19.963   0.848  51.254  1.00  0.00    -0.344 OA
HETATM   16  C18 UNL     1      20.394   2.145  50.804  1.00  0.00     0.202 C 
HETATM   17  C17 UNL     1      21.889   2.267  50.778  1.00  0.00     0.202 C 
BRANCH  11  18
HETATM   18  N1  UNL     1      24.693   0.661  52.648  1.00  0.00    -0.350 N 
HETATM   19  H7  UNL     1      24.956   0.781  51.650  1.00  0.00     0.166 HD
BRANCH  18  20
HETATM   20  C6  UNL     1      25.554   1.756  52.882  1.00  0.00     0.090 C 
HETATM   21  C5  UNL     1      26.825   2.074  52.996  1.00  0.00     0.017 C 
BRANCH  21  22
HETATM   22  C4  UNL     1      27.838   1.037  52.850  1.00  0.00     0.003 C 
HETATM   23  C3  UNL     1      28.082   0.369  53.960  1.00  0.00     0.019 C 
BRANCH  23  24
HETATM   24  C2  UNL     1      29.125  -0.673  53.795  1.00  0.00     0.009 A 
HETATM   25  C1  UNL     1      30.273  -1.326  53.820  1.00  0.00     0.152 A 
HETATM   26 CL1  UNL     1      29.083  -2.359  53.227  1.00  0.00    -0.182 Cl
ENDBRANCH  23  24
ENDBRANCH  21  22
ENDBRANCH  18  20
ENDBRANCH  11  18
ENDBRANCH   1   4
TORSDOF 5
ENDMDL
MODEL 3
REMARK VINA RESULT:      -7.6      3.237      5.796
REMARK  5 active torsions:
REMARK  status: ('A' for Active; 'I' for Inactive)
REMARK    1  A    between atoms: C2_2  and  C3_4 
REMARK    2  A    between atoms: C4_5  and  C5_6 
REMARK    3  A    between atoms: C6_7  and  N1_8 
REMARK    4  A    between atoms: N1_8  and  C7_9 
REMARK    5  A    between atoms: C11_15  and  O1_16 
ROOT
HETATM    1  O1  UNL     1      27.203  -0.235  54.417  1.00  0.00    -0.348 OA
HETATM    2  C12 UNL     1      28.433  -0.435  54.141  1.00  0.00     0.171 C 
HETATM    3  C13 UNL     1      29.815  -0.658  53.831  1.00  0.00     0.034 C 
ENDROOT
BRANCH   1   4
HETATM    4  C11 UNL     1      25.925  -0.174  54.174  1.00  0.00     0.107 A 
HETATM    5  C10 UNL     1      24.905  -0.938  54.706  1.00  0.00     0.072 A 
HETATM    6  C9  UNL     1      23.610  -0.669  54.289  1.00  0.00     0.077 A 
HETATM    7  N3  UNL     1      22.624  -1.424  54.844  1.00  0.00    -0.241 NA
HETATM    8  C16 UNL     1      23.388   0.325  53.381  1.00  0.00     0.075 A 
HETATM    9  C8  UNL     1      21.335  -1.171  54.473  1.00  0.00     0.236 A 
HETATM   10  N2  UNL     1      21.062  -0.196  53.577  1.00  0.00    -0.223 NA
HETATM   11  C7  UNL     1      22.076   0.505  53.069  1.00  0.00     0.144 A 
HETATM   12  C15 UNL     1      24.366   1.111  52.819  1.00  0.00     0.121 A 
HETATM   13  C14 UNL     1      25.678   0.854  53.231  1.00  0.00     0.136 A 
HETATM   14  O2  UNL     1      24.130   2.113  51.892  1.00  0.00    -0.345 OA
HETATM   15  O3  UNL     1      26.599   1.688  52.613  1.00  0.00    -0.344 OA
HETATM   16  C18 UNL     1      26.469   2.104  51.242  1.00  0.00     0.202 C 
HETATM   17  C17 UNL     1      25.060   2.485  50.896  1.00  0.00     0.202 C 
BRANCH  11  18
HETATM   18  N1  UNL     1      21.687   1.524  52.176  1.00  0.00    -0.350 N 
HETATM   19  H7  UNL     1      21.822   1.952  51.238  1.00  0.00     0.166 HD
BRANCH  18  20
HETATM   20  C6  UNL     1      20.724   2.539  52.369  1.00  0.00     0.090 C 
HETATM   21  C5  UNL     1      20.484   3.807  52.114  1.00  0.00     0.017 C 
BRANCH  21  22
HETATM   22  C4  UNL     1      21.464   4.585  51.368  1.00  0.00     0.003 C 
HETATM   23  C3  UNL     1      22.406   5.118  52.120  1.00  0.00     0.019 C 
BRANCH  23  24
HETATM   24  C2  UNL     1      23.386   5.917  51.345  1.00  0.00     0.009 A 
HETATM   25  C1  UNL     1      24.430   6.280  50.621  1.00  0.00     0.152 A 
HETATM   26 CL1  UNL     1      23.421   7.614  50.807  1.00  0.00    -0.182 Cl
ENDBRANCH  23  24
ENDBRANCH  21  22
ENDBRANCH  18  20
ENDBRANCH  11  18
ENDBRANCH   1   4
TORSDOF 5
ENDMDL
MODEL 4
REMARK VINA RESULT:      -7.5      2.991      6.372
REMARK  5 active torsions:
REMARK  status: ('A' for Active; 'I' for Inactive)
REMARK    1  A    between atoms: C2_2  and  C3_4 
REMARK    2  A    between atoms: C4_5  and  C5_6 
REMARK    3  A    between atoms: C6_7  and  N1_8 
REMARK    4  A    between atoms: N1_8  and  C7_9 
REMARK    5  A    between atoms: C11_15  and  O1_16 
ROOT
HETATM    1  O1  UNL     1      20.442  -0.097  53.651  1.00  0.00    -0.348 OA
HETATM    2  C12 UNL     1      19.339  -0.690  53.402  1.00  0.00     0.171 C 
HETATM    3  C13 UNL     1      18.100  -1.356  53.124  1.00  0.00     0.034 C 
ENDROOT
BRANCH   1   4
HETATM    4  C11 UNL     1      21.702   0.187  53.486  1.00  0.00     0.107 A 
HETATM    5  C10 UNL     1      22.811  -0.529  53.894  1.00  0.00     0.072 A 
HETATM    6  C9  UNL     1      24.061  -0.016  53.586  1.00  0.00     0.077 A 
HETATM    7  N3  UNL     1      25.134  -0.751  53.983  1.00  0.00    -0.241 NA
HETATM    8  C16 UNL     1      24.156   1.161  52.902  1.00  0.00     0.075 A 
HETATM    9  C8  UNL     1      26.381  -0.287  53.676  1.00  0.00     0.236 A 
HETATM   10  N2  UNL     1      26.528   0.874  52.999  1.00  0.00    -0.223 NA
HETATM   11  C7  UNL     1      25.435   1.547  52.642  1.00  0.00     0.144 A 
HETATM   12  C15 UNL     1      23.086   1.913  52.476  1.00  0.00     0.121 A 
HETATM   13  C14 UNL     1      21.818   1.408  52.777  1.00  0.00     0.136 A 
HETATM   14  O2  UNL     1      23.195   3.111  51.789  1.00  0.00    -0.345 OA
HETATM   15  O3  UNL     1      20.798   2.230  52.316  1.00  0.00    -0.344 OA
HETATM   16  C18 UNL     1      20.894   3.665  52.332  1.00  0.00     0.202 C 
HETATM   17  C17 UNL     1      22.241   4.148  51.880  1.00  0.00     0.202 C 
BRANCH  11  18
HETATM   18  N1  UNL     1      25.691   2.722  51.906  1.00  0.00    -0.350 N 
HETATM   19  H7  UNL     1      25.509   3.741  51.810  1.00  0.00     0.166 HD
BRANCH  18  20
HETATM   20  C6  UNL     1      26.504   2.881  50.762  1.00  0.00     0.090 C 
HETATM   21  C5  UNL     1      26.681   3.649  49.710  1.00  0.00     0.017 C 
BRANCH  21  22
HETATM   22  C4  UNL     1      25.807   4.797  49.508  1.00  0.00     0.003 C 
HETATM   23  C3  UNL     1      24.637   4.491  48.983  1.00  0.00     0.019 C 
BRANCH  23  24
HETATM   24  C2  UNL     1      23.767   5.674  48.772  1.00  0.00     0.009 A 
HETATM   25  C1  UNL     1      22.893   6.648  48.953  1.00  0.00     0.152 A 
HETATM   26 CL1  UNL     1      23.596   6.837  47.436  1.00  0.00    -0.182 Cl
ENDBRANCH  23  24
ENDBRANCH  21  22
ENDBRANCH  18  20
ENDBRANCH  11  18
ENDBRANCH   1   4
TORSDOF 5
ENDMDL
MODEL 5
REMARK VINA RESULT:      -7.5      2.003      4.399
REMARK  5 active torsions:
REMARK  status: ('A' for Active; 'I' for Inactive)
REMARK    1  A    between atoms: C2_2  and  C3_4 
REMARK    2  A    between atoms: C4_5  and  C5_6 
REMARK    3  A    between atoms: C6_7  and  N1_8 
REMARK    4  A    between atoms: N1_8  and  C7_9 
REMARK    5  A    between atoms: C11_15  and  O1_16 
ROOT
HETATM    1  O1  UNL     1      27.615   0.087  53.097  1.00  0.00    -0.348 OA
HETATM    2  C12 UNL     1      28.740  -0.407  53.441  1.00  0.00     0.171 C 
HETATM    3  C13 UNL     1      30.005  -0.963  53.826  1.00  0.00     0.034 C 
ENDROOT
BRANCH   1   4
HETATM    4  C11 UNL     1      26.324   0.250  53.146  1.00  0.00     0.107 A 
HETATM    5  C10 UNL     1      25.377  -0.522  53.792  1.00  0.00     0.072 A 
HETATM    6  C9  UNL     1      24.051  -0.129  53.701  1.00  0.00     0.077 A 
HETATM    7  N3  UNL     1      23.144  -0.896  54.363  1.00  0.00    -0.241 NA
HETATM    8  C16 UNL     1      23.727   0.988  52.988  1.00  0.00     0.075 A 
HETATM    9  C8  UNL     1      21.830  -0.526  54.314  1.00  0.00     0.236 A 
HETATM   10  N2  UNL     1      21.458   0.574  53.620  1.00  0.00    -0.223 NA
HETATM   11  C7  UNL     1      22.398   1.280  52.992  1.00  0.00     0.144 A 
HETATM   12  C15 UNL     1      24.628   1.788  52.325  1.00  0.00     0.121 A 
HETATM   13  C14 UNL     1      25.970   1.407  52.408  1.00  0.00     0.136 A 
HETATM   14  O2  UNL     1      24.286   2.916  51.597  1.00  0.00    -0.345 OA
HETATM   15  O3  UNL     1      26.808   2.265  51.709  1.00  0.00    -0.344 OA
HETATM   16  C18 UNL     1      26.430   2.867  50.458  1.00  0.00     0.202 C 
HETATM   17  C17 UNL     1      25.016   3.367  50.475  1.00  0.00     0.202 C 
BRANCH  11  18
HETATM   18  N1  UNL     1      21.916   2.429  52.332  1.00  0.00    -0.350 N 
HETATM   19  H7  UNL     1      21.874   3.467  52.319  1.00  0.00     0.166 HD
BRANCH  18  20
HETATM   20  C6  UNL     1      21.123   2.502  51.166  1.00  0.00     0.090 C 
HETATM   21  C5  UNL     1      19.945   2.167  50.686  1.00  0.00     0.017 C 
BRANCH  21  22
HETATM   22  C4  UNL     1      18.997   1.466  51.542  1.00  0.00     0.003 C 
HETATM   23  C3  UNL     1      18.905   0.175  51.291  1.00  0.00     0.019 C 
BRANCH  23  24
HETATM   24  C2  UNL     1      17.926  -0.519  52.163  1.00  0.00     0.009 A 
HETATM   25  C1  UNL     1      16.802  -0.948  52.708  1.00  0.00     0.152 A 
HETATM   26 CL1  UNL     1      18.090  -1.730  53.457  1.00  0.00    -0.182 Cl
ENDBRANCH  23  24
ENDBRANCH  21  22
ENDBRANCH  18  20
ENDBRANCH  11  18
ENDBRANCH   1   4
TORSDOF 5
ENDMDL
MODEL 6
REMARK VINA RESULT:      -7.0      2.993      4.951
REMARK  5 active torsions:
REMARK  status: ('A' for Active; 'I' for Inactive)
REMARK    1  A    between atoms: C2_2  and  C3_4 
REMARK    2  A    between atoms: C4_5  and  C5_6 
REMARK    3  A    between atoms: C6_7  and  N1_8 
REMARK    4  A    between atoms: N1_8  and  C7_9 
REMARK    5  A    between atoms: C11_15  and  O1_16 
ROOT
HETATM    1  O1  UNL     1      27.532   0.176  53.657  1.00  0.00    -0.348 OA
HETATM    2  C12 UNL     1      28.676  -0.390  53.672  1.00  0.00     0.171 C 
HETATM    3  C13 UNL     1      29.962  -1.025  53.690  1.00  0.00     0.034 C 
ENDROOT
BRANCH   1   4
HETATM    4  C11 UNL     1      26.404   0.562  53.134  1.00  0.00     0.107 A 
HETATM    5  C10 UNL     1      26.183   1.514  52.158  1.00  0.00     0.072 A 
HETATM    6  C9  UNL     1      24.875   1.739  51.758  1.00  0.00     0.077 A 
HETATM    7  N3  UNL     1      24.689   2.668  50.782  1.00  0.00    -0.241 NA
HETATM    8  C16 UNL     1      23.863   1.023  52.330  1.00  0.00     0.075 A 
HETATM    9  C8  UNL     1      23.415   2.898  50.347  1.00  0.00     0.236 A 
HETATM   10  N2  UNL     1      22.378   2.215  50.883  1.00  0.00    -0.223 NA
HETATM   11  C7  UNL     1      22.630   1.319  51.837  1.00  0.00     0.144 A 
HETATM   12  C15 UNL     1      24.028   0.067  53.305  1.00  0.00     0.121 A 
HETATM   13  C14 UNL     1      25.342  -0.172  53.719  1.00  0.00     0.136 A 
HETATM   14  O2  UNL     1      22.993  -0.647  53.885  1.00  0.00    -0.345 OA
HETATM   15  O3  UNL     1      25.417  -1.145  54.705  1.00  0.00    -0.344 OA
HETATM   16  C18 UNL     1      24.427  -1.275  55.741  1.00  0.00     0.202 C 
HETATM   17  C17 UNL     1      23.030  -1.131  55.211  1.00  0.00     0.202 C 
BRANCH  11  18
HETATM   18  N1  UNL     1      21.490   0.631  52.303  1.00  0.00    -0.350 N 
HETATM   19  H7  UNL     1      20.967   0.282  53.130  1.00  0.00     0.166 HD
BRANCH  18  20
HETATM   20  C6  UNL     1      20.441   0.063  51.548  1.00  0.00     0.090 C 
HETATM   21  C5  UNL     1      19.214   0.292  51.134  1.00  0.00     0.017 C 
BRANCH  21  22
HETATM   22  C4  UNL     1      18.559   1.541  51.498  1.00  0.00     0.003 C 
HETATM   23  C3  UNL     1      17.282   1.590  51.172  1.00  0.00     0.019 C 
BRANCH  23  24
HETATM   24  C2  UNL     1      16.636   2.874  51.538  1.00  0.00     0.009 A 
HETATM   25  C1  UNL     1      16.078   3.858  52.220  1.00  0.00     0.152 A 
HETATM   26 CL1  UNL     1      16.257   4.352  50.621  1.00  0.00    -0.182 Cl
ENDBRANCH  23  24
ENDBRANCH  21  22
ENDBRANCH  18  20
ENDBRANCH  11  18
ENDBRANCH   1   4
TORSDOF 5
ENDMDL
MODEL 7
REMARK VINA RESULT:      -6.9      3.210      5.426
REMARK  5 active torsions:
REMARK  status: ('A' for Active; 'I' for Inactive)
REMARK    1  A    between atoms: C2_2  and  C3_4 
REMARK    2  A    between atoms: C4_5  and  C5_6 
REMARK    3  A    between atoms: C6_7  and  N1_8 
REMARK    4  A    between atoms: N1_8  and  C7_9 
REMARK    5  A    between atoms: C11_15  and  O1_16 
ROOT
HETATM    1  O1  UNL     1      23.714   5.507  49.561  1.00  0.00    -0.348 OA
HETATM    2  C12 UNL     1      23.625   6.529  48.802  1.00  0.00     0.171 C 
HETATM    3  C13 UNL     1      23.526   7.679  47.949  1.00  0.00     0.034 C 
ENDROOT
BRANCH   1   4
HETATM    4  C11 UNL     1      23.266   4.531  50.296  1.00  0.00     0.107 A 
HETATM    5  C10 UNL     1      22.017   4.380  50.868  1.00  0.00     0.072 A 
HETATM    6  C9  UNL     1      21.779   3.232  51.608  1.00  0.00     0.077 A 
HETATM    7  N3  UNL     1      20.535   3.101  52.142  1.00  0.00    -0.241 NA
HETATM    8  C16 UNL     1      22.768   2.302  51.746  1.00  0.00     0.075 A 
HETATM    9  C8  UNL     1      20.258   1.972  52.858  1.00  0.00     0.236 A 
HETATM   10  N2  UNL     1      21.205   1.021  53.024  1.00  0.00    -0.223 NA
HETATM   11  C7  UNL     1      22.404   1.213  52.475  1.00  0.00     0.144 A 
HETATM   12  C15 UNL     1      24.027   2.405  51.201  1.00  0.00     0.121 A 
HETATM   13  C14 UNL     1      24.283   3.556  50.450  1.00  0.00     0.136 A 
HETATM   14  O2  UNL     1      25.026   1.459  51.356  1.00  0.00    -0.345 OA
HETATM   15  O3  UNL     1      25.574   3.580  49.943  1.00  0.00    -0.344 OA
HETATM   16  C18 UNL     1      26.704   3.077  50.678  1.00  0.00     0.202 C 
HETATM   17  C17 UNL     1      26.403   1.776  51.360  1.00  0.00     0.202 C 
BRANCH  11  18
HETATM   18  N1  UNL     1      23.308   0.148  52.670  1.00  0.00    -0.350 N 
HETATM   19  H7  UNL     1      23.958  -0.528  52.223  1.00  0.00     0.166 HD
BRANCH  18  20
HETATM   20  C6  UNL     1      23.685  -0.471  53.882  1.00  0.00     0.090 C 
HETATM   21  C5  UNL     1      24.738  -0.809  54.594  1.00  0.00     0.017 C 
BRANCH  21  22
HETATM   22  C4  UNL     1      26.070  -0.498  54.093  1.00  0.00     0.003 C 
HETATM   23  C3  UNL     1      26.776   0.273  54.895  1.00  0.00     0.019 C 
BRANCH  23  24
HETATM   24  C2  UNL     1      28.123   0.589  54.360  1.00  0.00     0.009 A 
HETATM   25  C1  UNL     1      29.350   0.481  53.881  1.00  0.00     0.152 A 
HETATM   26 CL1  UNL     1      28.917   2.108  53.878  1.00  0.00    -0.182 Cl
ENDBRANCH  23  24
ENDBRANCH  21  22
ENDBRANCH  18  20
ENDBRANCH  11  18
ENDBRANCH   1   4
TORSDOF 5
ENDMDL
MODEL 8
REMARK VINA RESULT:      -6.8      3.518      5.827
REMARK  5 active torsions:
REMARK  status: ('A' for Active; 'I' for Inactive)
REMARK    1  A    between atoms: C2_2  and  C3_4 
REMARK    2  A    between atoms: C4_5  and  C5_6 
REMARK    3  A    between atoms: C6_7  and  N1_8 
REMARK    4  A    between atoms: N1_8  and  C7_9 
REMARK    5  A    between atoms: C11_15  and  O1_16 
ROOT
HETATM    1  O1  UNL     1      25.279  -0.234  53.241  1.00  0.00    -0.348 OA
HETATM    2  C12 UNL     1      26.330  -0.927  53.026  1.00  0.00     0.171 C 
HETATM    3  C13 UNL     1      27.510  -1.705  52.786  1.00  0.00     0.034 C 
ENDROOT
BRANCH   1   4
HETATM    4  C11 UNL     1      24.409   0.707  53.013  1.00  0.00     0.107 A 
HETATM    5  C10 UNL     1      24.630   2.046  52.756  1.00  0.00     0.072 A 
HETATM    6  C9  UNL     1      23.525   2.853  52.532  1.00  0.00     0.077 A 
HETATM    7  N3  UNL     1      23.773   4.162  52.262  1.00  0.00    -0.241 NA
HETATM    8  C16 UNL     1      22.274   2.308  52.572  1.00  0.00     0.075 A 
HETATM    9  C8  UNL     1      22.709   4.981  52.014  1.00  0.00     0.236 A 
HETATM   10  N2  UNL     1      21.450   4.489  52.043  1.00  0.00    -0.223 NA
HETATM   11  C7  UNL     1      21.276   3.196  52.316  1.00  0.00     0.144 A 
HETATM   12  C15 UNL     1      22.000   0.984  52.826  1.00  0.00     0.121 A 
HETATM   13  C14 UNL     1      23.104   0.157  53.052  1.00  0.00     0.136 A 
HETATM   14  O2  UNL     1      20.725   0.444  52.874  1.00  0.00    -0.345 OA
HETATM   15  O3  UNL     1      22.737  -1.158  53.304  1.00  0.00    -0.344 OA
HETATM   16  C18 UNL     1      21.562  -1.502  54.060  1.00  0.00     0.202 C 
HETATM   17  C17 UNL     1      20.379  -0.660  53.683  1.00  0.00     0.202 C 
BRANCH  11  18
HETATM   18  N1  UNL     1      19.932   2.771  52.282  1.00  0.00    -0.350 N 
HETATM   19  H7  UNL     1      19.211   2.144  52.690  1.00  0.00     0.166 HD
BRANCH  18  20
HETATM   20  C6  UNL     1      18.894   3.213  51.432  1.00  0.00     0.090 C 
HETATM   21  C5  UNL     1      18.567   3.330  50.163  1.00  0.00     0.017 C 
BRANCH  21  22
HETATM   22  C4  UNL     1      19.503   2.886  49.140  1.00  0.00     0.003 C 
HETATM   23  C3  UNL     1      20.314   3.833  48.710  1.00  0.00     0.019 C 
BRANCH  23  24
HETATM   24  C2  UNL     1      21.249   3.365  47.658  1.00  0.00     0.009 A 
HETATM   25  C1  UNL     1      21.931   3.253  46.532  1.00  0.00     0.152 A 
HETATM   26 CL1  UNL     1      22.501   2.099  47.617  1.00  0.00    -0.182 Cl
ENDBRANCH  23  24
ENDBRANCH  21  22
ENDBRANCH  18  20
ENDBRANCH  11  18
ENDBRANCH   1   4
TORSDOF 5
ENDMDL
MODEL 9
REMARK VINA RESULT:      -6.6      2.044      2.449
REMARK  5 active torsions:
REMARK  status: ('A' for Active; 'I' for Inactive)
REMARK    1  A    between atoms: C2_2  and  C3_4 
REMARK    2  A    between atoms: C4_5  and  C5_6 
REMARK    3  A    between atoms: C6_7  and  N1_8 
REMARK    4  A    between atoms: N1_8  and  C7_9 
REMARK    5  A    between atoms: C11_15  and  O1_16 
ROOT
HETATM    1  O1  UNL     1      23.497   5.497  48.481  1.00  0.00    -0.348 OA
HETATM    2  C12 UNL     1      22.953   5.863  47.386  1.00  0.00     0.171 C 
HETATM    3  C13 UNL     1      22.341   6.276  46.156  1.00  0.00     0.034 C 
ENDROOT
BRANCH   1   4
HETATM    4  C11 UNL     1      23.950   4.646  49.356  1.00  0.00     0.107 A 
HETATM    5  C10 UNL     1      25.253   4.242  49.576  1.00  0.00     0.072 A 
HETATM    6  C9  UNL     1      25.483   3.321  50.586  1.00  0.00     0.077 A 
HETATM    7  N3  UNL     1      26.776   2.957  50.793  1.00  0.00    -0.241 NA
HETATM    8  C16 UNL     1      24.433   2.849  51.318  1.00  0.00     0.075 A 
HETATM    9  C8  UNL     1      27.042   2.068  51.795  1.00  0.00     0.236 A 
HETATM   10  N2  UNL     1      26.035   1.571  52.549  1.00  0.00    -0.223 NA
HETATM   11  C7  UNL     1      24.789   1.968  52.292  1.00  0.00     0.144 A 
HETATM   12  C15 UNL     1      23.119   3.215  51.138  1.00  0.00     0.121 A 
HETATM   13  C14 UNL     1      22.871   4.145  50.124  1.00  0.00     0.136 A 
HETATM   14  O2  UNL     1      22.059   2.723  51.882  1.00  0.00    -0.345 OA
HETATM   15  O3  UNL     1      21.522   4.454  50.009  1.00  0.00    -0.344 OA
HETATM   16  C18 UNL     1      20.485   3.474  50.194  1.00  0.00     0.202 C 
HETATM   17  C17 UNL     1      20.749   2.585  51.373  1.00  0.00     0.202 C 
BRANCH  11  18
HETATM   18  N1  UNL     1      23.817   1.426  53.158  1.00  0.00    -0.350 N 
HETATM   19  H7  UNL     1      22.930   1.588  53.674  1.00  0.00     0.166 HD
BRANCH  18  20
HETATM   20  C6  UNL     1      23.774   0.135  53.728  1.00  0.00     0.090 C 
HETATM   21  C5  UNL     1      23.015  -0.936  53.822  1.00  0.00     0.017 C 
BRANCH  21  22
HETATM   22  C4  UNL     1      21.724  -0.959  53.149  1.00  0.00     0.003 C 
HETATM   23  C3  UNL     1      20.739  -0.453  53.865  1.00  0.00     0.019 C 
BRANCH  23  24
HETATM   24  C2  UNL     1      19.430  -0.498  53.169  1.00  0.00     0.009 A 
HETATM   25  C1  UNL     1      18.444  -0.278  52.318  1.00  0.00     0.152 A 
HETATM   26 CL1  UNL     1      17.973  -1.498  53.377  1.00  0.00    -0.182 Cl
ENDBRANCH  23  24
ENDBRANCH  21  22
ENDBRANCH  18  20
ENDBRANCH  11  18
ENDBRANCH   1   4
TORSDOF 5
ENDMDL
