MODEL 1
REMARK VINA RESULT:      -7.0      0.000      0.000
REMARK  8 active torsions:
REMARK  status: ('A' for Active; 'I' for Inactive)
REMARK    1  A    between atoms: C2_2  and  C3_3 
REMARK       I    between atoms: C3_3  and  N1_5 
REMARK    2  A    between atoms: N1_5  and  C4_6 
REMARK    3  A    between atoms: N1_5  and  C6_8 
REMARK    4  A    between atoms: C6_8  and  C7_9 
REMARK    5  A    between atoms: C8_10  and  C9_11 
REMARK    6  A    between atoms: C10_12  and  N2_13 
REMARK    7  A    between atoms: N3_15  and  C12_16 
REMARK    8  A    between atoms: C15_19  and  O2_20 
ROOT
HETATM    1  C9  UNL     1      25.840   3.820  50.064  1.00  0.00     0.138 A 
HETATM    2  C10 UNL     1      26.196   4.862  49.641  1.00  0.00     0.190 A 
HETATM    3  C12 UNL     1      25.050   4.747  49.167  1.00  0.00     0.228 A 
HETATM    4  C13 UNL     1      23.682   4.724  48.999  1.00  0.00     0.008 C 
HETATM    5  C14 UNL     1      23.061   5.225  50.135  1.00  0.00     0.088 C 
HETATM    6  C15 UNL     1      23.840   5.921  51.264  1.00  0.00     0.221 C 
HETATM    7  N4  UNL     1      25.354   5.830  50.873  1.00  0.00    -0.366 N 
HETATM    8  H18 UNL     1      25.700   6.611  51.644  1.00  0.00     0.158 HD
ENDROOT
BRANCH   1   9
HETATM    9  C8  UNL     1      26.231   2.678  50.698  1.00  0.00    -0.085 C 
HETATM   10  C7  UNL     1      26.550   1.725  51.205  1.00  0.00    -0.086 C 
BRANCH  10  11
HETATM   11  C6  UNL     1      26.968   0.528  51.864  1.00  0.00     0.220 C 
BRANCH  11  12
HETATM   12  N1  UNL     1      26.824   0.590  53.285  1.00  0.00    -0.342 N 
HETATM   13  C3  UNL     1      28.029   0.523  54.037  1.00  0.00     0.220 C 
HETATM   14  O1  UNL     1      27.954   0.579  55.298  1.00  0.00    -0.273 OA
BRANCH  13  15
HETATM   15  C2  UNL     1      29.392   0.391  53.461  1.00  0.00     0.098 C 
HETATM   16  C1  UNL     1      29.863  -1.025  53.642  1.00  0.00     0.014 C 
ENDBRANCH  13  15
BRANCH  12  17
HETATM   17  C4  UNL     1      25.609   0.714  54.042  1.00  0.00     0.122 C 
HETATM   18  C5  UNL     1      24.667  -0.460  53.868  1.00  0.00     0.026 C 
ENDBRANCH  12  17
ENDBRANCH  11  12
ENDBRANCH  10  11
ENDBRANCH   1   9
BRANCH   2  19
HETATM   19  N2  UNL     1      26.686   5.871  49.018  1.00  0.00    -0.172 N 
HETATM   20  C11 UNL     1      27.113   6.712  48.372  1.00  0.00     0.393 A 
HETATM   21  N3  UNL     1      27.722   5.336  48.991  1.00  0.00     0.053 N 
HETATM   22  H14 UNL     1      28.850   4.966  48.858  1.00  0.00     0.313 HD
ENDBRANCH   2  19
BRANCH   6  23
HETATM   23  O2  UNL     1      23.537   7.251  51.263  1.00  0.00    -0.377 OA
HETATM   24  H17 UNL     1      23.019   7.537  52.064  1.00  0.00     0.212 HD
ENDBRANCH   6  23
TORSDOF 8
ENDMDL
MODEL 2
REMARK VINA RESULT:      -6.9      4.092      7.294
REMARK  8 active torsions:
REMARK  status: ('A' for Active; 'I' for Inactive)
REMARK    1  A    between atoms: C2_2  and  C3_3 
REMARK       I    between atoms: C3_3  and  N1_5 
REMARK    2  A    between atoms: N1_5  and  C4_6 
REMARK    3  A    between atoms: N1_5  and  C6_8 
REMARK    4  A    between atoms: C6_8  and  C7_9 
REMARK    5  A    between atoms: C8_10  and  C9_11 
REMARK    6  A    between atoms: C10_12  and  N2_13 
REMARK    7  A    between atoms: N3_15  and  C12_16 
REMARK    8  A    between atoms: C15_19  and  O2_20 
ROOT
HETATM    1  C9  UNL     1      25.399  -0.311  53.017  1.00  0.00     0.138 A 
HETATM    2  C10 UNL     1      26.512  -0.661  53.196  1.00  0.00     0.190 A 
HETATM    3  C12 UNL     1      26.612   0.081  52.201  1.00  0.00     0.228 A 
HETATM    4  C13 UNL     1      26.694   1.177  51.369  1.00  0.00     0.008 C 
HETATM    5  C14 UNL     1      26.776   2.338  52.127  1.00  0.00     0.088 C 
HETATM    6  C15 UNL     1      26.998   2.316  53.649  1.00  0.00     0.221 C 
HETATM    7  N4  UNL     1      27.003   0.808  54.070  1.00  0.00    -0.366 N 
HETATM    8  H18 UNL     1      27.445   1.001  55.115  1.00  0.00     0.158 HD
ENDROOT
BRANCH   1   9
HETATM    9  C8  UNL     1      24.095  -0.519  53.352  1.00  0.00    -0.085 C 
HETATM   10  C7  UNL     1      23.013  -0.694  53.609  1.00  0.00    -0.086 C 
BRANCH  10  11
HETATM   11  C6  UNL     1      21.646  -0.922  53.958  1.00  0.00     0.220 C 
BRANCH  11  12
HETATM   12  N1  UNL     1      20.730  -0.168  53.162  1.00  0.00    -0.342 N 
HETATM   13  C3  UNL     1      19.401  -0.672  53.095  1.00  0.00     0.220 C 
HETATM   14  O1  UNL     1      18.551  -0.036  52.408  1.00  0.00    -0.273 OA
BRANCH  13  15
HETATM   15  C2  UNL     1      18.916  -1.900  53.775  1.00  0.00     0.098 C 
HETATM   16  C1  UNL     1      17.506  -2.176  53.334  1.00  0.00     0.014 C 
ENDBRANCH  13  15
BRANCH  12  17
HETATM   17  C4  UNL     1      20.988   1.039  52.425  1.00  0.00     0.122 C 
HETATM   18  C5  UNL     1      21.377   0.792  50.981  1.00  0.00     0.026 C 
ENDBRANCH  12  17
ENDBRANCH  11  12
ENDBRANCH  10  11
ENDBRANCH   1   9
BRANCH   2  19
HETATM   19  N2  UNL     1      27.661  -1.228  53.271  1.00  0.00    -0.172 N 
HETATM   20  C11 UNL     1      28.693  -1.718  53.232  1.00  0.00     0.393 A 
HETATM   21  N3  UNL     1      27.188  -2.212  52.861  1.00  0.00     0.053 N 
HETATM   22  H14 UNL     1      26.905  -3.301  52.458  1.00  0.00     0.313 HD
ENDBRANCH   2  19
BRANCH   6  23
HETATM   23  O2  UNL     1      28.249   2.782  53.926  1.00  0.00    -0.377 OA
HETATM   24  H17 UNL     1      28.927   2.060  54.024  1.00  0.00     0.212 HD
ENDBRANCH   6  23
TORSDOF 8
ENDMDL
MODEL 3
REMARK VINA RESULT:      -6.9      1.067      2.419
REMARK  8 active torsions:
REMARK  status: ('A' for Active; 'I' for Inactive)
REMARK    1  A    between atoms: C2_2  and  C3_3 
REMARK       I    between atoms: C3_3  and  N1_5 
REMARK    2  A    between atoms: N1_5  and  C4_6 
REMARK    3  A    between atoms: N1_5  and  C6_8 
REMARK    4  A    between atoms: C6_8  and  C7_9 
REMARK    5  A    between atoms: C8_10  and  C9_11 
REMARK    6  A    between atoms: C10_12  and  N2_13 
REMARK    7  A    between atoms: N3_15  and  C12_16 
REMARK    8  A    between atoms: C15_19  and  O2_20 
ROOT
HETATM    1  C9  UNL     1      25.694   2.961  50.454  1.00  0.00     0.138 A 
HETATM    2  C10 UNL     1      25.940   4.046  50.063  1.00  0.00     0.190 A 
HETATM    3  C12 UNL     1      24.836   3.806  49.538  1.00  0.00     0.228 A 
HETATM    4  C13 UNL     1      23.489   3.625  49.312  1.00  0.00     0.008 C 
HETATM    5  C14 UNL     1      22.766   4.025  50.428  1.00  0.00     0.088 C 
HETATM    6  C15 UNL     1      23.411   4.786  51.599  1.00  0.00     0.221 C 
HETATM    7  N4  UNL     1      24.939   4.882  51.272  1.00  0.00    -0.366 N 
HETATM    8  H18 UNL     1      25.158   5.682  52.069  1.00  0.00     0.158 HD
ENDROOT
BRANCH   1   9
HETATM    9  C8  UNL     1      26.192   1.860  51.086  1.00  0.00    -0.085 C 
HETATM   10  C7  UNL     1      26.622   0.957  51.603  1.00  0.00    -0.086 C 
BRANCH  10  11
HETATM   11  C6  UNL     1      27.147  -0.190  52.273  1.00  0.00     0.220 C 
BRANCH  11  12
HETATM   12  N1  UNL     1      27.111  -0.073  53.697  1.00  0.00    -0.342 N 
HETATM   13  C3  UNL     1      25.881  -0.422  54.320  1.00  0.00     0.220 C 
HETATM   14  O1  UNL     1      25.801  -0.341  55.580  1.00  0.00    -0.273 OA
BRANCH  13  15
HETATM   15  C2  UNL     1      24.661  -0.883  53.609  1.00  0.00     0.098 C 
HETATM   16  C1  UNL     1      23.647   0.227  53.611  1.00  0.00     0.014 C 
ENDBRANCH  13  15
BRANCH  12  17
HETATM   17  C4  UNL     1      28.168   0.351  54.574  1.00  0.00     0.122 C 
HETATM   18  C5  UNL     1      29.532   0.362  53.912  1.00  0.00     0.026 C 
ENDBRANCH  12  17
ENDBRANCH  11  12
ENDBRANCH  10  11
ENDBRANCH   1   9
BRANCH   2  19
HETATM   19  N2  UNL     1      26.331   5.119  49.477  1.00  0.00    -0.172 N 
HETATM   20  C11 UNL     1      26.642   6.032  48.863  1.00  0.00     0.393 A 
HETATM   21  N3  UNL     1      27.277   4.552  49.097  1.00  0.00     0.053 N 
HETATM   22  H14 UNL     1      28.297   4.161  48.614  1.00  0.00     0.313 HD
ENDBRANCH   2  19
BRANCH   6  23
HETATM   23  O2  UNL     1      22.952   6.069  51.607  1.00  0.00    -0.377 OA
HETATM   24  H17 UNL     1      23.557   6.702  52.080  1.00  0.00     0.212 HD
ENDBRANCH   6  23
TORSDOF 8
ENDMDL
MODEL 4
REMARK VINA RESULT:      -6.8      1.780      7.240
REMARK  8 active torsions:
REMARK  status: ('A' for Active; 'I' for Inactive)
REMARK    1  A    between atoms: C2_2  and  C3_3 
REMARK       I    between atoms: C3_3  and  N1_5 
REMARK    2  A    between atoms: N1_5  and  C4_6 
REMARK    3  A    between atoms: N1_5  and  C6_8 
REMARK    4  A    between atoms: C6_8  and  C7_9 
REMARK    5  A    between atoms: C8_10  and  C9_11 
REMARK    6  A    between atoms: C10_12  and  N2_13 
REMARK    7  A    between atoms: N3_15  and  C12_16 
REMARK    8  A    between atoms: C15_19  and  O2_20 
ROOT
HETATM    1  C9  UNL     1      25.072   0.511  52.589  1.00  0.00     0.138 A 
HETATM    2  C10 UNL     1      24.825  -0.007  53.620  1.00  0.00     0.190 A 
HETATM    3  C12 UNL     1      25.595  -0.822  53.078  1.00  0.00     0.228 A 
HETATM    4  C13 UNL     1      26.712  -1.469  52.594  1.00  0.00     0.008 C 
HETATM    5  C14 UNL     1      27.859  -0.813  53.023  1.00  0.00     0.088 C 
HETATM    6  C15 UNL     1      27.824   0.300  54.084  1.00  0.00     0.221 C 
HETATM    7  N4  UNL     1      26.315   0.532  54.429  1.00  0.00    -0.366 N 
HETATM    8  H18 UNL     1      26.526   1.144  55.380  1.00  0.00     0.158 HD
ENDROOT
BRANCH   1   9
HETATM    9  C8  UNL     1      24.734   1.517  51.734  1.00  0.00    -0.085 C 
HETATM   10  C7  UNL     1      24.457   2.361  51.042  1.00  0.00    -0.086 C 
BRANCH  10  11
HETATM   11  C6  UNL     1      24.113   3.418  50.145  1.00  0.00     0.220 C 
BRANCH  11  12
HETATM   12  N1  UNL     1      24.285   4.717  50.715  1.00  0.00    -0.342 N 
HETATM   13  C3  UNL     1      25.286   5.532  50.117  1.00  0.00     0.220 C 
HETATM   14  O1  UNL     1      25.473   6.694  50.582  1.00  0.00    -0.273 OA
BRANCH  13  15
HETATM   15  C2  UNL     1      26.145   5.133  48.973  1.00  0.00     0.098 C 
HETATM   16  C1  UNL     1      27.029   6.290  48.600  1.00  0.00     0.014 C 
ENDBRANCH  13  15
BRANCH  12  17
HETATM   17  C4  UNL     1      23.568   5.299  51.816  1.00  0.00     0.122 C 
HETATM   18  C5  UNL     1      22.072   5.373  51.589  1.00  0.00     0.026 C 
ENDBRANCH  12  17
ENDBRANCH  11  12
ENDBRANCH  10  11
ENDBRANCH   1   9
BRANCH   2  19
HETATM   19  N2  UNL     1      24.368  -0.646  54.635  1.00  0.00    -0.172 N 
HETATM   20  C11 UNL     1      23.977  -1.306  55.483  1.00  0.00     0.393 A 
HETATM   21  N3  UNL     1      23.343  -0.754  54.089  1.00  0.00     0.053 N 
HETATM   22  H14 UNL     1      22.231  -0.973  53.709  1.00  0.00     0.313 HD
ENDBRANCH   2  19
BRANCH   6  23
HETATM   23  O2  UNL     1      28.401  -0.157  55.232  1.00  0.00    -0.377 OA
HETATM   24  H17 UNL     1      29.214  -0.709  55.072  1.00  0.00     0.212 HD
ENDBRANCH   6  23
TORSDOF 8
ENDMDL
MODEL 5
REMARK VINA RESULT:      -6.8      1.227      1.385
REMARK  8 active torsions:
REMARK  status: ('A' for Active; 'I' for Inactive)
REMARK    1  A    between atoms: C2_2  and  C3_3 
REMARK       I    between atoms: C3_3  and  N1_5 
REMARK    2  A    between atoms: N1_5  and  C4_6 
REMARK    3  A    between atoms: N1_5  and  C6_8 
REMARK    4  A    between atoms: C6_8  and  C7_9 
REMARK    5  A    between atoms: C8_10  and  C9_11 
REMARK    6  A    between atoms: C10_12  and  N2_13 
REMARK    7  A    between atoms: N3_15  and  C12_16 
REMARK    8  A    between atoms: C15_19  and  O2_20 
ROOT
HETATM    1  C9  UNL     1      26.145   4.515  49.668  1.00  0.00     0.138 A 
HETATM    2  C10 UNL     1      26.732   5.441  49.234  1.00  0.00     0.190 A 
HETATM    3  C12 UNL     1      25.596   5.579  48.742  1.00  0.00     0.228 A 
HETATM    4  C13 UNL     1      24.260   5.862  48.553  1.00  0.00     0.008 C 
HETATM    5  C14 UNL     1      23.754   6.513  49.671  1.00  0.00     0.088 C 
HETATM    6  C15 UNL     1      24.658   7.037  50.800  1.00  0.00     0.221 C 
HETATM    7  N4  UNL     1      26.116   6.599  50.435  1.00  0.00    -0.366 N 
HETATM    8  H18 UNL     1      26.620   7.296  51.198  1.00  0.00     0.158 HD
ENDROOT
BRANCH   1   9
HETATM    9  C8  UNL     1      26.260   3.327  50.327  1.00  0.00    -0.085 C 
HETATM   10  C7  UNL     1      26.336   2.342  50.867  1.00  0.00    -0.086 C 
BRANCH  10  11
HETATM   11  C6  UNL     1      26.457   1.092  51.548  1.00  0.00     0.220 C 
BRANCH  11  12
HETATM   12  N1  UNL     1      25.987   1.140  52.897  1.00  0.00    -0.342 N 
HETATM   13  C3  UNL     1      26.989   1.130  53.907  1.00  0.00     0.220 C 
HETATM   14  O1  UNL     1      26.624   1.177  55.117  1.00  0.00    -0.273 OA
BRANCH  13  15
HETATM   15  C2  UNL     1      28.453   1.068  53.660  1.00  0.00     0.098 C 
HETATM   16  C1  UNL     1      29.023   2.456  53.763  1.00  0.00     0.014 C 
ENDBRANCH  13  15
BRANCH  12  17
HETATM   17  C4  UNL     1      24.626   1.201  53.355  1.00  0.00     0.122 C 
HETATM   18  C5  UNL     1      23.786   0.024  52.905  1.00  0.00     0.026 C 
ENDBRANCH  12  17
ENDBRANCH  11  12
ENDBRANCH  10  11
ENDBRANCH   1   9
BRANCH   2  19
HETATM   19  N2  UNL     1      27.445   6.301  48.601  1.00  0.00    -0.172 N 
HETATM   20  C11 UNL     1      28.069   7.005  47.951  1.00  0.00     0.393 A 
HETATM   21  N3  UNL     1      28.369   5.598  48.711  1.00  0.00     0.053 N 
HETATM   22  H14 UNL     1      29.422   5.033  48.714  1.00  0.00     0.313 HD
ENDBRANCH   2  19
BRANCH   6  23
HETATM   23  O2  UNL     1      24.663   8.400  50.773  1.00  0.00    -0.377 OA
HETATM   24  H17 UNL     1      24.259   8.780  49.946  1.00  0.00     0.212 HD
ENDBRANCH   6  23
TORSDOF 8
ENDMDL
MODEL 6
REMARK VINA RESULT:      -6.7      1.793      6.818
REMARK  8 active torsions:
REMARK  status: ('A' for Active; 'I' for Inactive)
REMARK    1  A    between atoms: C2_2  and  C3_3 
REMARK       I    between atoms: C3_3  and  N1_5 
REMARK    2  A    between atoms: N1_5  and  C4_6 
REMARK    3  A    between atoms: N1_5  and  C6_8 
REMARK    4  A    between atoms: C6_8  and  C7_9 
REMARK    5  A    between atoms: C8_10  and  C9_11 
REMARK    6  A    between atoms: C10_12  and  N2_13 
REMARK    7  A    between atoms: N3_15  and  C12_16 
REMARK    8  A    between atoms: C15_19  and  O2_20 
ROOT
HETATM    1  C9  UNL     1      26.588   1.645  52.435  1.00  0.00     0.138 A 
HETATM    2  C10 UNL     1      27.557   1.388  53.058  1.00  0.00     0.190 A 
HETATM    3  C12 UNL     1      26.641   0.925  53.766  1.00  0.00     0.228 A 
HETATM    4  C13 UNL     1      25.642   0.132  54.285  1.00  0.00     0.008 C 
HETATM    5  C14 UNL     1      25.585  -1.069  53.590  1.00  0.00     0.088 C 
HETATM    6  C15 UNL     1      26.666  -1.490  52.580  1.00  0.00     0.221 C 
HETATM    7  N4  UNL     1      27.671  -0.293  52.489  1.00  0.00    -0.366 N 
HETATM    8  H18 UNL     1      28.490  -0.895  51.949  1.00  0.00     0.158 HD
ENDROOT
BRANCH   1   9
HETATM    9  C8  UNL     1      26.091   2.356  51.384  1.00  0.00    -0.085 C 
HETATM   10  C7  UNL     1      25.691   2.960  50.522  1.00  0.00    -0.086 C 
BRANCH  10  11
HETATM   11  C6  UNL     1      25.180   3.704  49.415  1.00  0.00     0.220 C 
BRANCH  11  12
HETATM   12  N1  UNL     1      25.284   5.119  49.594  1.00  0.00    -0.342 N 
HETATM   13  C3  UNL     1      26.508   5.710  49.174  1.00  0.00     0.220 C 
HETATM   14  O1  UNL     1      26.646   6.961  49.305  1.00  0.00    -0.273 OA
BRANCH  13  15
HETATM   15  C2  UNL     1      27.656   4.977  48.583  1.00  0.00     0.098 C 
HETATM   16  C1  UNL     1      28.692   5.971  48.137  1.00  0.00     0.014 C 
ENDBRANCH  13  15
BRANCH  12  17
HETATM   17  C4  UNL     1      24.302   6.012  50.143  1.00  0.00     0.122 C 
HETATM   18  C5  UNL     1      22.975   5.343  50.438  1.00  0.00     0.026 C 
ENDBRANCH  12  17
ENDBRANCH  11  12
ENDBRANCH  10  11
ENDBRANCH   1   9
BRANCH   2  19
HETATM   19  N2  UNL     1      28.591   1.323  53.816  1.00  0.00    -0.172 N 
HETATM   20  C11 UNL     1      29.445   1.270  54.574  1.00  0.00     0.393 A 
HETATM   21  N3  UNL     1      28.522   2.475  53.987  1.00  0.00     0.053 N 
HETATM   22  H14 UNL     1      28.627   3.626  54.289  1.00  0.00     0.313 HD
ENDBRANCH   2  19
BRANCH   6  23
HETATM   23  O2  UNL     1      27.378  -2.533  53.094  1.00  0.00    -0.377 OA
HETATM   24  H17 UNL     1      28.288  -2.275  53.405  1.00  0.00     0.212 HD
ENDBRANCH   6  23
TORSDOF 8
ENDMDL
MODEL 7
REMARK VINA RESULT:      -6.5      2.457      7.457
REMARK  8 active torsions:
REMARK  status: ('A' for Active; 'I' for Inactive)
REMARK    1  A    between atoms: C2_2  and  C3_3 
REMARK       I    between atoms: C3_3  and  N1_5 
REMARK    2  A    between atoms: N1_5  and  C4_6 
REMARK    3  A    between atoms: N1_5  and  C6_8 
REMARK    4  A    between atoms: C6_8  and  C7_9 
REMARK    5  A    between atoms: C8_10  and  C9_11 
REMARK    6  A    between atoms: C10_12  and  N2_13 
REMARK    7  A    between atoms: N3_15  and  C12_16 
REMARK    8  A    between atoms: C15_19  and  O2_20 
ROOT
HETATM    1  C9  UNL     1      25.126   0.665  52.426  1.00  0.00     0.138 A 
HETATM    2  C10 UNL     1      24.791   0.122  53.418  1.00  0.00     0.190 A 
HETATM    3  C12 UNL     1      25.572  -0.700  52.902  1.00  0.00     0.228 A 
HETATM    4  C13 UNL     1      26.700  -1.367  52.474  1.00  0.00     0.008 C 
HETATM    5  C14 UNL     1      27.833  -0.764  53.005  1.00  0.00     0.088 C 
HETATM    6  C15 UNL     1      27.758   0.313  54.100  1.00  0.00     0.221 C 
HETATM    7  N4  UNL     1      26.236   0.583  54.348  1.00  0.00    -0.366 N 
HETATM    8  H18 UNL     1      26.398   1.156  55.332  1.00  0.00     0.158 HD
ENDROOT
BRANCH   1   9
HETATM    9  C8  UNL     1      24.880   1.710  51.586  1.00  0.00    -0.085 C 
HETATM   10  C7  UNL     1      24.682   2.562  50.877  1.00  0.00    -0.086 C 
BRANCH  10  11
HETATM   11  C6  UNL     1      24.414   3.653  49.994  1.00  0.00     0.220 C 
BRANCH  11  12
HETATM   12  N1  UNL     1      23.078   4.148  50.102  1.00  0.00    -0.342 N 
HETATM   13  C3  UNL     1      22.132   3.588  49.200  1.00  0.00     0.220 C 
HETATM   14  O1  UNL     1      20.933   3.989  49.260  1.00  0.00    -0.273 OA
BRANCH  13  15
HETATM   15  C2  UNL     1      22.432   2.555  48.176  1.00  0.00     0.098 C 
HETATM   16  C1  UNL     1      21.674   1.300  48.513  1.00  0.00     0.014 C 
ENDBRANCH  13  15
BRANCH  12  17
HETATM   17  C4  UNL     1      22.576   5.139  51.014  1.00  0.00     0.122 C 
HETATM   18  C5  UNL     1      22.214   4.579  52.374  1.00  0.00     0.026 C 
ENDBRANCH  12  17
ENDBRANCH  11  12
ENDBRANCH  10  11
ENDBRANCH   1   9
BRANCH   2  19
HETATM   19  N2  UNL     1      24.244  -0.535  54.375  1.00  0.00    -0.172 N 
HETATM   20  C11 UNL     1      23.785  -1.210  55.176  1.00  0.00     0.393 A 
HETATM   21  N3  UNL     1      23.305  -0.707  53.704  1.00  0.00     0.053 N 
HETATM   22  H14 UNL     1      22.266  -0.992  53.188  1.00  0.00     0.313 HD
ENDBRANCH   2  19
BRANCH   6  23
HETATM   23  O2  UNL     1      28.238  -0.201  55.268  1.00  0.00    -0.377 OA
HETATM   24  H17 UNL     1      28.882  -0.948  55.135  1.00  0.00     0.212 HD
ENDBRANCH   6  23
TORSDOF 8
ENDMDL
MODEL 8
REMARK VINA RESULT:      -6.5      1.939      3.143
REMARK  8 active torsions:
REMARK  status: ('A' for Active; 'I' for Inactive)
REMARK    1  A    between atoms: C2_2  and  C3_3 
REMARK       I    between atoms: C3_3  and  N1_5 
REMARK    2  A    between atoms: N1_5  and  C4_6 
REMARK    3  A    between atoms: N1_5  and  C6_8 
REMARK    4  A    between atoms: C6_8  and  C7_9 
REMARK    5  A    between atoms: C8_10  and  C9_11 
REMARK    6  A    between atoms: C10_12  and  N2_13 
REMARK    7  A    between atoms: N3_15  and  C12_16 
REMARK    8  A    between atoms: C15_19  and  O2_20 
ROOT
HETATM    1  C9  UNL     1      24.790   4.287  49.828  1.00  0.00     0.138 A 
HETATM    2  C10 UNL     1      25.770   4.857  49.501  1.00  0.00     0.190 A 
HETATM    3  C12 UNL     1      24.881   5.436  48.848  1.00  0.00     0.228 A 
HETATM    4  C13 UNL     1      23.833   6.246  48.466  1.00  0.00     0.008 C 
HETATM    5  C14 UNL     1      23.498   7.103  49.506  1.00  0.00     0.088 C 
HETATM    6  C15 UNL     1      24.368   7.253  50.765  1.00  0.00     0.221 C 
HETATM    7  N4  UNL     1      25.538   6.224  50.615  1.00  0.00    -0.366 N 
HETATM    8  H18 UNL     1      26.177   6.680  51.456  1.00  0.00     0.158 HD
ENDROOT
BRANCH   1   9
HETATM    9  C8  UNL     1      24.296   3.195  50.477  1.00  0.00    -0.085 C 
HETATM   10  C7  UNL     1      23.892   2.282  50.998  1.00  0.00    -0.086 C 
BRANCH  10  11
HETATM   11  C6  UNL     1      23.384   1.134  51.680  1.00  0.00     0.220 C 
BRANCH  11  12
HETATM   12  N1  UNL     1      24.277   0.634  52.679  1.00  0.00    -0.342 N 
HETATM   13  C3  UNL     1      23.728  -0.312  53.587  1.00  0.00     0.220 C 
HETATM   14  O1  UNL     1      24.480  -0.789  54.486  1.00  0.00    -0.273 OA
BRANCH  13  15
HETATM   15  C2  UNL     1      22.325  -0.800  53.572  1.00  0.00     0.098 C 
HETATM   16  C1  UNL     1      22.032  -1.480  54.880  1.00  0.00     0.014 C 
ENDBRANCH  13  15
BRANCH  12  17
HETATM   17  C4  UNL     1      25.660   0.971  52.872  1.00  0.00     0.122 C 
HETATM   18  C5  UNL     1      26.609   0.115  52.058  1.00  0.00     0.026 C 
ENDBRANCH  12  17
ENDBRANCH  11  12
ENDBRANCH  10  11
ENDBRANCH   1   9
BRANCH   2  19
HETATM   19  N2  UNL     1      26.861   5.305  48.996  1.00  0.00    -0.172 N 
HETATM   20  C11 UNL     1      27.797   5.671  48.450  1.00  0.00     0.393 A 
HETATM   21  N3  UNL     1      27.274   4.215  48.952  1.00  0.00     0.053 N 
HETATM   22  H14 UNL     1      27.873   3.189  48.821  1.00  0.00     0.313 HD
ENDBRANCH   2  19
BRANCH   6  23
HETATM   23  O2  UNL     1      24.954   8.484  50.761  1.00  0.00    -0.377 OA
HETATM   24  H17 UNL     1      24.302   9.231  50.850  1.00  0.00     0.212 HD
ENDBRANCH   6  23
TORSDOF 8
ENDMDL
MODEL 9
REMARK VINA RESULT:      -6.2      2.738      4.535
REMARK  8 active torsions:
REMARK  status: ('A' for Active; 'I' for Inactive)
REMARK    1  A    between atoms: C2_2  and  C3_3 
REMARK       I    between atoms: C3_3  and  N1_5 
REMARK    2  A    between atoms: N1_5  and  C4_6 
REMARK    3  A    between atoms: N1_5  and  C6_8 
REMARK    4  A    between atoms: C6_8  and  C7_9 
REMARK    5  A    between atoms: C8_10  and  C9_11 
REMARK    6  A    between atoms: C10_12  and  N2_13 
REMARK    7  A    between atoms: N3_15  and  C12_16 
REMARK    8  A    between atoms: C15_19  and  O2_20 
ROOT
HETATM    1  C9  UNL     1      28.071   6.550  48.231  1.00  0.00     0.138 A 
HETATM    2  C10 UNL     1      29.057   7.183  48.096  1.00  0.00     0.190 A 
HETATM    3  C12 UNL     1      28.217   7.839  47.452  1.00  0.00     0.228 A 
HETATM    4  C13 UNL     1      27.183   8.677  47.093  1.00  0.00     0.008 C 
HETATM    5  C14 UNL     1      26.718   9.356  48.212  1.00  0.00     0.088 C 
HETATM    6  C15 UNL     1      27.455   9.326  49.561  1.00  0.00     0.221 C 
HETATM    7  N4  UNL     1      28.670   8.356  49.376  1.00  0.00    -0.366 N 
HETATM    8  H18 UNL     1      29.207   8.689  50.338  1.00  0.00     0.158 HD
ENDROOT
BRANCH   1   9
HETATM    9  C8  UNL     1      27.555   5.361  48.652  1.00  0.00    -0.085 C 
HETATM   10  C7  UNL     1      27.143   4.378  49.013  1.00  0.00    -0.086 C 
BRANCH  10  11
HETATM   11  C6  UNL     1      26.598   3.136  49.463  1.00  0.00     0.220 C 
BRANCH  11  12
HETATM   12  N1  UNL     1      25.568   3.297  50.441  1.00  0.00    -0.342 N 
HETATM   13  C3  UNL     1      25.746   2.580  51.657  1.00  0.00     0.220 C 
HETATM   14  O1  UNL     1      24.864   2.695  52.557  1.00  0.00    -0.273 OA
BRANCH  13  15
HETATM   15  C2  UNL     1      26.897   1.695  51.969  1.00  0.00     0.098 C 
HETATM   16  C1  UNL     1      26.414   0.272  52.030  1.00  0.00     0.014 C 
ENDBRANCH  13  15
BRANCH  12  17
HETATM   17  C4  UNL     1      24.378   4.097  50.344  1.00  0.00     0.122 C 
HETATM   18  C5  UNL     1      23.346   3.530  49.391  1.00  0.00     0.026 C 
ENDBRANCH  12  17
ENDBRANCH  11  12
ENDBRANCH  10  11
ENDBRANCH   1   9
BRANCH   2  19
HETATM   19  N2  UNL     1      30.176   7.726  47.779  1.00  0.00    -0.172 N 
HETATM   20  C11 UNL     1      31.129   8.235  47.403  1.00  0.00     0.393 A 
HETATM   21  N3  UNL     1      30.437   6.786  47.139  1.00  0.00     0.053 N 
HETATM   22  H14 UNL     1      30.887   5.929  46.438  1.00  0.00     0.313 HD
ENDBRANCH   2  19
BRANCH   6  23
HETATM   23  O2  UNL     1      27.995  10.554  49.805  1.00  0.00    -0.377 OA
HETATM   24  H17 UNL     1      28.275  10.681  50.752  1.00  0.00     0.212 HD
ENDBRANCH   6  23
TORSDOF 8
ENDMDL
