MODEL 1
REMARK VINA RESULT:      -8.3      0.000      0.000
REMARK  7 active torsions:
REMARK  status: ('A' for Active; 'I' for Inactive)
REMARK    1  A    between atoms: N1_1  and  C1_2 
REMARK    2  A    between atoms: C1_2  and  C12_20 
REMARK    3  A    between atoms: C2_3  and  P1_4 
REMARK    4  A    between atoms: C4_7  and  N3_8 
REMARK    5  A    between atoms: C5_10  and  N5_11 
REMARK    6  A    between atoms: N5_11  and  C6_12 
REMARK    7  A    between atoms: C12_20  and  C13_21 
ROOT
HETATM    1  P1  UNL     1      26.668   1.223  52.103  1.00  0.00    -0.029 P 
HETATM    2  C3  UNL     1      27.834   1.583  53.161  1.00  0.00     0.109 C 
HETATM    3  N2  UNL     1      28.514   0.611  53.610  1.00  0.00    -0.061 NA
HETATM    4  C4  UNL     1      28.208  -0.757  53.428  1.00  0.00     0.718 C 
HETATM    5  N4  UNL     1      27.076  -1.188  53.016  1.00  0.00    -0.075 NA
HETATM    6  C5  UNL     1      25.959  -0.354  52.682  1.00  0.00     0.255 C 
HETATM    7  H4  UNL     1      27.313   0.996  50.878  1.00  0.00     0.067 HD
ENDROOT
BRANCH   1   8
HETATM    8  C2  UNL     1      25.453   2.518  52.030  1.00  0.00     0.034 C 
HETATM    9  C1  UNL     1      25.397   3.288  50.931  1.00  0.00     0.007 C 
BRANCH   9  10
HETATM   10  N1  UNL     1      26.387   2.862  50.017  1.00  0.00    -0.402 N 
HETATM   11  H1  UNL     1      27.320   2.854  50.483  1.00  0.00     0.156 HD
HETATM   12  H2  UNL     1      26.462   2.555  49.019  1.00  0.00     0.156 HD
ENDBRANCH   9  10
BRANCH   9  13
HETATM   13  C12 UNL     1      24.413   4.373  50.818  1.00  0.00     0.097 C 
BRANCH  13  14
HETATM   14  C13 UNL     1      23.001   3.923  50.926  1.00  0.00    -0.031 A 
HETATM   15  C14 UNL     1      22.307   4.195  52.108  1.00  0.00     0.011 A 
HETATM   16  C15 UNL     1      20.977   3.838  52.361  1.00  0.00     0.024 A 
HETATM   17  C16 UNL     1      20.337   3.174  51.354  1.00  0.00     0.035 A 
HETATM   18 CL2  UNL     1      18.661   2.724  51.673  1.00  0.00    -0.084 Cl
HETATM   19  C17 UNL     1      20.982   2.886  50.172  1.00  0.00     0.048 A 
HETATM   20  C18 UNL     1      22.295   3.253  49.953  1.00  0.00     0.042 A 
HETATM   21 CL3  UNL     1      23.131   2.897  48.463  1.00  0.00    -0.084 Cl
ENDBRANCH  13  14
ENDBRANCH   9  13
ENDBRANCH   1   8
BRANCH   6  22
HETATM   22  N5  UNL     1      25.037  -0.197  53.762  1.00  0.00    -0.361 N 
HETATM   23  H8  UNL     1      25.466   0.078  54.674  1.00  0.00     0.162 HD
BRANCH  22  24
HETATM   24  C6  UNL     1      23.630  -0.374  53.716  1.00  0.00     0.069 A 
HETATM   25  C7  UNL     1      22.987   0.133  52.607  1.00  0.00     0.034 A 
HETATM   26  C8  UNL     1      21.611  -0.002  52.486  1.00  0.00     0.026 A 
HETATM   27  C9  UNL     1      20.939  -0.655  53.511  1.00  0.00     0.037 A 
HETATM   28 CL1  UNL     1      19.191  -0.867  53.434  1.00  0.00    -0.084 Cl
HETATM   29  C10 UNL     1      21.575  -1.167  54.629  1.00  0.00     0.068 A 
HETATM   30  C11 UNL     1      22.949  -1.021  54.730  1.00  0.00     0.144 A 
HETATM   31  F1  UNL     1      23.645  -1.495  55.794  1.00  0.00    -0.204 F 
ENDBRANCH  22  24
ENDBRANCH   6  22
BRANCH   4  32
HETATM   32  N3  UNL     1      29.125  -1.826  53.679  1.00  0.00    -0.231 N 
HETATM   33  H5  UNL     1      30.188  -1.863  53.703  1.00  0.00     0.174 HD
HETATM   34  H6  UNL     1      28.547  -2.664  53.859  1.00  0.00     0.174 HD
ENDBRANCH   4  32
TORSDOF 7
ENDMDL
MODEL 2
REMARK VINA RESULT:      -8.1      2.186      4.785
REMARK  7 active torsions:
REMARK  status: ('A' for Active; 'I' for Inactive)
REMARK    1  A    between atoms: N1_1  and  C1_2 
REMARK    2  A    between atoms: C1_2  and  C12_20 
REMARK    3  A    between atoms: C2_3  and  P1_4 
REMARK    4  A    between atoms: C4_7  and  N3_8 
REMARK    5  A    between atoms: C5_10  and  N5_11 
REMARK    6  A    between atoms: N5_11  and  C6_12 
REMARK    7  A    between atoms: C12_20  and  C13_21 
ROOT
HETATM    1  P1  UNL     1      26.146   0.576  53.940  1.00  0.00    -0.029 P 
HETATM    2  C3  UNL     1      27.445  -0.321  53.596  1.00  0.00     0.109 C 
HETATM    3  N2  UNL     1      28.576   0.202  53.832  1.00  0.00    -0.061 NA
HETATM    4  C4  UNL     1      28.798   1.557  54.168  1.00  0.00     0.718 C 
HETATM    5  N4  UNL     1      27.927   2.483  54.022  1.00  0.00    -0.075 NA
HETATM    6  C5  UNL     1      26.607   2.284  53.499  1.00  0.00     0.255 C 
HETATM    7  H4  UNL     1      25.985   0.504  55.332  1.00  0.00     0.067 HD
ENDROOT
BRANCH   1   8
HETATM    8  C2  UNL     1      24.725   0.009  53.036  1.00  0.00     0.034 C 
HETATM    9  C1  UNL     1      23.801  -0.722  53.680  1.00  0.00     0.007 C 
BRANCH   9  10
HETATM   10  N1  UNL     1      24.197  -0.885  55.027  1.00  0.00    -0.402 N 
HETATM   11  H1  UNL     1      23.472  -0.482  55.660  1.00  0.00     0.156 HD
HETATM   12  H2  UNL     1      24.993  -1.286  55.575  1.00  0.00     0.156 HD
ENDBRANCH   9  10
BRANCH   9  13
HETATM   13  C12 UNL     1      22.606  -1.216  52.982  1.00  0.00     0.097 C 
BRANCH  13  14
HETATM   14  C13 UNL     1      21.703  -0.142  52.493  1.00  0.00    -0.031 A 
HETATM   15  C14 UNL     1      21.716   0.166  51.130  1.00  0.00     0.011 A 
HETATM   16  C15 UNL     1      20.926   1.148  50.520  1.00  0.00     0.024 A 
HETATM   17  C16 UNL     1      20.089   1.838  51.349  1.00  0.00     0.035 A 
HETATM   18 CL2  UNL     1      19.094   3.075  50.579  1.00  0.00    -0.084 Cl
HETATM   19  C17 UNL     1      20.043   1.567  52.697  1.00  0.00     0.048 A 
HETATM   20  C18 UNL     1      20.835   0.592  53.269  1.00  0.00     0.042 A 
HETATM   21 CL3  UNL     1      20.792   0.232  54.977  1.00  0.00    -0.084 Cl
ENDBRANCH  13  14
ENDBRANCH   9  13
ENDBRANCH   1   8
BRANCH   6  22
HETATM   22  N5  UNL     1      26.516   2.550  52.099  1.00  0.00    -0.361 N 
HETATM   23  H8  UNL     1      27.375   2.327  51.548  1.00  0.00     0.162 HD
BRANCH  22  24
HETATM   24  C6  UNL     1      25.397   3.076  51.400  1.00  0.00     0.069 A 
HETATM   25  C7  UNL     1      24.305   3.420  52.168  1.00  0.00     0.034 A 
HETATM   26  C8  UNL     1      23.173   3.944  51.560  1.00  0.00     0.026 A 
HETATM   27  C9  UNL     1      23.200   4.097  50.180  1.00  0.00     0.037 A 
HETATM   28 CL1  UNL     1      21.801   4.754  49.331  1.00  0.00    -0.084 Cl
HETATM   29  C10 UNL     1      24.291   3.755  49.400  1.00  0.00     0.068 A 
HETATM   30  C11 UNL     1      25.410   3.233  50.027  1.00  0.00     0.144 A 
HETATM   31  F1  UNL     1      26.520   2.873  49.332  1.00  0.00    -0.204 F 
ENDBRANCH  22  24
ENDBRANCH   6  22
BRANCH   4  32
HETATM   32  N3  UNL     1      30.021   2.060  54.714  1.00  0.00    -0.231 N 
HETATM   33  H5  UNL     1      31.000   1.647  54.769  1.00  0.00     0.174 HD
HETATM   34  H6  UNL     1      29.803   2.996  55.095  1.00  0.00     0.174 HD
ENDBRANCH   4  32
TORSDOF 7
ENDMDL
MODEL 3
REMARK VINA RESULT:      -8.1      1.119      1.482
REMARK  7 active torsions:
REMARK  status: ('A' for Active; 'I' for Inactive)
REMARK    1  A    between atoms: N1_1  and  C1_2 
REMARK    2  A    between atoms: C1_2  and  C12_20 
REMARK    3  A    between atoms: C2_3  and  P1_4 
REMARK    4  A    between atoms: C4_7  and  N3_8 
REMARK    5  A    between atoms: C5_10  and  N5_11 
REMARK    6  A    between atoms: N5_11  and  C6_12 
REMARK    7  A    between atoms: C12_20  and  C13_21 
ROOT
HETATM    1  P1  UNL     1      26.668   1.326  52.043  1.00  0.00    -0.029 P 
HETATM    2  C3  UNL     1      27.740   1.979  53.061  1.00  0.00     0.109 C 
HETATM    3  N2  UNL     1      28.480   1.172  53.701  1.00  0.00    -0.061 NA
HETATM    4  C4  UNL     1      28.309  -0.229  53.755  1.00  0.00     0.718 C 
HETATM    5  N4  UNL     1      27.244  -0.835  53.387  1.00  0.00    -0.075 NA
HETATM    6  C5  UNL     1      26.075  -0.186  52.869  1.00  0.00     0.255 C 
HETATM    7  H4  UNL     1      27.395   0.954  50.902  1.00  0.00     0.067 HD
ENDROOT
BRANCH   1   8
HETATM    8  C2  UNL     1      25.347   2.464  51.696  1.00  0.00     0.034 C 
HETATM    9  C1  UNL     1      25.352   3.118  50.523  1.00  0.00     0.007 C 
BRANCH   9  10
HETATM   10  N1  UNL     1      26.487   2.725  49.778  1.00  0.00    -0.402 N 
HETATM   11  H1  UNL     1      26.858   1.823  50.148  1.00  0.00     0.156 HD
HETATM   12  H2  UNL     1      27.062   3.067  48.973  1.00  0.00     0.156 HD
ENDBRANCH   9  10
BRANCH   9  13
HETATM   13  C12 UNL     1      24.285   4.070  50.184  1.00  0.00     0.097 C 
BRANCH  13  14
HETATM   14  C13 UNL     1      22.926   3.470  50.152  1.00  0.00    -0.031 A 
HETATM   15  C14 UNL     1      22.645   2.515  49.171  1.00  0.00     0.011 A 
HETATM   16  C15 UNL     1      21.417   1.861  49.013  1.00  0.00     0.024 A 
HETATM   17  C16 UNL     1      20.440   2.207  49.901  1.00  0.00     0.035 A 
HETATM   18 CL2  UNL     1      18.893   1.383  49.701  1.00  0.00    -0.084 Cl
HETATM   19  C17 UNL     1      20.673   3.142  50.884  1.00  0.00     0.048 A 
HETATM   20  C18 UNL     1      21.896   3.769  51.015  1.00  0.00     0.042 A 
HETATM   21 CL3  UNL     1      22.212   4.958  52.253  1.00  0.00    -0.084 Cl
ENDBRANCH  13  14
ENDBRANCH   9  13
ENDBRANCH   1   8
BRANCH   6  22
HETATM   22  N5  UNL     1      25.087   0.066  53.870  1.00  0.00    -0.361 N 
HETATM   23  H8  UNL     1      25.444   0.521  54.740  1.00  0.00     0.162 HD
BRANCH  22  24
HETATM   24  C6  UNL     1      23.702  -0.233  53.797  1.00  0.00     0.069 A 
HETATM   25  C7  UNL     1      23.017   0.301  52.726  1.00  0.00     0.034 A 
HETATM   26  C8  UNL     1      21.660   0.051  52.583  1.00  0.00     0.026 A 
HETATM   27  C9  UNL     1      21.049  -0.740  53.546  1.00  0.00     0.037 A 
HETATM   28 CL1  UNL     1      19.327  -1.104  53.437  1.00  0.00    -0.084 Cl
HETATM   29  C10 UNL     1      21.727  -1.281  54.625  1.00  0.00     0.068 A 
HETATM   30  C11 UNL     1      23.081  -1.020  54.749  1.00  0.00     0.144 A 
HETATM   31  F1  UNL     1      23.816  -1.513  55.779  1.00  0.00    -0.204 F 
ENDBRANCH  22  24
ENDBRANCH   6  22
BRANCH   4  32
HETATM   32  N3  UNL     1      29.304  -1.143  54.227  1.00  0.00    -0.231 N 
HETATM   33  H5  UNL     1      30.359  -1.181  54.093  1.00  0.00     0.174 HD
HETATM   34  H6  UNL     1      28.801  -1.851  54.788  1.00  0.00     0.174 HD
ENDBRANCH   4  32
TORSDOF 7
ENDMDL
MODEL 4
REMARK VINA RESULT:      -7.8      3.618      5.842
REMARK  7 active torsions:
REMARK  status: ('A' for Active; 'I' for Inactive)
REMARK    1  A    between atoms: N1_1  and  C1_2 
REMARK    2  A    between atoms: C1_2  and  C12_20 
REMARK    3  A    between atoms: C2_3  and  P1_4 
REMARK    4  A    between atoms: C4_7  and  N3_8 
REMARK    5  A    between atoms: C5_10  and  N5_11 
REMARK    6  A    between atoms: N5_11  and  C6_12 
REMARK    7  A    between atoms: C12_20  and  C13_21 
ROOT
HETATM    1  P1  UNL     1      22.331   1.752  51.994  1.00  0.00    -0.029 P 
HETATM    2  C3  UNL     1      21.615   0.325  51.749  1.00  0.00     0.109 C 
HETATM    3  N2  UNL     1      21.701  -0.523  52.689  1.00  0.00    -0.061 NA
HETATM    4  C4  UNL     1      22.533  -0.406  53.824  1.00  0.00     0.718 C 
HETATM    5  N4  UNL     1      23.493   0.435  53.925  1.00  0.00    -0.075 NA
HETATM    6  C5  UNL     1      23.864   1.374  52.907  1.00  0.00     0.255 C 
HETATM    7  H4  UNL     1      21.476   2.474  52.841  1.00  0.00     0.067 HD
ENDROOT
BRANCH   1   8
HETATM    8  C2  UNL     1      22.654   2.575  50.452  1.00  0.00     0.034 C 
HETATM    9  C1  UNL     1      22.906   3.894  50.466  1.00  0.00     0.007 C 
BRANCH   9  10
HETATM   10  N1  UNL     1      22.853   4.361  51.799  1.00  0.00    -0.402 N 
HETATM   11  H1  UNL     1      23.815   4.392  52.200  1.00  0.00     0.156 HD
HETATM   12  H2  UNL     1      22.143   4.683  52.497  1.00  0.00     0.156 HD
ENDBRANCH   9  10
BRANCH   9  13
HETATM   13  C12 UNL     1      23.179   4.624  49.221  1.00  0.00     0.097 C 
BRANCH  13  14
HETATM   14  C13 UNL     1      24.614   4.951  49.013  1.00  0.00    -0.031 A 
HETATM   15  C14 UNL     1      25.569   3.986  49.342  1.00  0.00     0.011 A 
HETATM   16  C15 UNL     1      26.953   4.143  49.203  1.00  0.00     0.024 A 
HETATM   17  C16 UNL     1      27.369   5.345  48.706  1.00  0.00     0.035 A 
HETATM   18 CL2  UNL     1      29.113   5.543  48.532  1.00  0.00    -0.084 Cl
HETATM   19  C17 UNL     1      26.463   6.325  48.368  1.00  0.00     0.048 A 
HETATM   20  C18 UNL     1      25.103   6.138  48.516  1.00  0.00     0.042 A 
HETATM   21 CL3  UNL     1      23.937   7.367  48.095  1.00  0.00    -0.084 Cl
ENDBRANCH  13  14
ENDBRANCH   9  13
ENDBRANCH   1   8
BRANCH   6  22
HETATM   22  N5  UNL     1      24.919   0.901  52.068  1.00  0.00    -0.361 N 
HETATM   23  H8  UNL     1      24.709   0.908  51.045  1.00  0.00     0.162 HD
BRANCH  22  24
HETATM   24  C6  UNL     1      26.193   0.433  52.482  1.00  0.00     0.069 A 
HETATM   25  C7  UNL     1      26.371  -0.935  52.480  1.00  0.00     0.034 A 
HETATM   26  C8  UNL     1      27.591  -1.471  52.868  1.00  0.00     0.026 A 
HETATM   27  C9  UNL     1      28.590  -0.584  53.247  1.00  0.00     0.037 A 
HETATM   28 CL1  UNL     1      30.167  -1.185  53.754  1.00  0.00    -0.084 Cl
HETATM   29  C10 UNL     1      28.421   0.790  53.252  1.00  0.00     0.068 A 
HETATM   30  C11 UNL     1      27.196   1.305  52.861  1.00  0.00     0.144 A 
HETATM   31  F1  UNL     1      26.952   2.640  52.840  1.00  0.00    -0.204 F 
ENDBRANCH  22  24
ENDBRANCH   6  22
BRANCH   4  32
HETATM   32  N3  UNL     1      22.405  -1.209  55.001  1.00  0.00    -0.231 N 
HETATM   33  H5  UNL     1      21.949  -1.025  55.944  1.00  0.00     0.174 HD
HETATM   34  H6  UNL     1      22.872  -2.107  54.789  1.00  0.00     0.174 HD
ENDBRANCH   4  32
TORSDOF 7
ENDMDL
MODEL 5
REMARK VINA RESULT:      -7.7      2.402      4.992
REMARK  7 active torsions:
REMARK  status: ('A' for Active; 'I' for Inactive)
REMARK    1  A    between atoms: N1_1  and  C1_2 
REMARK    2  A    between atoms: C1_2  and  C12_20 
REMARK    3  A    between atoms: C2_3  and  P1_4 
REMARK    4  A    between atoms: C4_7  and  N3_8 
REMARK    5  A    between atoms: C5_10  and  N5_11 
REMARK    6  A    between atoms: N5_11  and  C6_12 
REMARK    7  A    between atoms: C12_20  and  C13_21 
ROOT
HETATM    1  P1  UNL     1      24.583   0.360  53.466  1.00  0.00    -0.029 P 
HETATM    2  C3  UNL     1      25.618  -0.867  53.281  1.00  0.00     0.109 C 
HETATM    3  N2  UNL     1      26.767  -0.725  53.799  1.00  0.00    -0.061 NA
HETATM    4  C4  UNL     1      27.281   0.478  54.334  1.00  0.00     0.718 C 
HETATM    5  N4  UNL     1      26.764   1.630  54.131  1.00  0.00    -0.075 NA
HETATM    6  C5  UNL     1      25.596   1.870  53.335  1.00  0.00     0.255 C 
HETATM    7  H4  UNL     1      24.098   0.262  54.778  1.00  0.00     0.067 HD
ENDROOT
BRANCH   1   8
HETATM    8  C2  UNL     1      23.302   0.303  52.235  1.00  0.00     0.034 C 
HETATM    9  C1  UNL     1      22.022   0.275  52.639  1.00  0.00     0.007 C 
BRANCH   9  10
HETATM   10  N1  UNL     1      21.981   0.300  54.052  1.00  0.00    -0.402 N 
HETATM   11  H1  UNL     1      20.993   0.229  54.378  1.00  0.00     0.156 HD
HETATM   12  H2  UNL     1      22.641   0.368  54.861  1.00  0.00     0.156 HD
ENDBRANCH   9  10
BRANCH   9  13
HETATM   13  C12 UNL     1      20.923   0.227  51.665  1.00  0.00     0.097 C 
BRANCH  13  14
HETATM   14  C13 UNL     1      21.029   1.238  50.581  1.00  0.00    -0.031 A 
HETATM   15  C14 UNL     1      21.525   0.830  49.340  1.00  0.00     0.011 A 
HETATM   16  C15 UNL     1      21.684   1.662  48.225  1.00  0.00     0.024 A 
HETATM   17  C16 UNL     1      21.317   2.965  48.397  1.00  0.00     0.035 A 
HETATM   18 CL2  UNL     1      21.519   4.012  46.991  1.00  0.00    -0.084 Cl
HETATM   19  C17 UNL     1      20.824   3.410  49.602  1.00  0.00     0.048 A 
HETATM   20  C18 UNL     1      20.678   2.565  50.684  1.00  0.00     0.042 A 
HETATM   21 CL3  UNL     1      20.055   3.109  52.221  1.00  0.00    -0.084 Cl
ENDBRANCH  13  14
ENDBRANCH   9  13
ENDBRANCH   1   8
BRANCH   6  22
HETATM   22  N5  UNL     1      25.903   2.231  51.988  1.00  0.00    -0.361 N 
HETATM   23  H8  UNL     1      26.671   1.679  51.545  1.00  0.00     0.162 HD
BRANCH  22  24
HETATM   24  C6  UNL     1      25.279   3.242  51.211  1.00  0.00     0.069 A 
HETATM   25  C7  UNL     1      24.248   3.928  51.817  1.00  0.00     0.034 A 
HETATM   26  C8  UNL     1      23.590   4.935  51.124  1.00  0.00     0.026 A 
HETATM   27  C9  UNL     1      24.012   5.203  49.829  1.00  0.00     0.037 A 
HETATM   28 CL1  UNL     1      23.227   6.465  48.881  1.00  0.00    -0.084 Cl
HETATM   29  C10 UNL     1      25.046   4.520  49.211  1.00  0.00     0.068 A 
HETATM   30  C11 UNL     1      25.690   3.520  49.920  1.00  0.00     0.144 A 
HETATM   31  F1  UNL     1      26.712   2.804  49.385  1.00  0.00    -0.204 F 
ENDBRANCH  22  24
ENDBRANCH   6  22
BRANCH   4  32
HETATM   32  N3  UNL     1      28.440   0.555  55.169  1.00  0.00    -0.231 N 
HETATM   33  H5  UNL     1      28.769   1.287  55.866  1.00  0.00     0.174 HD
HETATM   34  H6  UNL     1      28.986  -0.304  54.983  1.00  0.00     0.174 HD
ENDBRANCH   4  32
TORSDOF 7
ENDMDL
MODEL 6
REMARK VINA RESULT:      -7.7      2.728      4.094
REMARK  7 active torsions:
REMARK  status: ('A' for Active; 'I' for Inactive)
REMARK    1  A    between atoms: N1_1  and  C1_2 
REMARK    2  A    between atoms: C1_2  and  C12_20 
REMARK    3  A    between atoms: C2_3  and  P1_4 
REMARK    4  A    between atoms: C4_7  and  N3_8 
REMARK    5  A    between atoms: C5_10  and  N5_11 
REMARK    6  A    between atoms: N5_11  and  C6_12 
REMARK    7  A    between atoms: C12_20  and  C13_21 
ROOT
HETATM    1  P1  UNL     1      26.676   1.635  51.705  1.00  0.00    -0.029 P 
HETATM    2  C3  UNL     1      27.759   2.005  52.846  1.00  0.00     0.109 C 
HETATM    3  N2  UNL     1      28.253   1.034  53.497  1.00  0.00    -0.061 NA
HETATM    4  C4  UNL     1      27.790  -0.300  53.454  1.00  0.00     0.718 C 
HETATM    5  N4  UNL     1      26.662  -0.651  52.963  1.00  0.00    -0.075 NA
HETATM    6  C5  UNL     1      25.707   0.251  52.389  1.00  0.00     0.255 C 
HETATM    7  H4  UNL     1      27.414   1.163  50.610  1.00  0.00     0.067 HD
ENDROOT
BRANCH   1   8
HETATM    8  C2  UNL     1      25.658   3.040  51.316  1.00  0.00     0.034 C 
HETATM    9  C1  UNL     1      25.757   3.588  50.095  1.00  0.00     0.007 C 
BRANCH   9  10
HETATM   10  N1  UNL     1      26.715   2.872  49.342  1.00  0.00    -0.402 N 
HETATM   11  H1  UNL     1      27.635   2.890  49.833  1.00  0.00     0.156 HD
HETATM   12  H2  UNL     1      26.777   2.335  48.446  1.00  0.00     0.156 HD
ENDBRANCH   9  10
BRANCH   9  13
HETATM   13  C12 UNL     1      24.939   4.750  49.719  1.00  0.00     0.097 C 
BRANCH  13  14
HETATM   14  C13 UNL     1      25.711   6.011  49.573  1.00  0.00    -0.031 A 
HETATM   15  C14 UNL     1      26.798   6.026  48.694  1.00  0.00     0.011 A 
HETATM   16  C15 UNL     1      27.618   7.134  48.448  1.00  0.00     0.024 A 
HETATM   17  C16 UNL     1      27.306   8.271  49.136  1.00  0.00     0.035 A 
HETATM   18 CL2  UNL     1      28.341   9.665  48.826  1.00  0.00    -0.084 Cl
HETATM   19  C17 UNL     1      26.244   8.302  50.011  1.00  0.00     0.048 A 
HETATM   20  C18 UNL     1      25.453   7.192  50.232  1.00  0.00     0.042 A 
HETATM   21 CL3  UNL     1      24.102   7.209  51.337  1.00  0.00    -0.084 Cl
ENDBRANCH  13  14
ENDBRANCH   9  13
ENDBRANCH   1   8
BRANCH   6  22
HETATM   22  N5  UNL     1      24.704   0.667  53.316  1.00  0.00    -0.361 N 
HETATM   23  H8  UNL     1      25.019   1.363  54.028  1.00  0.00     0.162 HD
BRANCH  22  24
HETATM   24  C6  UNL     1      23.352   0.235  53.363  1.00  0.00     0.069 A 
HETATM   25  C7  UNL     1      22.509   0.766  52.409  1.00  0.00     0.034 A 
HETATM   26  C8  UNL     1      21.173   0.392  52.386  1.00  0.00     0.026 A 
HETATM   27  C9  UNL     1      20.745  -0.517  53.345  1.00  0.00     0.037 A 
HETATM   28 CL1  UNL     1      19.063  -1.043  53.384  1.00  0.00    -0.084 Cl
HETATM   29  C10 UNL     1      21.584  -1.056  54.306  1.00  0.00     0.068 A 
HETATM   30  C11 UNL     1      22.913  -0.669  54.312  1.00  0.00     0.144 A 
HETATM   31  F1  UNL     1      23.798  -1.151  55.222  1.00  0.00    -0.204 F 
ENDBRANCH  22  24
ENDBRANCH   6  22
BRANCH   4  32
HETATM   32  N3  UNL     1      28.525  -1.422  53.953  1.00  0.00    -0.231 N 
HETATM   33  H5  UNL     1      28.310  -2.464  53.973  1.00  0.00     0.174 HD
HETATM   34  H6  UNL     1      29.405  -1.040  54.340  1.00  0.00     0.174 HD
ENDBRANCH   4  32
TORSDOF 7
ENDMDL
MODEL 7
REMARK VINA RESULT:      -7.7      3.085      4.520
REMARK  7 active torsions:
REMARK  status: ('A' for Active; 'I' for Inactive)
REMARK    1  A    between atoms: N1_1  and  C1_2 
REMARK    2  A    between atoms: C1_2  and  C12_20 
REMARK    3  A    between atoms: C2_3  and  P1_4 
REMARK    4  A    between atoms: C4_7  and  N3_8 
REMARK    5  A    between atoms: C5_10  and  N5_11 
REMARK    6  A    between atoms: N5_11  and  C6_12 
REMARK    7  A    between atoms: C12_20  and  C13_21 
ROOT
HETATM    1  P1  UNL     1      25.620   1.913  52.180  1.00  0.00    -0.029 P 
HETATM    2  C3  UNL     1      26.232   2.464  53.570  1.00  0.00     0.109 C 
HETATM    3  N2  UNL     1      26.384   1.615  54.500  1.00  0.00    -0.061 NA
HETATM    4  C4  UNL     1      25.879   0.295  54.495  1.00  0.00     0.718 C 
HETATM    5  N4  UNL     1      24.988  -0.127  53.679  1.00  0.00    -0.075 NA
HETATM    6  C5  UNL     1      24.375   0.671  52.658  1.00  0.00     0.255 C 
HETATM    7  H4  UNL     1      26.674   1.258  51.526  1.00  0.00     0.067 HD
ENDROOT
BRANCH   1   8
HETATM    8  C2  UNL     1      24.914   3.238  51.227  1.00  0.00     0.034 C 
HETATM    9  C1  UNL     1      25.547   3.637  50.112  1.00  0.00     0.007 C 
BRANCH   9  10
HETATM   10  N1  UNL     1      26.713   2.858  49.937  1.00  0.00    -0.402 N 
HETATM   11  H1  UNL     1      27.220   3.167  49.079  1.00  0.00     0.156 HD
HETATM   12  H2  UNL     1      27.215   2.069  50.406  1.00  0.00     0.156 HD
ENDBRANCH   9  10
BRANCH   9  13
HETATM   13  C12 UNL     1      25.009   4.727  49.287  1.00  0.00     0.097 C 
BRANCH  13  14
HETATM   14  C13 UNL     1      25.818   5.973  49.327  1.00  0.00    -0.031 A 
HETATM   15  C14 UNL     1      26.918   6.079  48.473  1.00  0.00     0.011 A 
HETATM   16  C15 UNL     1      27.773   7.185  48.394  1.00  0.00     0.024 A 
HETATM   17  C16 UNL     1      27.481   8.224  49.231  1.00  0.00     0.035 A 
HETATM   18 CL2  UNL     1      28.558   9.617  49.131  1.00  0.00    -0.084 Cl
HETATM   19  C17 UNL     1      26.406   8.163  50.088  1.00  0.00     0.048 A 
HETATM   20  C18 UNL     1      25.581   7.058  50.142  1.00  0.00     0.042 A 
HETATM   21 CL3  UNL     1      24.214   6.960  51.223  1.00  0.00    -0.084 Cl
ENDBRANCH  13  14
ENDBRANCH   9  13
ENDBRANCH   1   8
BRANCH   6  22
HETATM   22  N5  UNL     1      23.132   1.243  53.068  1.00  0.00    -0.361 N 
HETATM   23  H8  UNL     1      23.211   2.036  53.743  1.00  0.00     0.162 HD
BRANCH  22  24
HETATM   24  C6  UNL     1      21.833   0.848  52.656  1.00  0.00     0.069 A 
HETATM   25  C7  UNL     1      21.564   0.945  51.307  1.00  0.00     0.034 A 
HETATM   26  C8  UNL     1      20.316   0.575  50.825  1.00  0.00     0.026 A 
HETATM   27  C9  UNL     1      19.384   0.117  51.746  1.00  0.00     0.037 A 
HETATM   28 CL1  UNL     1      17.775  -0.372  51.214  1.00  0.00    -0.084 Cl
HETATM   29  C10 UNL     1      19.644   0.015  53.102  1.00  0.00     0.068 A 
HETATM   30  C11 UNL     1      20.895   0.390  53.562  1.00  0.00     0.144 A 
HETATM   31  F1  UNL     1      21.227   0.321  54.877  1.00  0.00    -0.204 F 
ENDBRANCH  22  24
ENDBRANCH   6  22
BRANCH   4  32
HETATM   32  N3  UNL     1      26.301  -0.730  55.399  1.00  0.00    -0.231 N 
HETATM   33  H5  UNL     1      27.127  -1.400  55.382  1.00  0.00     0.174 HD
HETATM   34  H6  UNL     1      25.612  -0.736  56.170  1.00  0.00     0.174 HD
ENDBRANCH   4  32
TORSDOF 7
ENDMDL
MODEL 8
REMARK VINA RESULT:      -7.6      2.827      5.654
REMARK  7 active torsions:
REMARK  status: ('A' for Active; 'I' for Inactive)
REMARK    1  A    between atoms: N1_1  and  C1_2 
REMARK    2  A    between atoms: C1_2  and  C12_20 
REMARK    3  A    between atoms: C2_3  and  P1_4 
REMARK    4  A    between atoms: C4_7  and  N3_8 
REMARK    5  A    between atoms: C5_10  and  N5_11 
REMARK    6  A    between atoms: N5_11  and  C6_12 
REMARK    7  A    between atoms: C12_20  and  C13_21 
ROOT
HETATM    1  P1  UNL     1      24.641   4.327  49.731  1.00  0.00    -0.029 P 
HETATM    2  C3  UNL     1      25.231   5.830  49.782  1.00  0.00     0.109 C 
HETATM    3  N2  UNL     1      26.408   5.994  49.337  1.00  0.00    -0.061 NA
HETATM    4  C4  UNL     1      27.308   4.959  49.000  1.00  0.00     0.718 C 
HETATM    5  N4  UNL     1      27.153   3.736  49.343  1.00  0.00    -0.075 NA
HETATM    6  C5  UNL     1      26.052   3.239  50.116  1.00  0.00     0.255 C 
HETATM    7  H4  UNL     1      24.261   4.106  48.398  1.00  0.00     0.067 HD
ENDROOT
BRANCH   1   8
HETATM    8  C2  UNL     1      23.305   4.128  50.887  1.00  0.00     0.034 C 
HETATM    9  C1  UNL     1      22.396   3.167  50.661  1.00  0.00     0.007 C 
BRANCH   9  10
HETATM   10  N1  UNL     1      22.731   2.482  49.471  1.00  0.00    -0.402 N 
HETATM   11  H1  UNL     1      23.768   2.457  49.358  1.00  0.00     0.156 HD
HETATM   12  H2  UNL     1      22.254   1.996  48.677  1.00  0.00     0.156 HD
ENDBRANCH   9  10
BRANCH   9  13
HETATM   13  C12 UNL     1      21.271   2.958  51.583  1.00  0.00     0.097 C 
BRANCH  13  14
HETATM   14  C13 UNL     1      21.346   1.688  52.352  1.00  0.00    -0.031 A 
HETATM   15  C14 UNL     1      22.567   1.332  52.929  1.00  0.00     0.011 A 
HETATM   16  C15 UNL     1      22.795   0.172  53.679  1.00  0.00     0.024 A 
HETATM   17  C16 UNL     1      21.720  -0.653  53.841  1.00  0.00     0.035 A 
HETATM   18 CL2  UNL     1      22.008  -2.114  54.786  1.00  0.00    -0.084 Cl
HETATM   19  C17 UNL     1      20.497  -0.341  53.291  1.00  0.00     0.048 A 
HETATM   20  C18 UNL     1      20.305   0.811  52.555  1.00  0.00     0.042 A 
HETATM   21 CL3  UNL     1      18.763   1.225  51.849  1.00  0.00    -0.084 Cl
ENDBRANCH  13  14
ENDBRANCH   9  13
ENDBRANCH   1   8
BRANCH   6  22
HETATM   22  N5  UNL     1      26.341   3.161  51.513  1.00  0.00    -0.361 N 
HETATM   23  H8  UNL     1      25.972   3.953  52.086  1.00  0.00     0.162 HD
BRANCH  22  24
HETATM   24  C6  UNL     1      27.062   2.137  52.180  1.00  0.00     0.069 A 
HETATM   25  C7  UNL     1      28.224   2.523  52.814  1.00  0.00     0.034 A 
HETATM   26  C8  UNL     1      28.985   1.580  53.492  1.00  0.00     0.026 A 
HETATM   27  C9  UNL     1      28.527   0.270  53.495  1.00  0.00     0.037 A 
HETATM   28 CL1  UNL     1      29.436  -0.988  54.332  1.00  0.00    -0.084 Cl
HETATM   29  C10 UNL     1      27.362  -0.128  52.861  1.00  0.00     0.068 A 
HETATM   30  C11 UNL     1      26.618   0.828  52.191  1.00  0.00     0.144 A 
HETATM   31  F1  UNL     1      25.465   0.518  51.544  1.00  0.00    -0.204 F 
ENDBRANCH  22  24
ENDBRANCH   6  22
BRANCH   4  32
HETATM   32  N3  UNL     1      28.501   5.149  48.233  1.00  0.00    -0.231 N 
HETATM   33  H5  UNL     1      29.184   5.962  48.167  1.00  0.00     0.174 HD
HETATM   34  H6  UNL     1      28.630   4.283  47.682  1.00  0.00     0.174 HD
ENDBRANCH   4  32
TORSDOF 7
ENDMDL
MODEL 9
REMARK VINA RESULT:      -7.6      1.814      2.670
REMARK  7 active torsions:
REMARK  status: ('A' for Active; 'I' for Inactive)
REMARK    1  A    between atoms: N1_1  and  C1_2 
REMARK    2  A    between atoms: C1_2  and  C12_20 
REMARK    3  A    between atoms: C2_3  and  P1_4 
REMARK    4  A    between atoms: C4_7  and  N3_8 
REMARK    5  A    between atoms: C5_10  and  N5_11 
REMARK    6  A    between atoms: N5_11  and  C6_12 
REMARK    7  A    between atoms: C12_20  and  C13_21 
ROOT
HETATM    1  P1  UNL     1      26.505   1.386  52.264  1.00  0.00    -0.029 P 
HETATM    2  C3  UNL     1      27.682   1.610  53.348  1.00  0.00     0.109 C 
HETATM    3  N2  UNL     1      28.356   0.586  53.675  1.00  0.00    -0.061 NA
HETATM    4  C4  UNL     1      28.035  -0.748  53.337  1.00  0.00     0.718 C 
HETATM    5  N4  UNL     1      26.897  -1.118  52.886  1.00  0.00    -0.075 NA
HETATM    6  C5  UNL     1      25.785  -0.241  52.661  1.00  0.00     0.255 C 
HETATM    7  H4  UNL     1      27.140   1.299  51.016  1.00  0.00     0.067 HD
ENDROOT
BRANCH   1   8
HETATM    8  C2  UNL     1      25.302   2.692  52.353  1.00  0.00     0.034 C 
HETATM    9  C1  UNL     1      25.042   3.405  51.245  1.00  0.00     0.007 C 
BRANCH   9  10
HETATM   10  N1  UNL     1      25.841   2.920  50.185  1.00  0.00    -0.402 N 
HETATM   11  H1  UNL     1      26.849   2.987  50.442  1.00  0.00     0.156 HD
HETATM   12  H2  UNL     1      25.723   2.518  49.226  1.00  0.00     0.156 HD
ENDBRANCH   9  10
BRANCH   9  13
HETATM   13  C12 UNL     1      24.058   4.495  51.262  1.00  0.00     0.097 C 
BRANCH  13  14
HETATM   14  C13 UNL     1      23.767   5.069  49.922  1.00  0.00    -0.031 A 
HETATM   15  C14 UNL     1      22.793   4.452  49.133  1.00  0.00     0.011 A 
HETATM   16  C15 UNL     1      22.408   4.873  47.854  1.00  0.00     0.024 A 
HETATM   17  C16 UNL     1      23.054   5.974  47.370  1.00  0.00     0.035 A 
HETATM   18 CL2  UNL     1      22.569   6.503  45.758  1.00  0.00    -0.084 Cl
HETATM   19  C17 UNL     1      24.020   6.613  48.113  1.00  0.00     0.048 A 
HETATM   20  C18 UNL     1      24.377   6.173  49.372  1.00  0.00     0.042 A 
HETATM   21 CL3  UNL     1      25.600   6.969  50.330  1.00  0.00    -0.084 Cl
ENDBRANCH  13  14
ENDBRANCH   9  13
ENDBRANCH   1   8
BRANCH   6  22
HETATM   22  N5  UNL     1      24.873  -0.203  53.759  1.00  0.00    -0.361 N 
HETATM   23  H8  UNL     1      25.307  -0.018  54.691  1.00  0.00     0.162 HD
BRANCH  22  24
HETATM   24  C6  UNL     1      23.466  -0.389  53.708  1.00  0.00     0.069 A 
HETATM   25  C7  UNL     1      22.827   0.100  52.589  1.00  0.00     0.034 A 
HETATM   26  C8  UNL     1      21.452  -0.045  52.462  1.00  0.00     0.026 A 
HETATM   27  C9  UNL     1      20.779  -0.689  53.492  1.00  0.00     0.037 A 
HETATM   28 CL1  UNL     1      19.032  -0.912  53.409  1.00  0.00    -0.084 Cl
HETATM   29  C10 UNL     1      21.411  -1.183  54.620  1.00  0.00     0.068 A 
HETATM   30  C11 UNL     1      22.783  -1.028  54.726  1.00  0.00     0.144 A 
HETATM   31  F1  UNL     1      23.477  -1.485  55.800  1.00  0.00    -0.204 F 
ENDBRANCH  22  24
ENDBRANCH   6  22
BRANCH   4  32
HETATM   32  N3  UNL     1      28.944  -1.847  53.454  1.00  0.00    -0.231 N 
HETATM   33  H5  UNL     1      28.951  -2.701  54.088  1.00  0.00     0.174 HD
HETATM   34  H6  UNL     1      29.687  -1.682  52.754  1.00  0.00     0.174 HD
ENDBRANCH   4  32
TORSDOF 7
ENDMDL
