MODEL 1
REMARK VINA RESULT:      -7.0      0.000      0.000
REMARK  4 active torsions:
REMARK  status: ('A' for Active; 'I' for Inactive)
REMARK       I    between atoms: C1_2  and  N1_3 
REMARK    1  A    between atoms: C1_2  and  C8_14 
REMARK    2  A    between atoms: N1_3  and  S1_4 
REMARK    3  A    between atoms: S1_4  and  P1_6 
REMARK    4  A    between atoms: S1_4  and  C2_7 
ROOT
HETATM    1  O1  UNL     1      23.230   3.799  52.670  1.00  0.00    -0.267 OA
HETATM    2  C1  UNL     1      23.355   3.540  51.436  1.00  0.00     0.264 C 
HETATM    3  N1  UNL     1      22.357   2.718  50.843  1.00  0.00    -0.275 N 
HETATM    4  H1  UNL     1      22.380   2.460  49.853  1.00  0.00     0.179 HD
ENDROOT
BRANCH   3   5
HETATM    5  S1  UNL     1      21.067   2.143  51.842  1.00  0.00     0.083 S 
HETATM    6  O2  UNL     1      20.440   3.263  52.620  1.00  0.00    -0.240 OA
BRANCH   5   7
HETATM    7  P1  UNL     1      19.715   1.394  50.692  1.00  0.00     0.022 P 
HETATM    8  H2  UNL     1      20.015   0.249  49.851  1.00  0.00     0.078 HD
ENDBRANCH   5   7
BRANCH   5   9
HETATM    9  C2  UNL     1      21.714   0.912  52.910  1.00  0.00     0.043 A 
HETATM   10  C3  UNL     1      22.942   0.296  52.782  1.00  0.00     0.025 A 
HETATM   11  C4  UNL     1      23.329  -0.663  53.699  1.00  0.00     0.044 A 
HETATM   12  C5  UNL     1      22.521  -1.038  54.760  1.00  0.00     0.116 A 
HETATM   13  F1  UNL     1      22.908  -1.978  55.653  1.00  0.00    -0.206 F 
HETATM   14  C6  UNL     1      21.314  -0.408  54.854  1.00  0.00     0.044 A 
HETATM   15  C7  UNL     1      20.873   0.556  53.971  1.00  0.00     0.025 A 
ENDBRANCH   5   9
ENDBRANCH   3   5
BRANCH   2  16
HETATM   16  C8  UNL     1      24.473   4.064  50.658  1.00  0.00     0.050 A 
HETATM   17  C9  UNL     1      25.481   3.290  50.079  1.00  0.00     0.022 A 
HETATM   18  C10 UNL     1      26.498   3.877  49.359  1.00  0.00     0.045 A 
HETATM   19  C11 UNL     1      26.551   5.252  49.191  1.00  0.00     0.125 A 
HETATM   20 CL1  UNL     1      27.857   5.993  48.269  1.00  0.00    -0.062 Cl
HETATM   21  N2  UNL     1      25.568   5.976  49.760  1.00  0.00    -0.248 NA
HETATM   22  C12 UNL     1      24.564   5.425  50.466  1.00  0.00     0.135 A 
ENDBRANCH   2  16
TORSDOF 4
ENDMDL
MODEL 2
REMARK VINA RESULT:      -6.8      3.849      4.561
REMARK  4 active torsions:
REMARK  status: ('A' for Active; 'I' for Inactive)
REMARK       I    between atoms: C1_2  and  N1_3 
REMARK    1  A    between atoms: C1_2  and  C8_14 
REMARK    2  A    between atoms: N1_3  and  S1_4 
REMARK    3  A    between atoms: S1_4  and  P1_6 
REMARK    4  A    between atoms: S1_4  and  C2_7 
ROOT
HETATM    1  O1  UNL     1      24.464   2.543  53.517  1.00  0.00    -0.267 OA
HETATM    2  C1  UNL     1      24.959   1.668  52.747  1.00  0.00     0.264 C 
HETATM    3  N1  UNL     1      24.191   1.299  51.607  1.00  0.00    -0.275 N 
HETATM    4  H1  UNL     1      24.515   0.602  50.933  1.00  0.00     0.179 HD
ENDROOT
BRANCH   3   5
HETATM    5  S1  UNL     1      22.658   2.065  51.369  1.00  0.00     0.083 S 
HETATM    6  O2  UNL     1      22.659   3.466  51.909  1.00  0.00    -0.240 OA
BRANCH   5   7
HETATM    7  P1  UNL     1      22.334   2.164  49.472  1.00  0.00     0.022 P 
HETATM    8  H2  UNL     1      22.065   3.441  48.836  1.00  0.00     0.078 HD
ENDBRANCH   5   7
BRANCH   5   9
HETATM    9  C2  UNL     1      21.432   1.084  52.149  1.00  0.00     0.043 A 
HETATM   10  C3  UNL     1      21.482   0.608  53.443  1.00  0.00     0.025 A 
HETATM   11  C4  UNL     1      20.442  -0.158  53.935  1.00  0.00     0.044 A 
HETATM   12  C5  UNL     1      19.332  -0.475  53.168  1.00  0.00     0.116 A 
HETATM   13  F1  UNL     1      18.319  -1.226  53.658  1.00  0.00    -0.206 F 
HETATM   14  C6  UNL     1      19.318   0.013  51.893  1.00  0.00     0.044 A 
HETATM   15  C7  UNL     1      20.325   0.782  51.347  1.00  0.00     0.025 A 
ENDBRANCH   5   9
ENDBRANCH   3   5
BRANCH   2  16
HETATM   16  C8  UNL     1      26.262   1.066  53.015  1.00  0.00     0.050 A 
HETATM   17  C9  UNL     1      27.455   1.773  53.178  1.00  0.00     0.022 A 
HETATM   18  C10 UNL     1      28.639   1.114  53.430  1.00  0.00     0.045 A 
HETATM   19  C11 UNL     1      28.678  -0.268  53.527  1.00  0.00     0.125 A 
HETATM   20 CL1  UNL     1      30.197  -1.101  53.848  1.00  0.00    -0.062 Cl
HETATM   21  N2  UNL     1      27.514  -0.927  53.365  1.00  0.00    -0.248 NA
HETATM   22  C12 UNL     1      26.346  -0.305  53.119  1.00  0.00     0.135 A 
ENDBRANCH   2  16
TORSDOF 4
ENDMDL
MODEL 3
REMARK VINA RESULT:      -6.8      4.123      4.888
REMARK  4 active torsions:
REMARK  status: ('A' for Active; 'I' for Inactive)
REMARK       I    between atoms: C1_2  and  N1_3 
REMARK    1  A    between atoms: C1_2  and  C8_14 
REMARK    2  A    between atoms: N1_3  and  S1_4 
REMARK    3  A    between atoms: S1_4  and  P1_6 
REMARK    4  A    between atoms: S1_4  and  C2_7 
ROOT
HETATM    1  O1  UNL     1      24.356   2.311  53.398  1.00  0.00    -0.267 OA
HETATM    2  C1  UNL     1      25.217   2.055  52.505  1.00  0.00     0.264 C 
HETATM    3  N1  UNL     1      24.993   2.606  51.212  1.00  0.00    -0.275 N 
HETATM    4  H1  UNL     1      25.637   2.450  50.434  1.00  0.00     0.179 HD
ENDROOT
BRANCH   3   5
HETATM    5  S1  UNL     1      23.578   3.570  50.966  1.00  0.00     0.083 S 
HETATM    6  O2  UNL     1      23.548   4.743  51.902  1.00  0.00    -0.240 OA
BRANCH   5   7
HETATM    7  P1  UNL     1      23.631   4.252  49.165  1.00  0.00     0.022 P 
HETATM    8  H2  UNL     1      23.831   3.353  48.042  1.00  0.00     0.078 HD
ENDBRANCH   5   7
BRANCH   5   9
HETATM    9  C2  UNL     1      22.174   2.543  51.190  1.00  0.00     0.043 A 
HETATM   10  C3  UNL     1      21.093   2.819  52.001  1.00  0.00     0.025 A 
HETATM   11  C4  UNL     1      20.048   1.918  52.085  1.00  0.00     0.044 A 
HETATM   12  C5  UNL     1      20.043   0.726  51.378  1.00  0.00     0.116 A 
HETATM   13  F1  UNL     1      19.016  -0.150  51.467  1.00  0.00    -0.206 F 
HETATM   14  C6  UNL     1      21.129   0.487  50.587  1.00  0.00     0.044 A 
HETATM   15  C7  UNL     1      22.200   1.348  50.461  1.00  0.00     0.025 A 
ENDBRANCH   5   9
ENDBRANCH   3   5
BRANCH   2  16
HETATM   16  C8  UNL     1      26.388   1.232  52.790  1.00  0.00     0.050 A 
HETATM   17  C9  UNL     1      26.440  -0.159  52.674  1.00  0.00     0.022 A 
HETATM   18  C10 UNL     1      27.596  -0.850  52.966  1.00  0.00     0.045 A 
HETATM   19  C11 UNL     1      28.738  -0.185  53.384  1.00  0.00     0.125 A 
HETATM   20 CL1  UNL     1      30.210  -1.078  53.757  1.00  0.00    -0.062 Cl
HETATM   21  N2  UNL     1      28.662   1.156  53.489  1.00  0.00    -0.248 NA
HETATM   22  C12 UNL     1      27.545   1.852  53.209  1.00  0.00     0.135 A 
ENDBRANCH   2  16
TORSDOF 4
ENDMDL
MODEL 4
REMARK VINA RESULT:      -6.8      3.490      4.220
REMARK  4 active torsions:
REMARK  status: ('A' for Active; 'I' for Inactive)
REMARK       I    between atoms: C1_2  and  N1_3 
REMARK    1  A    between atoms: C1_2  and  C8_14 
REMARK    2  A    between atoms: N1_3  and  S1_4 
REMARK    3  A    between atoms: S1_4  and  P1_6 
REMARK    4  A    between atoms: S1_4  and  C2_7 
ROOT
HETATM    1  O1  UNL     1      26.318   2.806  49.541  1.00  0.00    -0.267 OA
HETATM    2  C1  UNL     1      26.201   4.025  49.865  1.00  0.00     0.264 C 
HETATM    3  N1  UNL     1      25.442   4.314  51.033  1.00  0.00    -0.275 N 
HETATM    4  H1  UNL     1      25.297   5.270  51.367  1.00  0.00     0.179 HD
ENDROOT
BRANCH   3   5
HETATM    5  S1  UNL     1      24.746   2.993  51.907  1.00  0.00     0.083 S 
HETATM    6  O2  UNL     1      24.002   3.474  53.119  1.00  0.00    -0.240 OA
BRANCH   5   7
HETATM    7  P1  UNL     1      23.483   2.115  50.748  1.00  0.00     0.022 P 
HETATM    8  H2  UNL     1      23.630   2.190  49.306  1.00  0.00     0.078 HD
ENDBRANCH   5   7
BRANCH   5   9
HETATM    9  C2  UNL     1      26.039   1.894  52.349  1.00  0.00     0.043 A 
HETATM   10  C3  UNL     1      27.252   2.253  52.897  1.00  0.00     0.025 A 
HETATM   11  C4  UNL     1      28.186   1.280  53.200  1.00  0.00     0.044 A 
HETATM   12  C5  UNL     1      27.949  -0.066  52.970  1.00  0.00     0.116 A 
HETATM   13  F1  UNL     1      28.869  -1.013  53.269  1.00  0.00    -0.206 F 
HETATM   14  C6  UNL     1      26.738  -0.384  52.426  1.00  0.00     0.044 A 
HETATM   15  C7  UNL     1      25.767   0.542  52.104  1.00  0.00     0.025 A 
ENDBRANCH   5   9
ENDBRANCH   3   5
BRANCH   2  16
HETATM   16  C8  UNL     1      26.819   5.085  49.075  1.00  0.00     0.050 A 
HETATM   17  C9  UNL     1      28.138   5.081  48.616  1.00  0.00     0.022 A 
HETATM   18  C10 UNL     1      28.632   6.132  47.874  1.00  0.00     0.045 A 
HETATM   19  C11 UNL     1      27.834   7.222  47.564  1.00  0.00     0.125 A 
HETATM   20 CL1  UNL     1      28.477   8.562  46.615  1.00  0.00    -0.062 Cl
HETATM   21  N2  UNL     1      26.567   7.203  48.018  1.00  0.00    -0.248 NA
HETATM   22  C12 UNL     1      26.062   6.188  48.744  1.00  0.00     0.135 A 
ENDBRANCH   2  16
TORSDOF 4
ENDMDL
MODEL 5
REMARK VINA RESULT:      -6.6      2.169      2.805
REMARK  4 active torsions:
REMARK  status: ('A' for Active; 'I' for Inactive)
REMARK       I    between atoms: C1_2  and  N1_3 
REMARK    1  A    between atoms: C1_2  and  C8_14 
REMARK    2  A    between atoms: N1_3  and  S1_4 
REMARK    3  A    between atoms: S1_4  and  P1_6 
REMARK    4  A    between atoms: S1_4  and  C2_7 
ROOT
HETATM    1  O1  UNL     1      24.799   3.290  49.544  1.00  0.00    -0.267 OA
HETATM    2  C1  UNL     1      25.178   4.427  49.955  1.00  0.00     0.264 C 
HETATM    3  N1  UNL     1      24.486   4.976  51.070  1.00  0.00    -0.275 N 
HETATM    4  H1  UNL     1      24.727   5.887  51.467  1.00  0.00     0.179 HD
ENDROOT
BRANCH   3   5
HETATM    5  S1  UNL     1      23.196   4.059  51.768  1.00  0.00     0.083 S 
HETATM    6  O2  UNL     1      22.450   4.861  52.794  1.00  0.00    -0.240 OA
BRANCH   5   7
HETATM    7  P1  UNL     1      21.961   3.607  50.360  1.00  0.00     0.022 P 
HETATM    8  H2  UNL     1      22.102   4.195  49.039  1.00  0.00     0.078 HD
ENDBRANCH   5   7
BRANCH   5   9
HETATM    9  C2  UNL     1      23.880   2.606  52.471  1.00  0.00     0.043 A 
HETATM   10  C3  UNL     1      25.117   2.506  53.074  1.00  0.00     0.025 A 
HETATM   11  C4  UNL     1      25.535   1.294  53.590  1.00  0.00     0.044 A 
HETATM   12  C5  UNL     1      24.749   0.154  53.524  1.00  0.00     0.116 A 
HETATM   13  F1  UNL     1      25.167  -1.029  54.031  1.00  0.00    -0.206 F 
HETATM   14  C6  UNL     1      23.533   0.290  52.920  1.00  0.00     0.044 A 
HETATM   15  C7  UNL     1      23.062   1.473  52.388  1.00  0.00     0.025 A 
ENDBRANCH   5   9
ENDBRANCH   3   5
BRANCH   2  16
HETATM   16  C8  UNL     1      26.278   5.141  49.313  1.00  0.00     0.050 A 
HETATM   17  C9  UNL     1      27.466   4.555  48.871  1.00  0.00     0.022 A 
HETATM   18  C10 UNL     1      28.449   5.315  48.274  1.00  0.00     0.045 A 
HETATM   19  C11 UNL     1      28.286   6.680  48.097  1.00  0.00     0.125 A 
HETATM   20 CL1  UNL     1      29.550   7.642  47.334  1.00  0.00    -0.062 Cl
HETATM   21  N2  UNL     1      27.132   7.220  48.533  1.00  0.00    -0.248 NA
HETATM   22  C12 UNL     1      26.158   6.499  49.117  1.00  0.00     0.135 A 
ENDBRANCH   2  16
TORSDOF 4
ENDMDL
MODEL 6
REMARK VINA RESULT:      -6.6      2.775      3.768
REMARK  4 active torsions:
REMARK  status: ('A' for Active; 'I' for Inactive)
REMARK       I    between atoms: C1_2  and  N1_3 
REMARK    1  A    between atoms: C1_2  and  C8_14 
REMARK    2  A    between atoms: N1_3  and  S1_4 
REMARK    3  A    between atoms: S1_4  and  P1_6 
REMARK    4  A    between atoms: S1_4  and  C2_7 
ROOT
HETATM    1  O1  UNL     1      24.637   5.803  49.915  1.00  0.00    -0.267 OA
HETATM    2  C1  UNL     1      25.701   5.163  49.663  1.00  0.00     0.264 C 
HETATM    3  N1  UNL     1      25.791   3.835  50.165  1.00  0.00    -0.275 N 
HETATM    4  H1  UNL     1      26.613   3.246  50.007  1.00  0.00     0.179 HD
ENDROOT
BRANCH   3   5
HETATM    5  S1  UNL     1      24.458   3.208  51.072  1.00  0.00     0.083 S 
HETATM    6  O2  UNL     1      23.983   4.197  52.097  1.00  0.00    -0.240 OA
BRANCH   5   7
HETATM    7  P1  UNL     1      23.007   2.885  49.846  1.00  0.00     0.022 P 
HETATM    8  H2  UNL     1      22.798   3.759  48.705  1.00  0.00     0.078 HD
ENDBRANCH   5   7
BRANCH   5   9
HETATM    9  C2  UNL     1      24.969   1.709  51.824  1.00  0.00     0.043 A 
HETATM   10  C3  UNL     1      24.191   0.906  52.633  1.00  0.00     0.025 A 
HETATM   11  C4  UNL     1      24.722  -0.255  53.164  1.00  0.00     0.044 A 
HETATM   12  C5  UNL     1      26.025  -0.653  52.912  1.00  0.00     0.116 A 
HETATM   13  F1  UNL     1      26.536  -1.792  53.435  1.00  0.00    -0.206 F 
HETATM   14  C6  UNL     1      26.764   0.166  52.107  1.00  0.00     0.044 A 
HETATM   15  C7  UNL     1      26.289   1.335  51.549  1.00  0.00     0.025 A 
ENDBRANCH   5   9
ENDBRANCH   3   5
BRANCH   2  16
HETATM   16  C8  UNL     1      26.784   5.761  48.889  1.00  0.00     0.050 A 
HETATM   17  C9  UNL     1      28.026   5.167  48.654  1.00  0.00     0.022 A 
HETATM   18  C10 UNL     1      28.989   5.812  47.908  1.00  0.00     0.045 A 
HETATM   19  C11 UNL     1      28.752   7.068  47.372  1.00  0.00     0.125 A 
HETATM   20 CL1  UNL     1      29.990   7.884  46.420  1.00  0.00    -0.062 Cl
HETATM   21  N2  UNL     1      27.547   7.619  47.613  1.00  0.00    -0.248 NA
HETATM   22  C12 UNL     1      26.591   7.008  48.337  1.00  0.00     0.135 A 
ENDBRANCH   2  16
TORSDOF 4
ENDMDL
MODEL 7
REMARK VINA RESULT:      -6.5      3.175      3.551
REMARK  4 active torsions:
REMARK  status: ('A' for Active; 'I' for Inactive)
REMARK       I    between atoms: C1_2  and  N1_3 
REMARK    1  A    between atoms: C1_2  and  C8_14 
REMARK    2  A    between atoms: N1_3  and  S1_4 
REMARK    3  A    between atoms: S1_4  and  P1_6 
REMARK    4  A    between atoms: S1_4  and  C2_7 
ROOT
HETATM    1  O1  UNL     1      25.060   2.286  53.260  1.00  0.00    -0.267 OA
HETATM    2  C1  UNL     1      25.572   2.119  52.113  1.00  0.00     0.264 C 
HETATM    3  N1  UNL     1      26.133   0.842  51.834  1.00  0.00    -0.275 N 
HETATM    4  H1  UNL     1      26.566   0.621  50.934  1.00  0.00     0.179 HD
ENDROOT
BRANCH   3   5
HETATM    5  S1  UNL     1      26.073  -0.368  53.070  1.00  0.00     0.083 S 
HETATM    6  O2  UNL     1      26.737  -1.638  52.622  1.00  0.00    -0.240 OA
BRANCH   5   7
HETATM    7  P1  UNL     1      27.040   0.297  54.597  1.00  0.00     0.022 P 
HETATM    8  H2  UNL     1      28.453   0.616  54.494  1.00  0.00     0.078 HD
ENDBRANCH   5   7
BRANCH   5   9
HETATM    9  C2  UNL     1      24.391  -0.641  53.482  1.00  0.00     0.043 A 
HETATM   10  C3  UNL     1      23.319  -0.522  52.621  1.00  0.00     0.025 A 
HETATM   11  C4  UNL     1      22.038  -0.768  53.079  1.00  0.00     0.044 A 
HETATM   12  C5  UNL     1      21.782  -1.136  54.390  1.00  0.00     0.116 A 
HETATM   13  F1  UNL     1      20.524  -1.375  54.830  1.00  0.00    -0.206 F 
HETATM   14  C6  UNL     1      22.866  -1.244  55.212  1.00  0.00     0.044 A 
HETATM   15  C7  UNL     1      24.166  -1.012  54.813  1.00  0.00     0.025 A 
ENDBRANCH   5   9
ENDBRANCH   3   5
BRANCH   2  16
HETATM   16  C8  UNL     1      25.584   3.190  51.122  1.00  0.00     0.050 A 
HETATM   17  C9  UNL     1      26.560   3.364  50.139  1.00  0.00     0.022 A 
HETATM   18  C10 UNL     1      26.485   4.409  49.244  1.00  0.00     0.045 A 
HETATM   19  C11 UNL     1      25.439   5.317  49.295  1.00  0.00     0.125 A 
HETATM   20 CL1  UNL     1      25.353   6.651  48.146  1.00  0.00    -0.062 Cl
HETATM   21  N2  UNL     1      24.511   5.129  50.252  1.00  0.00    -0.248 NA
HETATM   22  C12 UNL     1      24.563   4.115  51.137  1.00  0.00     0.135 A 
ENDBRANCH   2  16
TORSDOF 4
ENDMDL
MODEL 8
REMARK VINA RESULT:      -6.4      5.077      7.330
REMARK  4 active torsions:
REMARK  status: ('A' for Active; 'I' for Inactive)
REMARK       I    between atoms: C1_2  and  N1_3 
REMARK    1  A    between atoms: C1_2  and  C8_14 
REMARK    2  A    between atoms: N1_3  and  S1_4 
REMARK    3  A    between atoms: S1_4  and  P1_6 
REMARK    4  A    between atoms: S1_4  and  C2_7 
ROOT
HETATM    1  O1  UNL     1      24.267   1.814  52.080  1.00  0.00    -0.267 OA
HETATM    2  C1  UNL     1      25.490   2.102  51.924  1.00  0.00     0.264 C 
HETATM    3  N1  UNL     1      25.787   3.334  51.276  1.00  0.00    -0.275 N 
HETATM    4  H1  UNL     1      26.747   3.645  51.109  1.00  0.00     0.179 HD
ENDROOT
BRANCH   3   5
HETATM    5  S1  UNL     1      24.469   4.328  50.759  1.00  0.00     0.083 S 
HETATM    6  O2  UNL     1      23.578   3.596  49.798  1.00  0.00    -0.240 OA
BRANCH   5   7
HETATM    7  P1  UNL     1      23.420   4.776  52.312  1.00  0.00     0.022 P 
HETATM    8  H2  UNL     1      23.856   4.373  53.637  1.00  0.00     0.078 HD
ENDBRANCH   5   7
BRANCH   5   9
HETATM    9  C2  UNL     1      25.134   5.778  50.031  1.00  0.00     0.043 A 
HETATM   10  C3  UNL     1      25.987   5.818  48.947  1.00  0.00     0.025 A 
HETATM   11  C4  UNL     1      26.438   7.036  48.472  1.00  0.00     0.044 A 
HETATM   12  C5  UNL     1      26.063   8.238  49.050  1.00  0.00     0.116 A 
HETATM   13  F1  UNL     1      26.510   9.425  48.579  1.00  0.00    -0.206 F 
HETATM   14  C6  UNL     1      25.219   8.159  50.120  1.00  0.00     0.044 A 
HETATM   15  C7  UNL     1      24.735   6.974  50.638  1.00  0.00     0.025 A 
ENDBRANCH   5   9
ENDBRANCH   3   5
BRANCH   2  16
HETATM   16  C8  UNL     1      26.548   1.211  52.388  1.00  0.00     0.050 A 
HETATM   17  C9  UNL     1      26.500  -0.184  52.346  1.00  0.00     0.022 A 
HETATM   18  C10 UNL     1      27.552  -0.943  52.809  1.00  0.00     0.045 A 
HETATM   19  C11 UNL     1      28.687  -0.343  53.331  1.00  0.00     0.125 A 
HETATM   20 CL1  UNL     1      30.028  -1.323  53.922  1.00  0.00    -0.062 Cl
HETATM   21  N2  UNL     1      28.710   1.003  53.362  1.00  0.00    -0.248 NA
HETATM   22  C12 UNL     1      27.694   1.765  52.915  1.00  0.00     0.135 A 
ENDBRANCH   2  16
TORSDOF 4
ENDMDL
MODEL 9
REMARK VINA RESULT:      -6.3      4.963      6.242
REMARK  4 active torsions:
REMARK  status: ('A' for Active; 'I' for Inactive)
REMARK       I    between atoms: C1_2  and  N1_3 
REMARK    1  A    between atoms: C1_2  and  C8_14 
REMARK    2  A    between atoms: N1_3  and  S1_4 
REMARK    3  A    between atoms: S1_4  and  P1_6 
REMARK    4  A    between atoms: S1_4  and  C2_7 
ROOT
HETATM    1  O1  UNL     1      24.606   2.936  53.489  1.00  0.00    -0.267 OA
HETATM    2  C1  UNL     1      25.188   2.298  52.562  1.00  0.00     0.264 C 
HETATM    3  N1  UNL     1      24.666   2.447  51.247  1.00  0.00    -0.275 N 
HETATM    4  H1  UNL     1      25.075   1.969  50.440  1.00  0.00     0.179 HD
ENDROOT
BRANCH   3   5
HETATM    5  S1  UNL     1      23.294   3.475  51.020  1.00  0.00     0.083 S 
HETATM    6  O2  UNL     1      22.172   3.098  51.944  1.00  0.00    -0.240 OA
BRANCH   5   7
HETATM    7  P1  UNL     1      23.827   5.277  51.444  1.00  0.00     0.022 P 
HETATM    8  H2  UNL     1      22.865   6.225  51.976  1.00  0.00     0.078 HD
ENDBRANCH   5   7
BRANCH   5   9
HETATM    9  C2  UNL     1      22.800   3.361  49.342  1.00  0.00     0.043 A 
HETATM   10  C3  UNL     1      22.464   2.200  48.676  1.00  0.00     0.025 A 
HETATM   11  C4  UNL     1      22.091   2.254  47.346  1.00  0.00     0.044 A 
HETATM   12  C5  UNL     1      22.040   3.446  46.641  1.00  0.00     0.116 A 
HETATM   13  F1  UNL     1      21.674   3.488  45.339  1.00  0.00    -0.206 F 
HETATM   14  C6  UNL     1      22.379   4.573  47.332  1.00  0.00     0.044 A 
HETATM   15  C7  UNL     1      22.759   4.583  48.659  1.00  0.00     0.025 A 
ENDBRANCH   5   9
ENDBRANCH   3   5
BRANCH   2  16
HETATM   16  C8  UNL     1      26.344   1.448  52.832  1.00  0.00     0.050 A 
HETATM   17  C9  UNL     1      26.426   0.086  52.536  1.00  0.00     0.022 A 
HETATM   18  C10 UNL     1      27.564  -0.634  52.829  1.00  0.00     0.045 A 
HETATM   19  C11 UNL     1      28.657  -0.027  53.428  1.00  0.00     0.125 A 
HETATM   20 CL1  UNL     1      30.106  -0.957  53.799  1.00  0.00    -0.062 Cl
HETATM   21  N2  UNL     1      28.552   1.287  53.704  1.00  0.00    -0.248 NA
HETATM   22  C12 UNL     1      27.452   2.011  53.426  1.00  0.00     0.135 A 
ENDBRANCH   2  16
TORSDOF 4
ENDMDL
