MODEL 1
REMARK VINA RESULT:      -7.7      0.000      0.000
REMARK  6 active torsions:
REMARK  status: ('A' for Active; 'I' for Inactive)
REMARK    1  A    between atoms: O1_2  and  C2_3 
REMARK    2  A    between atoms: C6_9  and  N3_10 
REMARK    3  A    between atoms: N3_10  and  C7_11 
REMARK    4  A    between atoms: C10_14  and  N4_15 
REMARK    5  A    between atoms: N4_15  and  C11_16 
REMARK    6  A    between atoms: C17_23  and  O2_24 
ROOT
HETATM    1  C2  UNL     1      26.530   0.282  54.210  1.00  0.00     0.103 A 
HETATM    2  C3  UNL     1      25.447  -0.531  53.952  1.00  0.00     0.072 A 
HETATM    3  C4  UNL     1      24.311   0.027  53.429  1.00  0.00     0.075 A 
HETATM    4  N1  UNL     1      23.254  -0.801  53.183  1.00  0.00    -0.241 NA
HETATM    5  C5  UNL     1      22.109  -0.303  52.665  1.00  0.00     0.236 A 
HETATM    6  N2  UNL     1      21.965   0.993  52.378  1.00  0.00    -0.224 NA
HETATM    7  C6  UNL     1      22.978   1.836  52.606  1.00  0.00     0.142 A 
HETATM    8  C15 UNL     1      24.154   1.362  53.130  1.00  0.00     0.042 A 
HETATM    9  C16 UNL     1      25.269   2.108  53.411  1.00  0.00     0.057 A 
HETATM   10  C17 UNL     1      26.450   1.630  53.938  1.00  0.00     0.102 A 
ENDROOT
BRANCH   7  11
HETATM   11  N3  UNL     1      22.882   3.221  52.320  1.00  0.00    -0.340 N 
HETATM   12  H6  UNL     1      22.251   3.858  52.842  1.00  0.00     0.167 HD
BRANCH  11  13
HETATM   13  C7  UNL     1      23.565   3.989  51.345  1.00  0.00     0.033 A 
HETATM   14  C8  UNL     1      23.978   3.527  50.102  1.00  0.00     0.031 A 
HETATM   15  C9  UNL     1      24.628   4.301  49.175  1.00  0.00     0.031 A 
HETATM   16  C10 UNL     1      24.917   5.616  49.432  1.00  0.00     0.029 A 
HETATM   17  C13 UNL     1      24.528   6.120  50.648  1.00  0.00     0.031 A 
HETATM   18  C14 UNL     1      23.872   5.314  51.564  1.00  0.00     0.031 A 
BRANCH  16  19
HETATM   19  N4  UNL     1      25.587   6.416  48.476  1.00  0.00    -0.373 N 
HETATM   20  H9  UNL     1      25.030   6.783  47.650  1.00  0.00     0.161 HD
BRANCH  19  21
HETATM   21  C11 UNL     1      26.995   6.737  48.601  1.00  0.00     0.175 C 
HETATM   22  C12 UNL     1      27.401   7.626  47.441  1.00  0.00     0.049 C 
HETATM   23 CL1  UNL     1      27.943   5.245  48.467  1.00  0.00    -0.103 Cl
ENDBRANCH  19  21
ENDBRANCH  16  19
ENDBRANCH  11  13
ENDBRANCH   7  11
BRANCH  10  24
HETATM   24  O2  UNL     1      27.551   2.425  54.204  1.00  0.00    -0.353 OA
HETATM   25  C18 UNL     1      28.658   2.590  53.370  1.00  0.00     0.210 C 
ENDBRANCH  10  24
BRANCH   1  26
HETATM   26  O1  UNL     1      27.693  -0.273  54.743  1.00  0.00    -0.353 OA
HETATM   27  C1  UNL     1      28.653  -0.904  53.926  1.00  0.00     0.210 C 
ENDBRANCH   1  26
TORSDOF 6
ENDMDL
MODEL 2
REMARK VINA RESULT:      -7.6      3.626      6.262
REMARK  6 active torsions:
REMARK  status: ('A' for Active; 'I' for Inactive)
REMARK    1  A    between atoms: O1_2  and  C2_3 
REMARK    2  A    between atoms: C6_9  and  N3_10 
REMARK    3  A    between atoms: N3_10  and  C7_11 
REMARK    4  A    between atoms: C10_14  and  N4_15 
REMARK    5  A    between atoms: N4_15  and  C11_16 
REMARK    6  A    between atoms: C17_23  and  O2_24 
ROOT
HETATM    1  C2  UNL     1      27.398   0.205  53.834  1.00  0.00     0.103 A 
HETATM    2  C3  UNL     1      27.719   0.980  52.740  1.00  0.00     0.072 A 
HETATM    3  C4  UNL     1      26.762   1.805  52.211  1.00  0.00     0.075 A 
HETATM    4  N1  UNL     1      27.108   2.563  51.130  1.00  0.00    -0.241 NA
HETATM    5  C5  UNL     1      26.202   3.396  50.569  1.00  0.00     0.236 A 
HETATM    6  N2  UNL     1      24.958   3.511  51.039  1.00  0.00    -0.224 NA
HETATM    7  C6  UNL     1      24.582   2.784  52.096  1.00  0.00     0.142 A 
HETATM    8  C15 UNL     1      25.477   1.930  52.689  1.00  0.00     0.042 A 
HETATM    9  C16 UNL     1      25.231   1.131  53.775  1.00  0.00     0.057 A 
HETATM   10  C17 UNL     1      26.131   0.274  54.369  1.00  0.00     0.102 A 
ENDROOT
BRANCH   7  11
HETATM   11  N3  UNL     1      23.275   2.866  52.638  1.00  0.00    -0.340 N 
HETATM   12  H6  UNL     1      23.032   3.506  53.418  1.00  0.00     0.167 HD
BRANCH  11  13
HETATM   13  C7  UNL     1      22.102   2.160  52.274  1.00  0.00     0.033 A 
HETATM   14  C8  UNL     1      20.801   2.582  52.516  1.00  0.00     0.031 A 
HETATM   15  C9  UNL     1      19.685   1.878  52.140  1.00  0.00     0.031 A 
HETATM   16  C10 UNL     1      19.796   0.679  51.485  1.00  0.00     0.029 A 
HETATM   17  C13 UNL     1      21.062   0.219  51.223  1.00  0.00     0.031 A 
HETATM   18  C14 UNL     1      22.169   0.953  51.613  1.00  0.00     0.031 A 
BRANCH  16  19
HETATM   19  N4  UNL     1      18.645  -0.047  51.096  1.00  0.00    -0.373 N 
HETATM   20  H9  UNL     1      18.610  -0.443  50.111  1.00  0.00     0.161 HD
BRANCH  19  21
HETATM   21  C11 UNL     1      17.533  -0.258  52.002  1.00  0.00     0.175 C 
HETATM   22  C12 UNL     1      17.933  -1.292  53.037  1.00  0.00     0.049 C 
HETATM   23 CL1  UNL     1      16.168  -0.932  51.095  1.00  0.00    -0.103 Cl
ENDBRANCH  19  21
ENDBRANCH  16  19
ENDBRANCH  11  13
ENDBRANCH   7  11
BRANCH  10  24
HETATM   24  O2  UNL     1      25.833  -0.515  55.468  1.00  0.00    -0.353 OA
HETATM   25  C18 UNL     1      24.663  -1.254  55.648  1.00  0.00     0.210 C 
ENDBRANCH  10  24
BRANCH   1  26
HETATM   26  O1  UNL     1      28.362  -0.640  54.383  1.00  0.00    -0.353 OA
HETATM   27  C1  UNL     1      29.621  -0.821  53.773  1.00  0.00     0.210 C 
ENDBRANCH   1  26
TORSDOF 6
ENDMDL
MODEL 3
REMARK VINA RESULT:      -7.4      3.764      6.185
REMARK  6 active torsions:
REMARK  status: ('A' for Active; 'I' for Inactive)
REMARK    1  A    between atoms: O1_2  and  C2_3 
REMARK    2  A    between atoms: C6_9  and  N3_10 
REMARK    3  A    between atoms: N3_10  and  C7_11 
REMARK    4  A    between atoms: C10_14  and  N4_15 
REMARK    5  A    between atoms: N4_15  and  C11_16 
REMARK    6  A    between atoms: C17_23  and  O2_24 
ROOT
HETATM    1  C2  UNL     1      19.878  -0.133  52.749  1.00  0.00     0.103 A 
HETATM    2  C3  UNL     1      19.620   0.298  51.465  1.00  0.00     0.072 A 
HETATM    3  C4  UNL     1      20.412   1.277  50.925  1.00  0.00     0.075 A 
HETATM    4  N1  UNL     1      20.135   1.684  49.652  1.00  0.00    -0.241 NA
HETATM    5  C5  UNL     1      20.886   2.646  49.069  1.00  0.00     0.236 A 
HETATM    6  N2  UNL     1      21.910   3.225  49.700  1.00  0.00    -0.224 NA
HETATM    7  C6  UNL     1      22.212   2.854  50.948  1.00  0.00     0.142 A 
HETATM    8  C15 UNL     1      21.469   1.880  51.568  1.00  0.00     0.042 A 
HETATM    9  C16 UNL     1      21.666   1.402  52.837  1.00  0.00     0.057 A 
HETATM   10  C17 UNL     1      20.920   0.424  53.458  1.00  0.00     0.102 A 
ENDROOT
BRANCH   7  11
HETATM   11  N3  UNL     1      23.288   3.434  51.666  1.00  0.00    -0.340 N 
HETATM   12  H6  UNL     1      23.268   4.413  52.009  1.00  0.00     0.167 HD
BRANCH  11  13
HETATM   13  C7  UNL     1      24.526   2.863  52.051  1.00  0.00     0.033 A 
HETATM   14  C8  UNL     1      24.933   2.631  53.358  1.00  0.00     0.031 A 
HETATM   15  C9  UNL     1      26.137   2.066  53.697  1.00  0.00     0.031 A 
HETATM   16  C10 UNL     1      27.034   1.688  52.732  1.00  0.00     0.029 A 
HETATM   17  C13 UNL     1      26.677   1.897  51.424  1.00  0.00     0.031 A 
HETATM   18  C14 UNL     1      25.455   2.468  51.112  1.00  0.00     0.031 A 
BRANCH  16  19
HETATM   19  N4  UNL     1      28.275   1.104  53.081  1.00  0.00    -0.373 N 
HETATM   20  H9  UNL     1      29.163   1.647  52.866  1.00  0.00     0.161 HD
BRANCH  19  21
HETATM   21  C11 UNL     1      28.356  -0.196  53.715  1.00  0.00     0.175 C 
HETATM   22  C12 UNL     1      29.773  -0.721  53.582  1.00  0.00     0.049 C 
HETATM   23 CL1  UNL     1      27.299  -1.328  52.852  1.00  0.00    -0.103 Cl
ENDBRANCH  19  21
ENDBRANCH  16  19
ENDBRANCH  11  13
ENDBRANCH   7  11
BRANCH  10  24
HETATM   24  O2  UNL     1      21.159  -0.027  54.745  1.00  0.00    -0.353 OA
HETATM   25  C18 UNL     1      22.040  -1.050  55.099  1.00  0.00     0.210 C 
ENDBRANCH  10  24
BRANCH   1  26
HETATM   26  O1  UNL     1      19.080  -1.128  53.312  1.00  0.00    -0.353 OA
HETATM   27  C1  UNL     1      17.682  -1.150  53.124  1.00  0.00     0.210 C 
ENDBRANCH   1  26
TORSDOF 6
ENDMDL
MODEL 4
REMARK VINA RESULT:      -7.3      2.905      4.261
REMARK  6 active torsions:
REMARK  status: ('A' for Active; 'I' for Inactive)
REMARK    1  A    between atoms: O1_2  and  C2_3 
REMARK    2  A    between atoms: C6_9  and  N3_10 
REMARK    3  A    between atoms: N3_10  and  C7_11 
REMARK    4  A    between atoms: C10_14  and  N4_15 
REMARK    5  A    between atoms: N4_15  and  C11_16 
REMARK    6  A    between atoms: C17_23  and  O2_24 
ROOT
HETATM    1  C2  UNL     1      23.121   0.300  53.076  1.00  0.00     0.103 A 
HETATM    2  C3  UNL     1      24.398   0.347  53.593  1.00  0.00     0.072 A 
HETATM    3  C4  UNL     1      25.353   1.068  52.927  1.00  0.00     0.075 A 
HETATM    4  N1  UNL     1      26.609   1.099  53.461  1.00  0.00    -0.241 NA
HETATM    5  C5  UNL     1      27.590   1.798  52.845  1.00  0.00     0.236 A 
HETATM    6  N2  UNL     1      27.377   2.472  51.713  1.00  0.00    -0.224 NA
HETATM    7  C6  UNL     1      26.161   2.465  51.159  1.00  0.00     0.142 A 
HETATM    8  C15 UNL     1      25.143   1.767  51.759  1.00  0.00     0.042 A 
HETATM    9  C16 UNL     1      23.853   1.674  51.306  1.00  0.00     0.057 A 
HETATM   10  C17 UNL     1      22.832   0.973  51.910  1.00  0.00     0.102 A 
ENDROOT
BRANCH   7  11
HETATM   11  N3  UNL     1      25.877   3.163  49.959  1.00  0.00    -0.340 N 
HETATM   12  H6  UNL     1      25.315   2.750  49.191  1.00  0.00     0.167 HD
BRANCH  11  13
HETATM   13  C7  UNL     1      26.257   4.470  49.565  1.00  0.00     0.033 A 
HETATM   14  C8  UNL     1      25.590   5.639  49.907  1.00  0.00     0.031 A 
HETATM   15  C9  UNL     1      25.991   6.892  49.518  1.00  0.00     0.031 A 
HETATM   16  C10 UNL     1      27.108   7.064  48.742  1.00  0.00     0.029 A 
HETATM   17  C13 UNL     1      27.802   5.938  48.378  1.00  0.00     0.031 A 
HETATM   18  C14 UNL     1      27.373   4.687  48.787  1.00  0.00     0.031 A 
BRANCH  16  19
HETATM   19  N4  UNL     1      27.523   8.357  48.341  1.00  0.00    -0.373 N 
HETATM   20  H9  UNL     1      27.277   8.681  47.359  1.00  0.00     0.161 HD
BRANCH  19  21
HETATM   21  C11 UNL     1      28.262   9.231  49.228  1.00  0.00     0.175 C 
HETATM   22  C12 UNL     1      28.218  10.644  48.677  1.00  0.00     0.049 C 
HETATM   23 CL1  UNL     1      29.964   8.734  49.245  1.00  0.00    -0.103 Cl
ENDBRANCH  19  21
ENDBRANCH  16  19
ENDBRANCH  11  13
ENDBRANCH   7  11
BRANCH  10  24
HETATM   24  O2  UNL     1      21.541   0.910  51.412  1.00  0.00    -0.353 OA
HETATM   25  C18 UNL     1      20.624   1.962  51.392  1.00  0.00     0.210 C 
ENDBRANCH  10  24
BRANCH   1  26
HETATM   26  O1  UNL     1      22.138  -0.431  53.744  1.00  0.00    -0.353 OA
HETATM   27  C1  UNL     1      22.431  -1.180  54.902  1.00  0.00     0.210 C 
ENDBRANCH   1  26
TORSDOF 6
ENDMDL
MODEL 5
REMARK VINA RESULT:      -7.2      2.784      3.548
REMARK  6 active torsions:
REMARK  status: ('A' for Active; 'I' for Inactive)
REMARK    1  A    between atoms: O1_2  and  C2_3 
REMARK    2  A    between atoms: C6_9  and  N3_10 
REMARK    3  A    between atoms: N3_10  and  C7_11 
REMARK    4  A    between atoms: C10_14  and  N4_15 
REMARK    5  A    between atoms: N4_15  and  C11_16 
REMARK    6  A    between atoms: C17_23  and  O2_24 
ROOT
HETATM    1  C2  UNL     1      27.290   0.629  53.512  1.00  0.00     0.103 A 
HETATM    2  C3  UNL     1      26.714  -0.096  54.534  1.00  0.00     0.072 A 
HETATM    3  C4  UNL     1      25.383  -0.407  54.454  1.00  0.00     0.075 A 
HETATM    4  N1  UNL     1      24.839  -1.127  55.479  1.00  0.00    -0.241 NA
HETATM    5  C5  UNL     1      23.529  -1.463  55.449  1.00  0.00     0.236 A 
HETATM    6  N2  UNL     1      22.730  -1.115  54.438  1.00  0.00    -0.224 NA
HETATM    7  C6  UNL     1      23.226  -0.410  53.417  1.00  0.00     0.142 A 
HETATM    8  C15 UNL     1      24.551  -0.053  53.415  1.00  0.00     0.042 A 
HETATM    9  C16 UNL     1      25.192   0.664  52.438  1.00  0.00     0.057 A 
HETATM   10  C17 UNL     1      26.523   1.021  52.438  1.00  0.00     0.102 A 
ENDROOT
BRANCH   7  11
HETATM   11  N3  UNL     1      22.425  -0.014  52.316  1.00  0.00    -0.340 N 
HETATM   12  H6  UNL     1      21.989  -0.697  51.668  1.00  0.00     0.167 HD
BRANCH  11  13
HETATM   13  C7  UNL     1      22.064   1.287  51.887  1.00  0.00     0.033 A 
HETATM   14  C8  UNL     1      21.411   2.237  52.661  1.00  0.00     0.031 A 
HETATM   15  C9  UNL     1      21.085   3.494  52.217  1.00  0.00     0.031 A 
HETATM   16  C10 UNL     1      21.395   3.893  50.943  1.00  0.00     0.029 A 
HETATM   17  C13 UNL     1      22.041   2.989  50.139  1.00  0.00     0.031 A 
HETATM   18  C14 UNL     1      22.358   1.728  50.615  1.00  0.00     0.031 A 
BRANCH  16  19
HETATM   19  N4  UNL     1      21.059   5.190  50.485  1.00  0.00    -0.373 N 
HETATM   20  H9  UNL     1      20.366   5.276  49.684  1.00  0.00     0.161 HD
BRANCH  19  21
HETATM   21  C11 UNL     1      21.632   6.381  51.078  1.00  0.00     0.175 C 
HETATM   22  C12 UNL     1      21.337   7.568  50.181  1.00  0.00     0.049 C 
HETATM   23 CL1  UNL     1      23.395   6.205  51.142  1.00  0.00    -0.103 Cl
ENDBRANCH  19  21
ENDBRANCH  16  19
ENDBRANCH  11  13
ENDBRANCH   7  11
BRANCH  10  24
HETATM   24  O2  UNL     1      27.125   1.747  51.424  1.00  0.00    -0.353 OA
HETATM   25  C18 UNL     1      26.565   2.839  50.760  1.00  0.00     0.210 C 
ENDBRANCH  10  24
BRANCH   1  26
HETATM   26  O1  UNL     1      28.645   0.954  53.581  1.00  0.00    -0.353 OA
HETATM   27  C1  UNL     1      29.641  -0.040  53.678  1.00  0.00     0.210 C 
ENDBRANCH   1  26
TORSDOF 6
ENDMDL
MODEL 6
REMARK VINA RESULT:      -6.9      2.158      3.488
REMARK  6 active torsions:
REMARK  status: ('A' for Active; 'I' for Inactive)
REMARK    1  A    between atoms: O1_2  and  C2_3 
REMARK    2  A    between atoms: C6_9  and  N3_10 
REMARK    3  A    between atoms: N3_10  and  C7_11 
REMARK    4  A    between atoms: C10_14  and  N4_15 
REMARK    5  A    between atoms: N4_15  and  C11_16 
REMARK    6  A    between atoms: C17_23  and  O2_24 
ROOT
HETATM    1  C2  UNL     1      23.431   0.052  53.443  1.00  0.00     0.103 A 
HETATM    2  C3  UNL     1      22.393   0.688  52.796  1.00  0.00     0.072 A 
HETATM    3  C4  UNL     1      22.684   1.581  51.799  1.00  0.00     0.075 A 
HETATM    4  N1  UNL     1      21.637   2.196  51.175  1.00  0.00    -0.241 NA
HETATM    5  C5  UNL     1      21.867   3.085  50.183  1.00  0.00     0.236 A 
HETATM    6  N2  UNL     1      23.102   3.393  49.779  1.00  0.00    -0.224 NA
HETATM    7  C6  UNL     1      24.153   2.812  50.366  1.00  0.00     0.142 A 
HETATM    8  C15 UNL     1      23.954   1.905  51.376  1.00  0.00     0.042 A 
HETATM    9  C16 UNL     1      24.933   1.235  52.062  1.00  0.00     0.057 A 
HETATM   10  C17 UNL     1      24.731   0.324  53.076  1.00  0.00     0.102 A 
ENDROOT
BRANCH   7  11
HETATM   11  N3  UNL     1      25.486   3.100  49.978  1.00  0.00    -0.340 N 
HETATM   12  H6  UNL     1      26.233   2.380  49.968  1.00  0.00     0.167 HD
BRANCH  11  13
HETATM   13  C7  UNL     1      26.055   4.325  49.551  1.00  0.00     0.033 A 
HETATM   14  C8  UNL     1      25.486   5.580  49.723  1.00  0.00     0.031 A 
HETATM   15  C9  UNL     1      26.070   6.749  49.307  1.00  0.00     0.031 A 
HETATM   16  C10 UNL     1      27.287   6.744  48.676  1.00  0.00     0.029 A 
HETATM   17  C13 UNL     1      27.890   5.527  48.482  1.00  0.00     0.031 A 
HETATM   18  C14 UNL     1      27.277   4.363  48.915  1.00  0.00     0.031 A 
BRANCH  16  19
HETATM   19  N4  UNL     1      27.891   7.950  48.247  1.00  0.00    -0.373 N 
HETATM   20  H9  UNL     1      27.719   8.270  47.249  1.00  0.00     0.161 HD
BRANCH  19  21
HETATM   21  C11 UNL     1      28.722   8.743  49.129  1.00  0.00     0.175 C 
HETATM   22  C12 UNL     1      28.588  10.206  48.748  1.00  0.00     0.049 C 
HETATM   23 CL1  UNL     1      30.420   8.296  48.881  1.00  0.00    -0.103 Cl
ENDBRANCH  19  21
ENDBRANCH  16  19
ENDBRANCH  11  13
ENDBRANCH   7  11
BRANCH  10  24
HETATM   24  O2  UNL     1      25.756  -0.329  53.740  1.00  0.00    -0.353 OA
HETATM   25  C18 UNL     1      26.880   0.278  54.301  1.00  0.00     0.210 C 
ENDBRANCH  10  24
BRANCH   1  26
HETATM   26  O1  UNL     1      23.150  -0.859  54.460  1.00  0.00    -0.353 OA
HETATM   27  C1  UNL     1      21.897  -1.499  54.556  1.00  0.00     0.210 C 
ENDBRANCH   1  26
TORSDOF 6
ENDMDL
MODEL 7
REMARK VINA RESULT:      -6.8      3.740      5.062
REMARK  6 active torsions:
REMARK  status: ('A' for Active; 'I' for Inactive)
REMARK    1  A    between atoms: O1_2  and  C2_3 
REMARK    2  A    between atoms: C6_9  and  N3_10 
REMARK    3  A    between atoms: N3_10  and  C7_11 
REMARK    4  A    between atoms: C10_14  and  N4_15 
REMARK    5  A    between atoms: N4_15  and  C11_16 
REMARK    6  A    between atoms: C17_23  and  O2_24 
ROOT
HETATM    1  C2  UNL     1      27.304   0.185  53.862  1.00  0.00     0.103 A 
HETATM    2  C3  UNL     1      27.697   1.131  52.940  1.00  0.00     0.072 A 
HETATM    3  C4  UNL     1      26.740   1.764  52.193  1.00  0.00     0.075 A 
HETATM    4  N1  UNL     1      27.158   2.697  51.288  1.00  0.00    -0.241 NA
HETATM    5  C5  UNL     1      26.254   3.354  50.526  1.00  0.00     0.236 A 
HETATM    6  N2  UNL     1      24.943   3.124  50.624  1.00  0.00    -0.224 NA
HETATM    7  C6  UNL     1      24.495   2.218  51.498  1.00  0.00     0.142 A 
HETATM    8  C15 UNL     1      25.386   1.534  52.287  1.00  0.00     0.042 A 
HETATM    9  C16 UNL     1      25.069   0.584  53.223  1.00  0.00     0.057 A 
HETATM   10  C17 UNL     1      25.965  -0.102  54.014  1.00  0.00     0.102 A 
ENDROOT
BRANCH   7  11
HETATM   11  N3  UNL     1      23.114   1.933  51.646  1.00  0.00    -0.340 N 
HETATM   12  H6  UNL     1      22.715   1.539  52.519  1.00  0.00     0.167 HD
BRANCH  11  13
HETATM   13  C7  UNL     1      22.055   2.106  50.722  1.00  0.00     0.033 A 
HETATM   14  C8  UNL     1      21.006   3.006  50.859  1.00  0.00     0.031 A 
HETATM   15  C9  UNL     1      20.000   3.157  49.939  1.00  0.00     0.031 A 
HETATM   16  C10 UNL     1      19.972   2.401  48.796  1.00  0.00     0.029 A 
HETATM   17  C13 UNL     1      20.987   1.496  48.614  1.00  0.00     0.031 A 
HETATM   18  C14 UNL     1      21.990   1.367  49.560  1.00  0.00     0.031 A 
BRANCH  16  19
HETATM   19  N4  UNL     1      18.934   2.556  47.846  1.00  0.00    -0.373 N 
HETATM   20  H9  UNL     1      17.990   2.119  48.058  1.00  0.00     0.161 HD
BRANCH  19  21
HETATM   21  C11 UNL     1      19.133   3.289  46.611  1.00  0.00     0.175 C 
HETATM   22  C12 UNL     1      18.993   4.773  46.892  1.00  0.00     0.049 C 
HETATM   23 CL1  UNL     1      17.850   2.854  45.468  1.00  0.00    -0.103 Cl
ENDBRANCH  19  21
ENDBRANCH  16  19
ENDBRANCH  11  13
ENDBRANCH   7  11
BRANCH  10  24
HETATM   24  O2  UNL     1      25.595  -1.055  54.948  1.00  0.00    -0.353 OA
HETATM   25  C18 UNL     1      24.313  -1.226  55.474  1.00  0.00     0.210 C 
ENDBRANCH  10  24
BRANCH   1  26
HETATM   26  O1  UNL     1      28.267  -0.468  54.629  1.00  0.00    -0.353 OA
HETATM   27  C1  UNL     1      29.519  -0.833  54.092  1.00  0.00     0.210 C 
ENDBRANCH   1  26
TORSDOF 6
ENDMDL
MODEL 8
REMARK VINA RESULT:      -6.8      2.127      3.665
REMARK  6 active torsions:
REMARK  status: ('A' for Active; 'I' for Inactive)
REMARK    1  A    between atoms: O1_2  and  C2_3 
REMARK    2  A    between atoms: C6_9  and  N3_10 
REMARK    3  A    between atoms: N3_10  and  C7_11 
REMARK    4  A    between atoms: C10_14  and  N4_15 
REMARK    5  A    between atoms: N4_15  and  C11_16 
REMARK    6  A    between atoms: C17_23  and  O2_24 
ROOT
HETATM    1  C2  UNL     1      25.839   1.142  53.359  1.00  0.00     0.103 A 
HETATM    2  C3  UNL     1      24.606   1.517  52.869  1.00  0.00     0.072 A 
HETATM    3  C4  UNL     1      24.550   2.237  51.705  1.00  0.00     0.075 A 
HETATM    4  N1  UNL     1      23.316   2.594  51.241  1.00  0.00    -0.241 NA
HETATM    5  C5  UNL     1      23.202   3.303  50.095  1.00  0.00     0.236 A 
HETATM    6  N2  UNL     1      24.268   3.676  49.383  1.00  0.00    -0.224 NA
HETATM    7  C6  UNL     1      25.493   3.345  49.805  1.00  0.00     0.142 A 
HETATM    8  C15 UNL     1      25.643   2.625  50.963  1.00  0.00     0.042 A 
HETATM    9  C16 UNL     1      26.832   2.217  51.510  1.00  0.00     0.057 A 
HETATM   10  C17 UNL     1      26.980   1.494  52.674  1.00  0.00     0.102 A 
ENDROOT
BRANCH   7  11
HETATM   11  N3  UNL     1      26.659   3.713  49.089  1.00  0.00    -0.340 N 
HETATM   12  H6  UNL     1      27.289   3.014  48.650  1.00  0.00     0.167 HD
BRANCH  11  13
HETATM   13  C7  UNL     1      27.188   5.000  48.827  1.00  0.00     0.033 A 
HETATM   14  C8  UNL     1      26.495   6.197  48.960  1.00  0.00     0.031 A 
HETATM   15  C9  UNL     1      27.040   7.430  48.709  1.00  0.00     0.031 A 
HETATM   16  C10 UNL     1      28.342   7.554  48.297  1.00  0.00     0.029 A 
HETATM   17  C13 UNL     1      29.069   6.400  48.151  1.00  0.00     0.031 A 
HETATM   18  C14 UNL     1      28.492   5.169  48.413  1.00  0.00     0.031 A 
BRANCH  16  19
HETATM   19  N4  UNL     1      28.905   8.827  48.039  1.00  0.00    -0.373 N 
HETATM   20  H9  UNL     1      29.498   9.277  48.796  1.00  0.00     0.161 HD
BRANCH  19  21
HETATM   21  C11 UNL     1      28.693   9.514  46.781  1.00  0.00     0.175 C 
HETATM   22  C12 UNL     1      27.532  10.479  46.937  1.00  0.00     0.049 C 
HETATM   23 CL1  UNL     1      28.221   8.331  45.548  1.00  0.00    -0.103 Cl
ENDBRANCH  19  21
ENDBRANCH  16  19
ENDBRANCH  11  13
ENDBRANCH   7  11
BRANCH  10  24
HETATM   24  O2  UNL     1      28.206   1.104  53.186  1.00  0.00    -0.353 OA
HETATM   25  C18 UNL     1      28.999   1.849  54.061  1.00  0.00     0.210 C 
ENDBRANCH  10  24
BRANCH   1  26
HETATM   26  O1  UNL     1      25.912   0.410  54.543  1.00  0.00    -0.353 OA
HETATM   27  C1  UNL     1      25.157  -0.766  54.735  1.00  0.00     0.210 C 
ENDBRANCH   1  26
TORSDOF 6
ENDMDL
MODEL 9
REMARK VINA RESULT:      -6.8      3.190      5.151
REMARK  6 active torsions:
REMARK  status: ('A' for Active; 'I' for Inactive)
REMARK    1  A    between atoms: O1_2  and  C2_3 
REMARK    2  A    between atoms: C6_9  and  N3_10 
REMARK    3  A    between atoms: N3_10  and  C7_11 
REMARK    4  A    between atoms: C10_14  and  N4_15 
REMARK    5  A    between atoms: N4_15  and  C11_16 
REMARK    6  A    between atoms: C17_23  and  O2_24 
ROOT
HETATM    1  C2  UNL     1      22.296   3.008  51.951  1.00  0.00     0.103 A 
HETATM    2  C3  UNL     1      23.333   2.530  52.723  1.00  0.00     0.072 A 
HETATM    3  C4  UNL     1      24.606   2.576  52.221  1.00  0.00     0.075 A 
HETATM    4  N1  UNL     1      25.614   2.097  53.007  1.00  0.00    -0.241 NA
HETATM    5  C5  UNL     1      26.891   2.120  52.561  1.00  0.00     0.236 A 
HETATM    6  N2  UNL     1      27.213   2.602  51.359  1.00  0.00    -0.224 NA
HETATM    7  C6  UNL     1      26.254   3.080  50.560  1.00  0.00     0.142 A 
HETATM    8  C15 UNL     1      24.948   3.071  50.983  1.00  0.00     0.042 A 
HETATM    9  C16 UNL     1      23.868   3.528  50.273  1.00  0.00     0.057 A 
HETATM   10  C17 UNL     1      22.558   3.519  50.700  1.00  0.00     0.102 A 
ENDROOT
BRANCH   7  11
HETATM   11  N3  UNL     1      26.538   3.605  49.274  1.00  0.00    -0.340 N 
HETATM   12  H6  UNL     1      26.349   3.077  48.401  1.00  0.00     0.167 HD
BRANCH  11  13
HETATM   13  C7  UNL     1      27.092   4.857  48.915  1.00  0.00     0.033 A 
HETATM   14  C8  UNL     1      28.364   5.054  48.391  1.00  0.00     0.031 A 
HETATM   15  C9  UNL     1      28.868   6.281  48.043  1.00  0.00     0.031 A 
HETATM   16  C10 UNL     1      28.120   7.419  48.198  1.00  0.00     0.029 A 
HETATM   17  C13 UNL     1      26.856   7.277  48.711  1.00  0.00     0.031 A 
HETATM   18  C14 UNL     1      26.374   6.025  49.053  1.00  0.00     0.031 A 
BRANCH  16  19
HETATM   19  N4  UNL     1      28.639   8.686  47.837  1.00  0.00    -0.373 N 
HETATM   20  H9  UNL     1      28.696   8.930  46.805  1.00  0.00     0.161 HD
BRANCH  19  21
HETATM   21  C11 UNL     1      29.085   9.639  48.833  1.00  0.00     0.175 C 
HETATM   22  C12 UNL     1      29.281  10.989  48.168  1.00  0.00     0.049 C 
HETATM   23 CL1  UNL     1      30.667   9.132  49.452  1.00  0.00    -0.103 Cl
ENDBRANCH  19  21
ENDBRANCH  16  19
ENDBRANCH  11  13
ENDBRANCH   7  11
BRANCH  10  24
HETATM   24  O2  UNL     1      21.499   3.995  49.944  1.00  0.00    -0.353 OA
HETATM   25  C18 UNL     1      21.075   5.323  49.880  1.00  0.00     0.210 C 
ENDBRANCH  10  24
BRANCH   1  26
HETATM   26  O1  UNL     1      20.994   2.967  52.449  1.00  0.00    -0.353 OA
HETATM   27  C1  UNL     1      20.323   1.746  52.668  1.00  0.00     0.210 C 
ENDBRANCH   1  26
TORSDOF 6
ENDMDL
