MODEL 1
REMARK VINA RESULT:     -10.1      0.000      0.000
REMARK  2 active torsions:
REMARK  status: ('A' for Active; 'I' for Inactive)
REMARK    1  A    between atoms: O1_2  and  C2_3 
REMARK    2  A    between atoms: C14_17  and  C15_18 
ROOT
HETATM    1  C2  UNL     1      25.289  -0.249  53.116  1.00  0.00     0.047 C 
HETATM    2  C3  UNL     1      26.091   0.569  52.374  1.00  0.00     0.039 C 
HETATM    3  C4  UNL     1      25.809   1.730  51.561  1.00  0.00    -0.053 C 
HETATM    4  C5  UNL     1      26.536   2.473  50.824  1.00  0.00     0.009 C 
HETATM    5  C6  UNL     1      26.397   3.600  49.991  1.00  0.00     0.020 C 
HETATM    6  C7  UNL     1      26.065   4.578  49.310  1.00  0.00     0.116 C 
HETATM    7  N1  UNL     1      25.784   5.688  48.519  1.00  0.00    -0.275 NA
HETATM    8  C8  UNL     1      24.716   6.445  48.680  1.00  0.00     0.115 C 
HETATM    9  C9  UNL     1      24.034   5.891  49.724  1.00  0.00     0.216 C 
HETATM   10  O2  UNL     1      23.043   6.627  50.567  1.00  0.00    -0.371 OA
HETATM   11  C10 UNL     1      22.545   5.583  51.483  1.00  0.00     0.101 A 
HETATM   12  C11 UNL     1      23.795   5.750  52.100  1.00  0.00    -0.004 A 
HETATM   13  C12 UNL     1      23.219   4.744  52.718  1.00  0.00     0.088 A 
HETATM   14  C13 UNL     1      22.041   4.266  52.466  1.00  0.00     0.208 A 
HETATM   15  C14 UNL     1      20.866   3.802  52.201  1.00  0.00     0.273 A 
HETATM   16  C15 UNL     1      21.387   4.888  51.463  1.00  0.00     0.130 A 
HETATM   17  N2  UNL     1      19.685   3.139  51.961  1.00  0.00    -0.256 NA
HETATM   18  C16 UNL     1      19.844   1.819  52.160  1.00  0.00     0.150 A 
HETATM   19  C17 UNL     1      21.258   1.516  52.528  1.00  0.00     0.154 A 
HETATM   20  C18 UNL     1      21.668   0.281  52.773  1.00  0.00     0.017 C 
HETATM   21  C19 UNL     1      22.666  -0.836  53.131  1.00  0.00     0.012 C 
HETATM   22  C20 UNL     1      22.264  -1.285  54.513  1.00  0.00     0.014 C 
HETATM   23  C21 UNL     1      23.896  -0.038  53.142  1.00  0.00     0.072 C 
HETATM   24  N3  UNL     1      21.797   2.813  52.539  1.00  0.00     0.012 N 
HETATM   25  C22 UNL     1      23.232   2.703  52.003  1.00  0.00     0.215 C 
HETATM   26  C23 UNL     1      24.534   2.314  51.712  1.00  0.00     0.103 C 
ENDROOT
BRANCH   1  27
HETATM   27  O1  UNL     1      26.048  -1.232  53.745  1.00  0.00    -0.360 OA
HETATM   28  C1  UNL     1      27.191  -1.744  53.045  1.00  0.00     0.209 C 
ENDBRANCH   1  27
TORSDOF 2
ENDMDL
MODEL 2
REMARK VINA RESULT:     -10.1      2.899      5.440
REMARK  2 active torsions:
REMARK  status: ('A' for Active; 'I' for Inactive)
REMARK    1  A    between atoms: O1_2  and  C2_3 
REMARK    2  A    between atoms: C14_17  and  C15_18 
ROOT
HETATM    1  C2  UNL     1      19.380  -0.388  53.085  1.00  0.00     0.047 C 
HETATM    2  C3  UNL     1      20.406  -0.768  53.899  1.00  0.00     0.039 C 
HETATM    3  C4  UNL     1      21.838  -0.606  53.798  1.00  0.00    -0.053 C 
HETATM    4  C5  UNL     1      22.811  -0.998  54.522  1.00  0.00     0.009 C 
HETATM    5  C6  UNL     1      24.217  -0.923  54.538  1.00  0.00     0.020 C 
HETATM    6  C7  UNL     1      25.430  -0.749  54.367  1.00  0.00     0.116 C 
HETATM    7  N1  UNL     1      26.809  -0.600  54.257  1.00  0.00    -0.275 NA
HETATM    8  C8  UNL     1      27.384   0.342  53.535  1.00  0.00     0.115 C 
HETATM    9  C9  UNL     1      26.358   1.050  52.981  1.00  0.00     0.216 C 
HETATM   10  O2  UNL     1      26.477   2.454  52.481  1.00  0.00    -0.371 OA
HETATM   11  C10 UNL     1      25.140   2.723  51.920  1.00  0.00     0.101 A 
HETATM   12  C11 UNL     1      24.764   2.810  53.269  1.00  0.00    -0.004 A 
HETATM   13  C12 UNL     1      23.651   2.909  52.578  1.00  0.00     0.088 A 
HETATM   14  C13 UNL     1      23.550   2.888  51.287  1.00  0.00     0.208 A 
HETATM   15  C14 UNL     1      23.467   2.865  49.999  1.00  0.00     0.273 A 
HETATM   16  C15 UNL     1      24.723   2.742  50.635  1.00  0.00     0.130 A 
HETATM   17  N2  UNL     1      23.217   2.749  48.651  1.00  0.00    -0.256 NA
HETATM   18  C16 UNL     1      22.063   2.090  48.448  1.00  0.00     0.150 A 
HETATM   19  C17 UNL     1      21.470   1.667  49.750  1.00  0.00     0.154 A 
HETATM   20  C18 UNL     1      20.329   0.998  49.815  1.00  0.00     0.017 C 
HETATM   21  C19 UNL     1      19.156   0.260  50.485  1.00  0.00     0.012 C 
HETATM   22  C20 UNL     1      17.969   1.174  50.300  1.00  0.00     0.014 C 
HETATM   23  C21 UNL     1      19.651   0.266  51.865  1.00  0.00     0.072 C 
HETATM   24  N3  UNL     1      22.410   2.210  50.640  1.00  0.00     0.012 N 
HETATM   25  C22 UNL     1      22.536   1.222  51.811  1.00  0.00     0.215 C 
HETATM   26  C23 UNL     1      22.306   0.306  52.830  1.00  0.00     0.103 C 
ENDROOT
BRANCH   1  27
HETATM   27  O1  UNL     1      18.158  -0.761  53.637  1.00  0.00    -0.360 OA
HETATM   28  C1  UNL     1      17.730  -2.118  53.459  1.00  0.00     0.209 C 
ENDBRANCH   1  27
TORSDOF 2
ENDMDL
MODEL 3
REMARK VINA RESULT:      -9.7      2.503      3.819
REMARK  2 active torsions:
REMARK  status: ('A' for Active; 'I' for Inactive)
REMARK    1  A    between atoms: O1_2  and  C2_3 
REMARK    2  A    between atoms: C14_17  and  C15_18 
ROOT
HETATM    1  C2  UNL     1      26.586   2.022  52.127  1.00  0.00     0.047 C 
HETATM    2  C3  UNL     1      26.080   2.674  51.040  1.00  0.00     0.039 C 
HETATM    3  C4  UNL     1      24.772   2.671  50.428  1.00  0.00    -0.053 C 
HETATM    4  C5  UNL     1      24.297   3.232  49.386  1.00  0.00     0.009 C 
HETATM    5  C6  UNL     1      23.079   3.308  48.686  1.00  0.00     0.020 C 
HETATM    6  C7  UNL     1      21.934   3.239  48.221  1.00  0.00     0.116 C 
HETATM    7  N1  UNL     1      20.675   3.223  47.628  1.00  0.00    -0.275 NA
HETATM    8  C8  UNL     1      19.572   2.896  48.274  1.00  0.00     0.115 C 
HETATM    9  C9  UNL     1      19.970   2.604  49.547  1.00  0.00     0.216 C 
HETATM   10  O2  UNL     1      19.069   2.639  50.738  1.00  0.00    -0.371 OA
HETATM   11  C10 UNL     1      19.945   2.177  51.832  1.00  0.00     0.101 A 
HETATM   12  C11 UNL     1      20.502   3.460  51.715  1.00  0.00    -0.004 A 
HETATM   13  C12 UNL     1      21.246   2.823  52.591  1.00  0.00     0.088 A 
HETATM   14  C13 UNL     1      21.071   1.606  52.999  1.00  0.00     0.208 A 
HETATM   15  C14 UNL     1      20.881   0.392  53.395  1.00  0.00     0.273 A 
HETATM   16  C15 UNL     1      20.017   0.973  52.440  1.00  0.00     0.130 A 
HETATM   17  N2  UNL     1      20.866  -0.915  53.825  1.00  0.00    -0.256 NA
HETATM   18  C16 UNL     1      22.123  -1.367  53.981  1.00  0.00     0.150 A 
HETATM   19  C17 UNL     1      23.106  -0.314  53.591  1.00  0.00     0.154 A 
HETATM   20  C18 UNL     1      24.412  -0.519  53.655  1.00  0.00     0.017 C 
HETATM   21  C19 UNL     1      25.908  -0.183  53.508  1.00  0.00     0.012 C 
HETATM   22  C20 UNL     1      26.416  -0.060  54.923  1.00  0.00     0.014 C 
HETATM   23  C21 UNL     1      25.778   1.121  52.850  1.00  0.00     0.072 C 
HETATM   24  N3  UNL     1      22.231   0.733  53.260  1.00  0.00     0.012 N 
HETATM   25  C22 UNL     1      22.860   1.480  52.073  1.00  0.00     0.215 C 
HETATM   26  C23 UNL     1      23.722   2.101  51.178  1.00  0.00     0.103 C 
ENDROOT
BRANCH   1  27
HETATM   27  O1  UNL     1      27.917   2.377  52.330  1.00  0.00    -0.360 OA
HETATM   28  C1  UNL     1      28.381   2.483  53.683  1.00  0.00     0.209 C 
ENDBRANCH   1  27
TORSDOF 2
ENDMDL
MODEL 4
REMARK VINA RESULT:      -9.7      2.041      5.759
REMARK  2 active torsions:
REMARK  status: ('A' for Active; 'I' for Inactive)
REMARK    1  A    between atoms: O1_2  and  C2_3 
REMARK    2  A    between atoms: C14_17  and  C15_18 
ROOT
HETATM    1  C2  UNL     1      26.126   3.259  49.873  1.00  0.00     0.047 C 
HETATM    2  C3  UNL     1      26.590   2.275  50.696  1.00  0.00     0.039 C 
HETATM    3  C4  UNL     1      25.977   1.552  51.786  1.00  0.00    -0.053 C 
HETATM    4  C5  UNL     1      26.409   0.668  52.596  1.00  0.00     0.009 C 
HETATM    5  C6  UNL     1      25.940  -0.095  53.682  1.00  0.00     0.020 C 
HETATM    6  C7  UNL     1      25.342  -0.657  54.608  1.00  0.00     0.116 C 
HETATM    7  N1  UNL     1      24.750  -1.341  55.665  1.00  0.00    -0.275 NA
HETATM    8  C8  UNL     1      23.445  -1.476  55.805  1.00  0.00     0.115 C 
HETATM    9  C9  UNL     1      22.897  -0.823  54.739  1.00  0.00     0.216 C 
HETATM   10  O2  UNL     1      21.525  -1.082  54.208  1.00  0.00    -0.371 OA
HETATM   11  C10 UNL     1      21.391  -0.084  53.130  1.00  0.00     0.101 A 
HETATM   12  C11 UNL     1      22.256  -0.946  52.438  1.00  0.00    -0.004 A 
HETATM   13  C12 UNL     1      22.101   0.105  51.665  1.00  0.00     0.088 A 
HETATM   14  C13 UNL     1      21.366   1.140  51.922  1.00  0.00     0.208 A 
HETATM   15  C14 UNL     1      20.629   2.164  52.195  1.00  0.00     0.273 A 
HETATM   16  C15 UNL     1      20.726   1.091  53.109  1.00  0.00     0.130 A 
HETATM   17  N2  UNL     1      19.975   3.357  52.398  1.00  0.00    -0.256 NA
HETATM   18  C16 UNL     1      20.687   4.371  51.876  1.00  0.00     0.150 A 
HETATM   19  C17 UNL     1      21.964   3.866  51.295  1.00  0.00     0.154 A 
HETATM   20  C18 UNL     1      22.841   4.675  50.721  1.00  0.00     0.017 C 
HETATM   21  C19 UNL     1      24.144   5.071  50.003  1.00  0.00     0.012 C 
HETATM   22  C20 UNL     1      23.717   5.444  48.605  1.00  0.00     0.014 C 
HETATM   23  C21 UNL     1      24.825   3.774  50.048  1.00  0.00     0.072 C 
HETATM   24  N3  UNL     1      21.819   2.489  51.534  1.00  0.00     0.012 N 
HETATM   25  C22 UNL     1      23.217   1.946  51.869  1.00  0.00     0.215 C 
HETATM   26  C23 UNL     1      24.578   1.670  51.918  1.00  0.00     0.103 C 
ENDROOT
BRANCH   1  27
HETATM   27  O1  UNL     1      27.104   3.621  48.950  1.00  0.00    -0.360 OA
HETATM   28  C1  UNL     1      27.406   5.016  48.808  1.00  0.00     0.209 C 
ENDBRANCH   1  27
TORSDOF 2
ENDMDL
MODEL 5
REMARK VINA RESULT:      -9.2      2.718      4.927
REMARK  2 active torsions:
REMARK  status: ('A' for Active; 'I' for Inactive)
REMARK    1  A    between atoms: O1_2  and  C2_3 
REMARK    2  A    between atoms: C14_17  and  C15_18 
ROOT
HETATM    1  C2  UNL     1      26.132   3.323  50.020  1.00  0.00     0.047 C 
HETATM    2  C3  UNL     1      25.125   3.714  49.187  1.00  0.00     0.039 C 
HETATM    3  C4  UNL     1      23.723   3.370  49.130  1.00  0.00    -0.053 C 
HETATM    4  C5  UNL     1      22.781   3.686  48.331  1.00  0.00     0.009 C 
HETATM    5  C6  UNL     1      21.409   3.426  48.154  1.00  0.00     0.020 C 
HETATM    6  C7  UNL     1      20.225   3.069  48.172  1.00  0.00     0.116 C 
HETATM    7  N1  UNL     1      18.877   2.724  48.115  1.00  0.00    -0.275 NA
HETATM    8  C8  UNL     1      18.199   2.268  49.150  1.00  0.00     0.115 C 
HETATM    9  C9  UNL     1      19.093   2.229  50.180  1.00  0.00     0.216 C 
HETATM   10  O2  UNL     1      18.712   2.235  51.625  1.00  0.00    -0.371 OA
HETATM   11  C10 UNL     1      20.011   2.103  52.313  1.00  0.00     0.101 A 
HETATM   12  C11 UNL     1      20.169   3.446  51.936  1.00  0.00    -0.004 A 
HETATM   13  C12 UNL     1      21.310   3.089  52.481  1.00  0.00     0.088 A 
HETATM   14  C13 UNL     1      21.587   1.924  52.976  1.00  0.00     0.208 A 
HETATM   15  C14 UNL     1      21.847   0.758  53.465  1.00  0.00     0.273 A 
HETATM   16  C15 UNL     1      20.582   1.027  52.896  1.00  0.00     0.130 A 
HETATM   17  N2  UNL     1      22.298  -0.459  53.922  1.00  0.00    -0.256 NA
HETATM   18  C16 UNL     1      23.592  -0.625  53.597  1.00  0.00     0.150 A 
HETATM   19  C17 UNL     1      24.087   0.544  52.814  1.00  0.00     0.154 A 
HETATM   20  C18 UNL     1      25.334   0.615  52.375  1.00  0.00     0.017 C 
HETATM   21  C19 UNL     1      26.547   1.223  51.647  1.00  0.00     0.012 C 
HETATM   22  C20 UNL     1      27.496   1.626  52.748  1.00  0.00     0.014 C 
HETATM   23  C21 UNL     1      25.882   2.378  51.037  1.00  0.00     0.072 C 
HETATM   24  N3  UNL     1      22.932   1.343  52.803  1.00  0.00     0.012 N 
HETATM   25  C22 UNL     1      22.887   2.041  51.436  1.00  0.00     0.215 C 
HETATM   26  C23 UNL     1      23.187   2.703  50.251  1.00  0.00     0.103 C 
ENDROOT
BRANCH   1  27
HETATM   27  O1  UNL     1      27.321   3.960  49.676  1.00  0.00    -0.360 OA
HETATM   28  C1  UNL     1      27.246   5.070  48.771  1.00  0.00     0.209 C 
ENDBRANCH   1  27
TORSDOF 2
ENDMDL
MODEL 6
REMARK VINA RESULT:      -8.9      2.370      5.499
REMARK  2 active torsions:
REMARK  status: ('A' for Active; 'I' for Inactive)
REMARK    1  A    between atoms: O1_2  and  C2_3 
REMARK    2  A    between atoms: C14_17  and  C15_18 
ROOT
HETATM    1  C2  UNL     1      25.141  -0.370  53.825  1.00  0.00     0.047 C 
HETATM    2  C3  UNL     1      24.005  -1.106  53.996  1.00  0.00     0.039 C 
HETATM    3  C4  UNL     1      22.615  -0.827  53.716  1.00  0.00    -0.053 C 
HETATM    4  C5  UNL     1      21.539  -1.480  53.915  1.00  0.00     0.009 C 
HETATM    5  C6  UNL     1      20.155  -1.330  53.708  1.00  0.00     0.020 C 
HETATM    6  C7  UNL     1      18.990  -1.004  53.446  1.00  0.00     0.116 C 
HETATM    7  N1  UNL     1      17.652  -0.724  53.185  1.00  0.00    -0.275 NA
HETATM    8  C8  UNL     1      17.256   0.168  52.298  1.00  0.00     0.115 C 
HETATM    9  C9  UNL     1      18.401   0.687  51.768  1.00  0.00     0.216 C 
HETATM   10  O2  UNL     1      18.483   1.364  50.439  1.00  0.00    -0.371 OA
HETATM   11  C10 UNL     1      19.890   1.802  50.373  1.00  0.00     0.101 A 
HETATM   12  C11 UNL     1      20.138   0.439  50.143  1.00  0.00    -0.004 A 
HETATM   13  C12 UNL     1      21.318   1.009  50.241  1.00  0.00     0.088 A 
HETATM   14  C13 UNL     1      21.543   2.268  50.443  1.00  0.00     0.208 A 
HETATM   15  C14 UNL     1      21.749   3.527  50.644  1.00  0.00     0.273 A 
HETATM   16  C15 UNL     1      20.431   3.024  50.564  1.00  0.00     0.130 A 
HETATM   17  N2  UNL     1      22.117   4.814  50.961  1.00  0.00    -0.256 NA
HETATM   18  C16 UNL     1      23.208   4.805  51.747  1.00  0.00     0.150 A 
HETATM   19  C17 UNL     1      23.622   3.403  52.046  1.00  0.00     0.154 A 
HETATM   20  C18 UNL     1      24.673   3.130  52.804  1.00  0.00     0.017 C 
HETATM   21  C19 UNL     1      25.689   2.248  53.552  1.00  0.00     0.012 C 
HETATM   22  C20 UNL     1      26.978   2.409  52.786  1.00  0.00     0.014 C 
HETATM   23  C21 UNL     1      25.064   0.942  53.317  1.00  0.00     0.072 C 
HETATM   24  N3  UNL     1      22.662   2.696  51.304  1.00  0.00     0.012 N 
HETATM   25  C22 UNL     1      22.316   1.435  52.111  1.00  0.00     0.215 C 
HETATM   26  C23 UNL     1      22.346   0.292  52.901  1.00  0.00     0.103 C 
ENDROOT
BRANCH   1  27
HETATM   27  O1  UNL     1      26.256  -1.097  54.234  1.00  0.00    -0.360 OA
HETATM   28  C1  UNL     1      27.303  -1.308  53.277  1.00  0.00     0.209 C 
ENDBRANCH   1  27
TORSDOF 2
ENDMDL
MODEL 7
REMARK VINA RESULT:      -8.9      2.480      4.828
REMARK  2 active torsions:
REMARK  status: ('A' for Active; 'I' for Inactive)
REMARK    1  A    between atoms: O1_2  and  C2_3 
REMARK    2  A    between atoms: C14_17  and  C15_18 
ROOT
HETATM    1  C2  UNL     1      20.542   2.547  52.170  1.00  0.00     0.047 C 
HETATM    2  C3  UNL     1      20.542   3.862  51.805  1.00  0.00     0.039 C 
HETATM    3  C4  UNL     1      21.610   4.784  51.497  1.00  0.00    -0.053 C 
HETATM    4  C5  UNL     1      21.632   6.025  51.204  1.00  0.00     0.009 C 
HETATM    5  C6  UNL     1      22.573   7.025  50.897  1.00  0.00     0.020 C 
HETATM    6  C7  UNL     1      23.548   7.749  50.659  1.00  0.00     0.116 C 
HETATM    7  N1  UNL     1      24.582   8.636  50.375  1.00  0.00    -0.275 NA
HETATM    8  C8  UNL     1      25.779   8.253  49.975  1.00  0.00     0.115 C 
HETATM    9  C9  UNL     1      25.727   6.890  49.927  1.00  0.00     0.216 C 
HETATM   10  O2  UNL     1      26.644   6.041  49.109  1.00  0.00    -0.371 OA
HETATM   11  C10 UNL     1      26.232   4.669  49.462  1.00  0.00     0.101 A 
HETATM   12  C11 UNL     1      25.126   4.961  48.648  1.00  0.00    -0.004 A 
HETATM   13  C12 UNL     1      24.886   3.781  49.173  1.00  0.00     0.088 A 
HETATM   14  C13 UNL     1      25.662   3.132  49.982  1.00  0.00     0.208 A 
HETATM   15  C14 UNL     1      26.449   2.500  50.787  1.00  0.00     0.273 A 
HETATM   16  C15 UNL     1      26.811   3.771  50.288  1.00  0.00     0.130 A 
HETATM   17  N2  UNL     1      27.131   1.764  51.728  1.00  0.00    -0.256 NA
HETATM   18  C16 UNL     1      26.265   1.160  52.561  1.00  0.00     0.150 A 
HETATM   19  C17 UNL     1      24.863   1.528  52.211  1.00  0.00     0.154 A 
HETATM   20  C18 UNL     1      23.826   1.060  52.888  1.00  0.00     0.017 C 
HETATM   21  C19 UNL     1      22.344   0.876  53.261  1.00  0.00     0.012 C 
HETATM   22  C20 UNL     1      22.017  -0.540  52.858  1.00  0.00     0.014 C 
HETATM   23  C21 UNL     1      21.762   1.862  52.345  1.00  0.00     0.072 C 
HETATM   24  N3  UNL     1      25.092   2.347  51.093  1.00  0.00     0.012 N 
HETATM   25  C22 UNL     1      24.045   3.470  51.141  1.00  0.00     0.215 C 
HETATM   26  C23 UNL     1      22.888   4.227  51.285  1.00  0.00     0.103 C 
ENDROOT
BRANCH   1  27
HETATM   27  O1  UNL     1      19.237   2.090  52.337  1.00  0.00    -0.360 OA
HETATM   28  C1  UNL     1      18.787   1.031  51.481  1.00  0.00     0.209 C 
ENDBRANCH   1  27
TORSDOF 2
ENDMDL
MODEL 8
REMARK VINA RESULT:      -8.8      1.849      2.756
REMARK  2 active torsions:
REMARK  status: ('A' for Active; 'I' for Inactive)
REMARK    1  A    between atoms: O1_2  and  C2_3 
REMARK    2  A    between atoms: C14_17  and  C15_18 
ROOT
HETATM    1  C2  UNL     1      21.921  -0.317  53.230  1.00  0.00     0.047 C 
HETATM    2  C3  UNL     1      23.238   0.025  53.120  1.00  0.00     0.039 C 
HETATM    3  C4  UNL     1      23.930   0.955  52.258  1.00  0.00    -0.053 C 
HETATM    4  C5  UNL     1      25.161   1.250  52.107  1.00  0.00     0.009 C 
HETATM    5  C6  UNL     1      25.957   2.104  51.321  1.00  0.00     0.020 C 
HETATM    6  C7  UNL     1      26.470   2.914  50.538  1.00  0.00     0.116 C 
HETATM    7  N1  UNL     1      27.133   3.802  49.697  1.00  0.00    -0.275 NA
HETATM    8  C8  UNL     1      26.545   4.831  49.117  1.00  0.00     0.115 C 
HETATM    9  C9  UNL     1      25.244   4.783  49.526  1.00  0.00     0.216 C 
HETATM   10  O2  UNL     1      24.318   5.955  49.525  1.00  0.00    -0.371 OA
HETATM   11  C10 UNL     1      23.039   5.370  49.972  1.00  0.00     0.101 A 
HETATM   12  C11 UNL     1      23.665   5.357  51.228  1.00  0.00    -0.004 A 
HETATM   13  C12 UNL     1      22.513   4.747  51.393  1.00  0.00     0.088 A 
HETATM   14  C13 UNL     1      21.616   4.551  50.481  1.00  0.00     0.208 A 
HETATM   15  C14 UNL     1      20.732   4.364  49.558  1.00  0.00     0.273 A 
HETATM   16  C15 UNL     1      21.942   5.030  49.261  1.00  0.00     0.130 A 
HETATM   17  N2  UNL     1      19.755   4.001  48.661  1.00  0.00    -0.256 NA
HETATM   18  C16 UNL     1      19.261   2.791  48.975  1.00  0.00     0.150 A 
HETATM   19  C17 UNL     1      19.971   2.232  50.163  1.00  0.00     0.154 A 
HETATM   20  C18 UNL     1      19.666   1.047  50.667  1.00  0.00     0.017 C 
HETATM   21  C19 UNL     1      19.773  -0.156  51.622  1.00  0.00     0.012 C 
HETATM   22  C20 UNL     1      18.523  -0.092  52.465  1.00  0.00     0.014 C 
HETATM   23  C21 UNL     1      20.966   0.257  52.366  1.00  0.00     0.072 C 
HETATM   24  N3  UNL     1      20.848   3.291  50.450  1.00  0.00     0.012 N 
HETATM   25  C22 UNL     1      22.161   2.662  50.940  1.00  0.00     0.215 C 
HETATM   26  C23 UNL     1      23.133   1.876  51.548  1.00  0.00     0.103 C 
ENDROOT
BRANCH   1  27
HETATM   27  O1  UNL     1      21.748  -1.259  54.241  1.00  0.00    -0.360 OA
HETATM   28  C1  UNL     1      22.787  -1.386  55.221  1.00  0.00     0.209 C 
ENDBRANCH   1  27
TORSDOF 2
ENDMDL
MODEL 9
REMARK VINA RESULT:      -8.7      2.782      5.687
REMARK  2 active torsions:
REMARK  status: ('A' for Active; 'I' for Inactive)
REMARK    1  A    between atoms: O1_2  and  C2_3 
REMARK    2  A    between atoms: C14_17  and  C15_18 
ROOT
HETATM    1  C2  UNL     1      26.473   2.425  51.521  1.00  0.00     0.047 C 
HETATM    2  C3  UNL     1      25.620   1.696  52.297  1.00  0.00     0.039 C 
HETATM    3  C4  UNL     1      24.182   1.561  52.298  1.00  0.00    -0.053 C 
HETATM    4  C5  UNL     1      23.368   0.925  53.045  1.00  0.00     0.009 C 
HETATM    5  C6  UNL     1      21.981   0.717  53.164  1.00  0.00     0.020 C 
HETATM    6  C7  UNL     1      20.746   0.668  53.100  1.00  0.00     0.116 C 
HETATM    7  N1  UNL     1      19.359   0.551  53.103  1.00  0.00    -0.275 NA
HETATM    8  C8  UNL     1      18.606   0.799  52.049  1.00  0.00     0.115 C 
HETATM    9  C9  UNL     1      19.474   1.167  51.062  1.00  0.00     0.216 C 
HETATM   10  O2  UNL     1      19.169   1.091  49.601  1.00  0.00    -0.371 OA
HETATM   11  C10 UNL     1      20.376   1.666  48.978  1.00  0.00     0.101 A 
HETATM   12  C11 UNL     1      20.951   0.434  49.330  1.00  0.00    -0.004 A 
HETATM   13  C12 UNL     1      21.931   1.165  48.846  1.00  0.00     0.088 A 
HETATM   14  C13 UNL     1      21.829   2.373  48.392  1.00  0.00     0.208 A 
HETATM   15  C14 UNL     1      21.710   3.578  47.943  1.00  0.00     0.273 A 
HETATM   16  C15 UNL     1      20.583   2.890  48.447  1.00  0.00     0.130 A 
HETATM   17  N2  UNL     1      21.753   4.892  47.537  1.00  0.00    -0.256 NA
HETATM   18  C16 UNL     1      22.909   5.459  47.925  1.00  0.00     0.150 A 
HETATM   19  C17 UNL     1      23.731   4.487  48.702  1.00  0.00     0.154 A 
HETATM   20  C18 UNL     1      24.916   4.810  49.196  1.00  0.00     0.017 C 
HETATM   21  C19 UNL     1      26.234   4.605  49.965  1.00  0.00     0.012 C 
HETATM   22  C20 UNL     1      27.302   4.575  48.899  1.00  0.00     0.014 C 
HETATM   23  C21 UNL     1      25.963   3.274  50.516  1.00  0.00     0.072 C 
HETATM   24  N3  UNL     1      22.902   3.355  48.641  1.00  0.00     0.012 N 
HETATM   25  C22 UNL     1      23.039   2.629  49.988  1.00  0.00     0.215 C 
HETATM   26  C23 UNL     1      23.498   2.058  51.169  1.00  0.00     0.103 C 
ENDROOT
BRANCH   1  27
HETATM   27  O1  UNL     1      27.792   2.199  51.904  1.00  0.00    -0.360 OA
HETATM   28  C1  UNL     1      28.084   2.167  53.308  1.00  0.00     0.209 C 
ENDBRANCH   1  27
TORSDOF 2
ENDMDL
