MODEL 1
REMARK VINA RESULT:      -8.9      0.000      0.000
REMARK  2 active torsions:
REMARK  status: ('A' for Active; 'I' for Inactive)
REMARK    1  A    between atoms: N3_14  and  C12_15 
REMARK    2  A    between atoms: C12_15  and  C13_16 
ROOT
HETATM    1  C1  UNL     1      18.883  -1.481  53.505  1.00  0.00     0.066 C 
HETATM    2  C2  UNL     1      19.453  -0.190  53.024  1.00  0.00     0.014 C 
HETATM    3  N1  UNL     1      18.867   0.788  52.350  1.00  0.00    -0.251 NA
HETATM    4  C3  UNL     1      19.527   1.962  51.951  1.00  0.00     0.232 C 
HETATM    5  N2  UNL     1      20.331   2.678  52.647  1.00  0.00    -0.253 NA
HETATM    6  C4  UNL     1      20.956   3.846  52.157  1.00  0.00     0.130 C 
HETATM    7  C5  UNL     1      22.185   3.739  51.737  1.00  0.00    -0.009 C 
HETATM    8  C6  UNL     1      22.738   2.560  51.769  1.00  0.00     0.022 C 
HETATM    9  C7  UNL     1      22.391   1.495  52.666  1.00  0.00     0.247 C 
HETATM   10  C8  UNL     1      21.615   0.348  52.131  1.00  0.00     0.050 C 
HETATM   11  C9  UNL     1      20.805   0.014  53.363  1.00  0.00     0.037 C 
HETATM   12  C10 UNL     1      21.720  -0.897  54.060  1.00  0.00     0.041 C 
HETATM   13  C11 UNL     1      23.158  -0.538  53.749  1.00  0.00     0.274 C 
HETATM   14  N3  UNL     1      23.525   0.707  53.228  1.00  0.00     0.100 N 
ENDROOT
BRANCH  14  15
HETATM   15  C12 UNL     1      24.516   0.695  52.211  1.00  0.00     0.311 C 
BRANCH  15  16
HETATM   16  C13 UNL     1      25.869   0.318  52.605  1.00  0.00    -0.028 A 
HETATM   17  C14 UNL     1      26.436  -0.937  52.691  1.00  0.00     0.012 A 
HETATM   18  C15 UNL     1      27.739  -1.152  53.090  1.00  0.00     0.044 A 
HETATM   19  C16 UNL     1      28.553  -0.093  53.427  1.00  0.00     0.138 A 
HETATM   20  F1  UNL     1      29.828  -0.296  53.817  1.00  0.00    -0.204 F 
HETATM   21  C17 UNL     1      28.063   1.195  53.368  1.00  0.00     0.073 A 
HETATM   22 CL1  UNL     1      29.043   2.570  53.781  1.00  0.00    -0.081 Cl
HETATM   23  C18 UNL     1      26.753   1.346  52.963  1.00  0.00     0.035 A 
ENDBRANCH  15  16
ENDBRANCH  14  15
TORSDOF 2
ENDMDL
MODEL 2
REMARK VINA RESULT:      -8.8      1.525      1.947
REMARK  2 active torsions:
REMARK  status: ('A' for Active; 'I' for Inactive)
REMARK    1  A    between atoms: N3_14  and  C12_15 
REMARK    2  A    between atoms: C12_15  and  C13_16 
ROOT
HETATM    1  C1  UNL     1      19.416  -0.214  52.820  1.00  0.00     0.066 C 
HETATM    2  C2  UNL     1      20.247   0.976  52.478  1.00  0.00     0.014 C 
HETATM    3  N1  UNL     1      19.905   2.085  51.838  1.00  0.00    -0.251 NA
HETATM    4  C3  UNL     1      20.796   3.138  51.577  1.00  0.00     0.232 C 
HETATM    5  N2  UNL     1      21.652   3.652  52.382  1.00  0.00    -0.253 NA
HETATM    6  C4  UNL     1      22.515   4.711  52.027  1.00  0.00     0.130 C 
HETATM    7  C5  UNL     1      23.737   4.405  51.693  1.00  0.00    -0.009 C 
HETATM    8  C6  UNL     1      24.066   3.144  51.678  1.00  0.00     0.022 C 
HETATM    9  C7  UNL     1      23.458   2.110  52.465  1.00  0.00     0.247 C 
HETATM   10  C8  UNL     1      22.539   1.160  51.790  1.00  0.00     0.050 C 
HETATM   11  C9  UNL     1      21.579   0.908  52.931  1.00  0.00     0.037 C 
HETATM   12  C10 UNL     1      22.254  -0.196  53.624  1.00  0.00     0.041 C 
HETATM   13  C11 UNL     1      23.754  -0.090  53.447  1.00  0.00     0.274 C 
HETATM   14  N3  UNL     1      24.381   1.095  53.049  1.00  0.00     0.100 N 
ENDROOT
BRANCH  14  15
HETATM   15  C12 UNL     1      25.437   0.961  52.110  1.00  0.00     0.311 C 
BRANCH  15  16
HETATM   16  C13 UNL     1      26.761   0.651  52.637  1.00  0.00    -0.028 A 
HETATM   17  C14 UNL     1      27.723   1.503  53.138  1.00  0.00     0.012 A 
HETATM   18  C15 UNL     1      28.949   1.071  53.601  1.00  0.00     0.044 A 
HETATM   19  C16 UNL     1      29.274  -0.267  53.582  1.00  0.00     0.138 A 
HETATM   20  F1  UNL     1      30.470  -0.697  54.033  1.00  0.00    -0.204 F 
HETATM   21  C17 UNL     1      28.368  -1.186  53.096  1.00  0.00     0.073 A 
HETATM   22 CL1  UNL     1      28.721  -2.888  53.047  1.00  0.00    -0.081 Cl
HETATM   23  C18 UNL     1      27.159  -0.694  52.647  1.00  0.00     0.035 A 
ENDBRANCH  15  16
ENDBRANCH  14  15
TORSDOF 2
ENDMDL
MODEL 3
REMARK VINA RESULT:      -8.7      1.116      3.026
REMARK  2 active torsions:
REMARK  status: ('A' for Active; 'I' for Inactive)
REMARK    1  A    between atoms: N3_14  and  C12_15 
REMARK    2  A    between atoms: C12_15  and  C13_16 
ROOT
HETATM    1  C1  UNL     1      21.613   4.287  51.107  1.00  0.00     0.066 C 
HETATM    2  C2  UNL     1      21.358   3.034  51.873  1.00  0.00     0.014 C 
HETATM    3  N1  UNL     1      20.277   2.666  52.546  1.00  0.00    -0.251 NA
HETATM    4  C3  UNL     1      20.167   1.447  53.233  1.00  0.00     0.232 C 
HETATM    5  N2  UNL     1      20.529   0.287  52.824  1.00  0.00    -0.253 NA
HETATM    6  C4  UNL     1      20.384  -0.889  53.591  1.00  0.00     0.130 C 
HETATM    7  C5  UNL     1      21.433  -1.322  54.233  1.00  0.00    -0.009 C 
HETATM    8  C6  UNL     1      22.530  -0.624  54.147  1.00  0.00     0.022 C 
HETATM    9  C7  UNL     1      22.893   0.234  53.056  1.00  0.00     0.247 C 
HETATM   10  C8  UNL     1      22.800   1.703  53.254  1.00  0.00     0.050 C 
HETATM   11  C9  UNL     1      22.418   2.107  51.848  1.00  0.00     0.037 C 
HETATM   12  C10 UNL     1      23.741   2.249  51.229  1.00  0.00     0.041 C 
HETATM   13  C11 UNL     1      24.728   1.298  51.874  1.00  0.00     0.274 C 
HETATM   14  N3  UNL     1      24.321   0.194  52.630  1.00  0.00     0.100 N 
ENDROOT
BRANCH  14  15
HETATM   15  C12 UNL     1      25.061  -0.062  53.815  1.00  0.00     0.311 C 
BRANCH  15  16
HETATM   16  C13 UNL     1      26.498  -0.267  53.672  1.00  0.00    -0.028 A 
HETATM   17  C14 UNL     1      27.177  -1.327  53.109  1.00  0.00     0.012 A 
HETATM   18  C15 UNL     1      28.554  -1.396  53.047  1.00  0.00     0.044 A 
HETATM   19  C16 UNL     1      29.331  -0.379  53.557  1.00  0.00     0.138 A 
HETATM   20  F1  UNL     1      30.677  -0.440  53.499  1.00  0.00    -0.204 F 
HETATM   21  C17 UNL     1      28.730   0.718  54.138  1.00  0.00     0.073 A 
HETATM   22 CL1  UNL     1      29.658   2.031  54.798  1.00  0.00    -0.081 Cl
HETATM   23  C18 UNL     1      27.350   0.729  54.171  1.00  0.00     0.035 A 
ENDBRANCH  15  16
ENDBRANCH  14  15
TORSDOF 2
ENDMDL
MODEL 4
REMARK VINA RESULT:      -8.6      3.493      4.785
REMARK  2 active torsions:
REMARK  status: ('A' for Active; 'I' for Inactive)
REMARK    1  A    between atoms: N3_14  and  C12_15 
REMARK    2  A    between atoms: C12_15  and  C13_16 
ROOT
HETATM    1  C1  UNL     1      21.367   6.199  50.912  1.00  0.00     0.066 C 
HETATM    2  C2  UNL     1      22.691   5.879  50.306  1.00  0.00     0.014 C 
HETATM    3  N1  UNL     1      23.213   6.293  49.160  1.00  0.00    -0.251 NA
HETATM    4  C3  UNL     1      24.483   5.909  48.701  1.00  0.00     0.232 C 
HETATM    5  N2  UNL     1      25.569   5.840  49.380  1.00  0.00    -0.253 NA
HETATM    6  C4  UNL     1      26.805   5.435  48.831  1.00  0.00     0.130 C 
HETATM    7  C5  UNL     1      27.174   4.200  49.027  1.00  0.00    -0.009 C 
HETATM    8  C6  UNL     1      26.365   3.420  49.685  1.00  0.00     0.022 C 
HETATM    9  C7  UNL     1      25.399   3.844  50.658  1.00  0.00     0.247 C 
HETATM   10  C8  UNL     1      23.965   3.846  50.273  1.00  0.00     0.050 C 
HETATM   11  C9  UNL     1      23.502   5.033  51.087  1.00  0.00     0.037 C 
HETATM   12  C10 UNL     1      23.184   4.387  52.366  1.00  0.00     0.041 C 
HETATM   13  C11 UNL     1      24.075   3.181  52.582  1.00  0.00     0.274 C 
HETATM   14  N3  UNL     1      25.265   2.991  51.873  1.00  0.00     0.100 N 
ENDROOT
BRANCH  14  15
HETATM   15  C12 UNL     1      25.528   1.666  51.434  1.00  0.00     0.311 C 
BRANCH  15  16
HETATM   16  C13 UNL     1      26.552   0.917  52.154  1.00  0.00    -0.028 A 
HETATM   17  C14 UNL     1      26.740  -0.447  52.237  1.00  0.00     0.012 A 
HETATM   18  C15 UNL     1      27.755  -1.027  52.969  1.00  0.00     0.044 A 
HETATM   19  C16 UNL     1      28.651  -0.247  53.667  1.00  0.00     0.138 A 
HETATM   20  F1  UNL     1      29.646  -0.808  54.384  1.00  0.00    -0.204 F 
HETATM   21  C17 UNL     1      28.533   1.126  53.637  1.00  0.00     0.073 A 
HETATM   22 CL1  UNL     1      29.632   2.162  54.498  1.00  0.00    -0.081 Cl
HETATM   23  C18 UNL     1      27.497   1.648  52.888  1.00  0.00     0.035 A 
ENDBRANCH  15  16
ENDBRANCH  14  15
TORSDOF 2
ENDMDL
MODEL 5
REMARK VINA RESULT:      -8.6      2.496      4.460
REMARK  2 active torsions:
REMARK  status: ('A' for Active; 'I' for Inactive)
REMARK    1  A    between atoms: N3_14  and  C12_15 
REMARK    2  A    between atoms: C12_15  and  C13_16 
ROOT
HETATM    1  C1  UNL     1      23.575   5.765  48.362  1.00  0.00     0.066 C 
HETATM    2  C2  UNL     1      23.135   4.619  49.208  1.00  0.00     0.014 C 
HETATM    3  N1  UNL     1      21.911   4.261  49.568  1.00  0.00    -0.251 NA
HETATM    4  C3  UNL     1      21.633   3.149  50.379  1.00  0.00     0.232 C 
HETATM    5  N2  UNL     1      22.147   1.977  50.298  1.00  0.00    -0.253 NA
HETATM    6  C4  UNL     1      21.809   0.917  51.166  1.00  0.00     0.130 C 
HETATM    7  C5  UNL     1      22.616   0.674  52.161  1.00  0.00    -0.009 C 
HETATM    8  C6  UNL     1      23.657   1.444  52.302  1.00  0.00     0.022 C 
HETATM    9  C7  UNL     1      24.316   2.163  51.250  1.00  0.00     0.247 C 
HETATM   10  C8  UNL     1      24.112   3.631  51.165  1.00  0.00     0.050 C 
HETATM   11  C9  UNL     1      24.181   3.793  49.663  1.00  0.00     0.037 C 
HETATM   12  C10 UNL     1      25.627   3.956  49.466  1.00  0.00     0.041 C 
HETATM   13  C11 UNL     1      26.391   3.197  50.530  1.00  0.00     0.274 C 
HETATM   14  N3  UNL     1      25.806   2.183  51.296  1.00  0.00     0.100 N 
ENDROOT
BRANCH  14  15
HETATM   15  C12 UNL     1      26.141   2.167  52.676  1.00  0.00     0.311 C 
BRANCH  15  16
HETATM   16  C13 UNL     1      27.290   1.361  53.073  1.00  0.00    -0.028 A 
HETATM   17  C14 UNL     1      28.471   1.756  53.665  1.00  0.00     0.012 A 
HETATM   18  C15 UNL     1      29.488   0.879  53.982  1.00  0.00     0.044 A 
HETATM   19  C16 UNL     1      29.363  -0.466  53.714  1.00  0.00     0.138 A 
HETATM   20  F1  UNL     1      30.353  -1.329  54.022  1.00  0.00    -0.204 F 
HETATM   21  C17 UNL     1      28.213  -0.944  53.122  1.00  0.00     0.073 A 
HETATM   22 CL1  UNL     1      27.999  -2.630  52.759  1.00  0.00    -0.081 Cl
HETATM   23  C18 UNL     1      27.232  -0.019  52.828  1.00  0.00     0.035 A 
ENDBRANCH  15  16
ENDBRANCH  14  15
TORSDOF 2
ENDMDL
MODEL 6
REMARK VINA RESULT:      -8.3      3.340      4.917
REMARK  2 active torsions:
REMARK  status: ('A' for Active; 'I' for Inactive)
REMARK    1  A    between atoms: N3_14  and  C12_15 
REMARK    2  A    between atoms: C12_15  and  C13_16 
ROOT
HETATM    1  C1  UNL     1      20.562  -1.749  54.167  1.00  0.00     0.066 C 
HETATM    2  C2  UNL     1      21.959  -1.253  54.323  1.00  0.00     0.014 C 
HETATM    3  N1  UNL     1      22.804  -1.421  55.330  1.00  0.00    -0.251 NA
HETATM    4  C3  UNL     1      24.104  -0.893  55.350  1.00  0.00     0.232 C 
HETATM    5  N2  UNL     1      24.960  -0.893  54.396  1.00  0.00    -0.253 NA
HETATM    6  C4  UNL     1      26.250  -0.329  54.507  1.00  0.00     0.130 C 
HETATM    7  C5  UNL     1      26.428   0.866  54.018  1.00  0.00    -0.009 C 
HETATM    8  C6  UNL     1      25.399   1.467  53.492  1.00  0.00     0.022 C 
HETATM    9  C7  UNL     1      24.260   0.821  52.907  1.00  0.00     0.247 C 
HETATM   10  C8  UNL     1      22.985   0.816  53.670  1.00  0.00     0.050 C 
HETATM   11  C9  UNL     1      22.447  -0.524  53.220  1.00  0.00     0.037 C 
HETATM   12  C10 UNL     1      21.740  -0.143  51.992  1.00  0.00     0.041 C 
HETATM   13  C11 UNL     1      22.416   1.048  51.344  1.00  0.00     0.274 C 
HETATM   14  N3  UNL     1      23.725   1.428  51.655  1.00  0.00     0.100 N 
ENDROOT
BRANCH  14  15
HETATM   15  C12 UNL     1      23.960   2.823  51.782  1.00  0.00     0.311 C 
BRANCH  15  16
HETATM   16  C13 UNL     1      24.895   3.429  50.841  1.00  0.00    -0.028 A 
HETATM   17  C14 UNL     1      25.979   2.865  50.200  1.00  0.00     0.012 A 
HETATM   18  C15 UNL     1      26.792   3.564  49.333  1.00  0.00     0.044 A 
HETATM   19  C16 UNL     1      26.549   4.893  49.061  1.00  0.00     0.138 A 
HETATM   20  F1  UNL     1      27.340   5.582  48.213  1.00  0.00    -0.204 F 
HETATM   21  C17 UNL     1      25.486   5.533  49.661  1.00  0.00     0.073 A 
HETATM   22 CL1  UNL     1      25.130   7.207  49.356  1.00  0.00    -0.081 Cl
HETATM   23  C18 UNL     1      24.709   4.782  50.519  1.00  0.00     0.035 A 
ENDBRANCH  15  16
ENDBRANCH  14  15
TORSDOF 2
ENDMDL
MODEL 7
REMARK VINA RESULT:      -8.0      4.773      6.776
REMARK  2 active torsions:
REMARK  status: ('A' for Active; 'I' for Inactive)
REMARK    1  A    between atoms: N3_14  and  C12_15 
REMARK    2  A    between atoms: C12_15  and  C13_16 
ROOT
HETATM    1  C1  UNL     1      22.676   8.706  49.179  1.00  0.00     0.066 C 
HETATM    2  C2  UNL     1      23.951   7.993  48.882  1.00  0.00     0.014 C 
HETATM    3  N1  UNL     1      24.844   8.229  47.932  1.00  0.00    -0.251 NA
HETATM    4  C3  UNL     1      26.014   7.472  47.760  1.00  0.00     0.232 C 
HETATM    5  N2  UNL     1      26.821   7.067  48.670  1.00  0.00    -0.253 NA
HETATM    6  C4  UNL     1      27.976   6.301  48.401  1.00  0.00     0.130 C 
HETATM    7  C5  UNL     1      27.897   5.012  48.579  1.00  0.00    -0.009 C 
HETATM    8  C6  UNL     1      26.753   4.519  48.960  1.00  0.00     0.022 C 
HETATM    9  C7  UNL     1      25.746   5.218  49.705  1.00  0.00     0.247 C 
HETATM   10  C8  UNL     1      24.524   5.665  48.990  1.00  0.00     0.050 C 
HETATM   11  C9  UNL     1      24.248   6.935  49.764  1.00  0.00     0.037 C 
HETATM   12  C10 UNL     1      23.440   6.416  50.873  1.00  0.00     0.041 C 
HETATM   13  C11 UNL     1      23.845   4.993  51.197  1.00  0.00     0.274 C 
HETATM   14  N3  UNL     1      25.062   4.445  50.780  1.00  0.00     0.100 N 
ENDROOT
BRANCH  14  15
HETATM   15  C12 UNL     1      25.018   3.105  50.311  1.00  0.00     0.311 C 
BRANCH  15  16
HETATM   16  C13 UNL     1      25.364   2.055  51.262  1.00  0.00    -0.028 A 
HETATM   17  C14 UNL     1      26.606   1.561  51.604  1.00  0.00     0.012 A 
HETATM   18  C15 UNL     1      26.790   0.549  52.524  1.00  0.00     0.044 A 
HETATM   19  C16 UNL     1      25.711  -0.027  53.158  1.00  0.00     0.138 A 
HETATM   20  F1  UNL     1      25.884  -1.017  54.057  1.00  0.00    -0.204 F 
HETATM   21  C17 UNL     1      24.434   0.408  52.872  1.00  0.00     0.073 A 
HETATM   22 CL1  UNL     1      23.035  -0.281  53.639  1.00  0.00    -0.081 Cl
HETATM   23  C18 UNL     1      24.314   1.423  51.944  1.00  0.00     0.035 A 
ENDBRANCH  15  16
ENDBRANCH  14  15
TORSDOF 2
ENDMDL
MODEL 8
REMARK VINA RESULT:      -7.9      4.206      6.218
REMARK  2 active torsions:
REMARK  status: ('A' for Active; 'I' for Inactive)
REMARK    1  A    between atoms: N3_14  and  C12_15 
REMARK    2  A    between atoms: C12_15  and  C13_16 
ROOT
HETATM    1  C1  UNL     1      21.661   7.296  50.805  1.00  0.00     0.066 C 
HETATM    2  C2  UNL     1      22.884   6.639  50.261  1.00  0.00     0.014 C 
HETATM    3  N1  UNL     1      23.551   6.897  49.146  1.00  0.00    -0.251 NA
HETATM    4  C3  UNL     1      24.699   6.194  48.746  1.00  0.00     0.232 C 
HETATM    5  N2  UNL     1      25.695   5.850  49.476  1.00  0.00    -0.253 NA
HETATM    6  C4  UNL     1      26.809   5.134  48.985  1.00  0.00     0.130 C 
HETATM    7  C5  UNL     1      26.836   3.847  49.191  1.00  0.00    -0.009 C 
HETATM    8  C6  UNL     1      25.820   3.308  49.804  1.00  0.00     0.022 C 
HETATM    9  C7  UNL     1      24.951   3.974  50.731  1.00  0.00     0.247 C 
HETATM   10  C8  UNL     1      23.587   4.345  50.277  1.00  0.00     0.050 C 
HETATM   11  C9  UNL     1      23.409   5.617  51.075  1.00  0.00     0.037 C 
HETATM   12  C10 UNL     1      22.873   5.083  52.333  1.00  0.00     0.041 C 
HETATM   13  C11 UNL     1      23.409   3.689  52.584  1.00  0.00     0.274 C 
HETATM   14  N3  UNL     1      24.542   3.192  51.933  1.00  0.00     0.100 N 
ENDROOT
BRANCH  14  15
HETATM   15  C12 UNL     1      24.473   1.842  51.498  1.00  0.00     0.311 C 
BRANCH  15  16
HETATM   16  C13 UNL     1      23.709   0.914  52.324  1.00  0.00    -0.028 A 
HETATM   17  C14 UNL     1      24.128   0.141  53.386  1.00  0.00     0.012 A 
HETATM   18  C15 UNL     1      23.292  -0.708  54.080  1.00  0.00     0.044 A 
HETATM   19  C16 UNL     1      21.963  -0.822  53.733  1.00  0.00     0.138 A 
HETATM   20  F1  UNL     1      21.140  -1.650  54.408  1.00  0.00    -0.204 F 
HETATM   21  C17 UNL     1      21.463  -0.084  52.682  1.00  0.00     0.073 A 
HETATM   22 CL1  UNL     1      19.797  -0.186  52.198  1.00  0.00    -0.081 Cl
HETATM   23  C18 UNL     1      22.349   0.747  52.026  1.00  0.00     0.035 A 
ENDBRANCH  15  16
ENDBRANCH  14  15
TORSDOF 2
ENDMDL
MODEL 9
REMARK VINA RESULT:      -7.8      4.618      6.769
REMARK  2 active torsions:
REMARK  status: ('A' for Active; 'I' for Inactive)
REMARK    1  A    between atoms: N3_14  and  C12_15 
REMARK    2  A    between atoms: C12_15  and  C13_16 
ROOT
HETATM    1  C1  UNL     1      28.012   6.325  48.239  1.00  0.00     0.066 C 
HETATM    2  C2  UNL     1      26.542   6.246  48.470  1.00  0.00     0.014 C 
HETATM    3  N1  UNL     1      25.603   7.148  48.225  1.00  0.00    -0.251 NA
HETATM    4  C3  UNL     1      24.240   6.946  48.495  1.00  0.00     0.232 C 
HETATM    5  N2  UNL     1      23.547   5.894  48.257  1.00  0.00    -0.253 NA
HETATM    6  C4  UNL     1      22.175   5.779  48.571  1.00  0.00     0.130 C 
HETATM    7  C5  UNL     1      21.860   5.148  49.668  1.00  0.00    -0.009 C 
HETATM    8  C6  UNL     1      22.832   4.699  50.411  1.00  0.00     0.022 C 
HETATM    9  C7  UNL     1      24.141   4.337  49.950  1.00  0.00     0.247 C 
HETATM   10  C8  UNL     1      25.271   5.253  50.247  1.00  0.00     0.050 C 
HETATM   11  C9  UNL     1      26.099   5.020  49.004  1.00  0.00     0.037 C 
HETATM   12  C10 UNL     1      26.898   3.860  49.414  1.00  0.00     0.041 C 
HETATM   13  C11 UNL     1      26.123   3.009  50.400  1.00  0.00     0.274 C 
HETATM   14  N3  UNL     1      24.736   3.107  50.547  1.00  0.00     0.100 N 
ENDROOT
BRANCH  14  15
HETATM   15  C12 UNL     1      24.242   3.056  51.877  1.00  0.00     0.311 C 
BRANCH  15  16
HETATM   16  C13 UNL     1      23.754   1.768  52.357  1.00  0.00    -0.028 A 
HETATM   17  C14 UNL     1      24.428   0.781  53.046  1.00  0.00     0.012 A 
HETATM   18  C15 UNL     1      23.841  -0.404  53.436  1.00  0.00     0.044 A 
HETATM   19  C16 UNL     1      22.519  -0.661  53.146  1.00  0.00     0.138 A 
HETATM   20  F1  UNL     1      21.938  -1.818  53.524  1.00  0.00    -0.204 F 
HETATM   21  C17 UNL     1      21.773   0.274  52.459  1.00  0.00     0.073 A 
HETATM   22 CL1  UNL     1      20.101   0.007  52.065  1.00  0.00    -0.081 Cl
HETATM   23  C18 UNL     1      22.416   1.440  52.096  1.00  0.00     0.035 A 
ENDBRANCH  15  16
ENDBRANCH  14  15
TORSDOF 2
ENDMDL
