MODEL 1
REMARK VINA RESULT:      -9.0      0.000      0.000
REMARK  4 active torsions:
REMARK  status: ('A' for Active; 'I' for Inactive)
REMARK    1  A    between atoms: S1_2  and  N1_5 
REMARK    2  A    between atoms: N1_5  and  C2_6 
REMARK    3  A    between atoms: C8_14  and  N3_15 
REMARK    4  A    between atoms: N3_15  and  C9_16 
ROOT
HETATM    1  C2  UNL     1      26.297   0.031  52.616  1.00  0.00     0.043 A 
HETATM    2  C3  UNL     1      25.821   1.029  51.903  1.00  0.00     0.044 A 
HETATM    3  C4  UNL     1      24.373   1.080  52.111  1.00  0.00    -0.004 A 
HETATM    4  C5  UNL     1      23.713   2.026  51.465  1.00  0.00     0.147 C 
HETATM    5  O3  UNL     1      22.404   2.391  51.401  1.00  0.00    -0.357 OA
HETATM    6  C6  UNL     1      21.970   3.642  51.951  1.00  0.00     0.221 C 
HETATM    7  C7  UNL     1      20.493   3.688  52.067  1.00  0.00     0.118 C 
HETATM    8  N2  UNL     1      19.530   2.844  52.254  1.00  0.00    -0.247 NA
HETATM    9  C8  UNL     1      19.772   1.446  52.411  1.00  0.00     0.128 C 
HETATM   10  C15 UNL     1      20.822   1.278  53.168  1.00  0.00     0.177 C 
HETATM   11  N4  UNL     1      21.757   0.479  53.830  1.00  0.00    -0.405 N 
HETATM   12  C16 UNL     1      22.794  -0.503  53.645  1.00  0.00     0.154 C 
HETATM   13  C17 UNL     1      24.014   0.015  53.022  1.00  0.00    -0.026 A 
HETATM   14  C18 UNL     1      25.183  -0.589  53.300  1.00  0.00     0.039 A 
HETATM   15  H15 UNL     1      21.596   0.753  54.855  1.00  0.00     0.154 HD
ENDROOT
BRANCH   9  16
HETATM   16  N3  UNL     1      18.649   1.149  51.598  1.00  0.00    -0.343 N 
HETATM   17  H10 UNL     1      18.450   1.676  50.726  1.00  0.00     0.167 HD
BRANCH  16  18
HETATM   18  C9  UNL     1      17.680   0.160  51.821  1.00  0.00     0.035 A 
HETATM   19  C10 UNL     1      16.396   0.255  51.289  1.00  0.00     0.032 A 
HETATM   20  C11 UNL     1      15.442  -0.744  51.525  1.00  0.00     0.046 A 
HETATM   21  C12 UNL     1      15.775  -1.851  52.304  1.00  0.00     0.138 A 
HETATM   22  F1  UNL     1      14.916  -2.850  52.578  1.00  0.00    -0.204 F 
HETATM   23  C13 UNL     1      17.068  -1.926  52.827  1.00  0.00     0.074 A 
HETATM   24 CL1  UNL     1      17.499  -3.298  53.805  1.00  0.00    -0.081 Cl
HETATM   25  C14 UNL     1      18.009  -0.946  52.598  1.00  0.00     0.056 A 
ENDBRANCH  16  18
ENDBRANCH   9  16
BRANCH   1  26
HETATM   26  N1  UNL     1      27.678  -0.384  52.708  1.00  0.00    -0.285 N 
HETATM   27  H4  UNL     1      27.827  -1.102  51.942  1.00  0.00     0.178 HD
BRANCH  26  28
HETATM   28  S1  UNL     1      28.844   0.170  53.834  1.00  0.00     0.227 S 
HETATM   29  C1  UNL     1      28.914   1.925  53.799  1.00  0.00     0.186 C 
HETATM   30  O1  UNL     1      30.178  -0.485  53.625  1.00  0.00    -0.206 OA
HETATM   31  O2  UNL     1      28.369  -0.251  55.196  1.00  0.00    -0.206 OA
ENDBRANCH  26  28
ENDBRANCH   1  26
TORSDOF 4
ENDMDL
MODEL 2
REMARK VINA RESULT:      -8.5      1.295      1.557
REMARK  4 active torsions:
REMARK  status: ('A' for Active; 'I' for Inactive)
REMARK    1  A    between atoms: S1_2  and  N1_5 
REMARK    2  A    between atoms: N1_5  and  C2_6 
REMARK    3  A    between atoms: C8_14  and  N3_15 
REMARK    4  A    between atoms: N3_15  and  C9_16 
ROOT
HETATM    1  C2  UNL     1      26.282   0.036  52.615  1.00  0.00     0.043 A 
HETATM    2  C3  UNL     1      25.833   1.062  51.925  1.00  0.00     0.044 A 
HETATM    3  C4  UNL     1      24.381   1.124  52.104  1.00  0.00    -0.004 A 
HETATM    4  C5  UNL     1      23.746   2.098  51.476  1.00  0.00     0.147 C 
HETATM    5  O3  UNL     1      22.442   2.481  51.395  1.00  0.00    -0.357 OA
HETATM    6  C6  UNL     1      22.011   3.718  51.977  1.00  0.00     0.221 C 
HETATM    7  C7  UNL     1      20.533   3.778  52.063  1.00  0.00     0.118 C 
HETATM    8  N2  UNL     1      19.556   2.940  52.201  1.00  0.00    -0.247 NA
HETATM    9  C8  UNL     1      19.780   1.534  52.317  1.00  0.00     0.128 C 
HETATM   10  C15 UNL     1      20.810   1.329  53.090  1.00  0.00     0.177 C 
HETATM   11  N4  UNL     1      21.722   0.498  53.746  1.00  0.00    -0.405 N 
HETATM   12  C16 UNL     1      22.751  -0.490  53.551  1.00  0.00     0.154 C 
HETATM   13  C17 UNL     1      23.990   0.033  52.971  1.00  0.00    -0.026 A 
HETATM   14  C18 UNL     1      25.146  -0.593  53.254  1.00  0.00     0.039 A 
HETATM   15  H15 UNL     1      21.542   0.740  54.775  1.00  0.00     0.154 HD
ENDROOT
BRANCH   9  16
HETATM   16  N3  UNL     1      18.671   1.278  51.471  1.00  0.00    -0.343 N 
HETATM   17  H10 UNL     1      18.629   1.640  50.499  1.00  0.00     0.167 HD
BRANCH  16  18
HETATM   18  C9  UNL     1      17.519   0.541  51.784  1.00  0.00     0.035 A 
HETATM   19  C10 UNL     1      17.586  -0.793  52.181  1.00  0.00     0.032 A 
HETATM   20  C11 UNL     1      16.423  -1.512  52.488  1.00  0.00     0.046 A 
HETATM   21  C12 UNL     1      15.178  -0.891  52.396  1.00  0.00     0.138 A 
HETATM   22  F1  UNL     1      14.018  -1.514  52.671  1.00  0.00    -0.204 F 
HETATM   23  C13 UNL     1      15.135   0.446  51.997  1.00  0.00     0.074 A 
HETATM   24 CL1  UNL     1      13.591   1.235  51.872  1.00  0.00    -0.081 Cl
HETATM   25  C14 UNL     1      16.276   1.157  51.694  1.00  0.00     0.056 A 
ENDBRANCH  16  18
ENDBRANCH   9  16
BRANCH   1  26
HETATM   26  N1  UNL     1      27.656  -0.398  52.723  1.00  0.00    -0.285 N 
HETATM   27  H4  UNL     1      27.801  -1.125  51.964  1.00  0.00     0.178 HD
BRANCH  26  28
HETATM   28  S1  UNL     1      28.820   0.149  53.854  1.00  0.00     0.227 S 
HETATM   29  C1  UNL     1      28.910   1.903  53.810  1.00  0.00     0.186 C 
HETATM   30  O1  UNL     1      30.148  -0.522  53.658  1.00  0.00    -0.206 OA
HETATM   31  O2  UNL     1      28.330  -0.259  55.215  1.00  0.00    -0.206 OA
ENDBRANCH  26  28
ENDBRANCH   1  26
TORSDOF 4
ENDMDL
MODEL 3
REMARK VINA RESULT:      -8.3      5.386      6.501
REMARK  4 active torsions:
REMARK  status: ('A' for Active; 'I' for Inactive)
REMARK    1  A    between atoms: S1_2  and  N1_5 
REMARK    2  A    between atoms: N1_5  and  C2_6 
REMARK    3  A    between atoms: C8_14  and  N3_15 
REMARK    4  A    between atoms: N3_15  and  C9_16 
ROOT
HETATM    1  C2  UNL     1      27.735   6.458  47.917  1.00  0.00     0.043 A 
HETATM    2  C3  UNL     1      26.528   6.882  48.223  1.00  0.00     0.044 A 
HETATM    3  C4  UNL     1      25.884   5.853  49.042  1.00  0.00    -0.004 A 
HETATM    4  C5  UNL     1      24.651   6.102  49.447  1.00  0.00     0.147 C 
HETATM    5  O3  UNL     1      23.746   5.419  50.201  1.00  0.00    -0.357 OA
HETATM    6  C6  UNL     1      23.365   5.904  51.495  1.00  0.00     0.221 C 
HETATM    7  C7  UNL     1      22.642   4.862  52.261  1.00  0.00     0.118 C 
HETATM    8  N2  UNL     1      22.633   3.570  52.330  1.00  0.00    -0.247 NA
HETATM    9  C8  UNL     1      23.490   2.766  51.517  1.00  0.00     0.128 C 
HETATM   10  C15 UNL     1      24.670   3.319  51.465  1.00  0.00     0.177 C 
HETATM   11  N4  UNL     1      25.998   3.368  51.035  1.00  0.00    -0.405 N 
HETATM   12  C16 UNL     1      26.847   3.458  49.875  1.00  0.00     0.154 C 
HETATM   13  C17 UNL     1      26.819   4.761  49.205  1.00  0.00    -0.026 A 
HETATM   14  C18 UNL     1      27.908   5.154  48.522  1.00  0.00     0.039 A 
HETATM   15  H15 UNL     1      26.534   3.324  51.963  1.00  0.00     0.154 HD
ENDROOT
BRANCH   9  16
HETATM   16  N3  UNL     1      22.432   1.848  51.294  1.00  0.00    -0.343 N 
HETATM   17  H10 UNL     1      21.878   1.853  50.417  1.00  0.00     0.167 HD
BRANCH  16  18
HETATM   18  C9  UNL     1      21.987   0.842  52.166  1.00  0.00     0.035 A 
HETATM   19  C10 UNL     1      22.867   0.130  52.977  1.00  0.00     0.032 A 
HETATM   20  C11 UNL     1      22.401  -0.872  53.839  1.00  0.00     0.046 A 
HETATM   21  C12 UNL     1      21.040  -1.166  53.890  1.00  0.00     0.138 A 
HETATM   22  F1  UNL     1      20.516  -2.114  54.689  1.00  0.00    -0.204 F 
HETATM   23  C13 UNL     1      20.176  -0.440  53.068  1.00  0.00     0.074 A 
HETATM   24 CL1  UNL     1      18.475  -0.797  53.115  1.00  0.00    -0.081 Cl
HETATM   25  C14 UNL     1      20.629   0.546  52.218  1.00  0.00     0.056 A 
ENDBRANCH  16  18
ENDBRANCH   9  16
BRANCH   1  26
HETATM   26  N1  UNL     1      28.719   7.154  47.121  1.00  0.00    -0.285 N 
HETATM   27  H4  UNL     1      28.535   6.885  46.112  1.00  0.00     0.178 HD
BRANCH  26  28
HETATM   28  S1  UNL     1      29.946   8.205  47.693  1.00  0.00     0.227 S 
HETATM   29  C1  UNL     1      29.365   9.084  49.099  1.00  0.00     0.186 C 
HETATM   30  O1  UNL     1      30.470   9.097  46.605  1.00  0.00    -0.206 OA
HETATM   31  O2  UNL     1      31.095   7.338  48.127  1.00  0.00    -0.206 OA
ENDBRANCH  26  28
ENDBRANCH   1  26
TORSDOF 4
ENDMDL
MODEL 4
REMARK VINA RESULT:      -8.2      5.699      9.101
REMARK  4 active torsions:
REMARK  status: ('A' for Active; 'I' for Inactive)
REMARK    1  A    between atoms: S1_2  and  N1_5 
REMARK    2  A    between atoms: N1_5  and  C2_6 
REMARK    3  A    between atoms: C8_14  and  N3_15 
REMARK    4  A    between atoms: N3_15  and  C9_16 
ROOT
HETATM    1  C2  UNL     1      22.385   4.397  47.442  1.00  0.00     0.043 A 
HETATM    2  C3  UNL     1      21.888   3.200  47.671  1.00  0.00     0.044 A 
HETATM    3  C4  UNL     1      22.368   2.756  48.981  1.00  0.00    -0.004 A 
HETATM    4  C5  UNL     1      21.973   1.562  49.385  1.00  0.00     0.147 C 
HETATM    5  O3  UNL     1      22.193   0.820  50.505  1.00  0.00    -0.357 OA
HETATM    6  C6  UNL     1      21.124   0.551  51.421  1.00  0.00     0.221 C 
HETATM    7  C7  UNL     1      21.644   0.024  52.705  1.00  0.00     0.118 C 
HETATM    8  N2  UNL     1      22.721   0.144  53.413  1.00  0.00    -0.247 NA
HETATM    9  C8  UNL     1      23.809   0.969  52.996  1.00  0.00     0.128 C 
HETATM   10  C15 UNL     1      23.336   2.078  52.498  1.00  0.00     0.177 C 
HETATM   11  N4  UNL     1      23.488   3.336  51.909  1.00  0.00    -0.405 N 
HETATM   12  C16 UNL     1      23.984   4.030  50.748  1.00  0.00     0.154 C 
HETATM   13  C17 UNL     1      23.206   3.802  49.528  1.00  0.00    -0.026 A 
HETATM   14  C18 UNL     1      23.194   4.761  48.586  1.00  0.00     0.039 A 
HETATM   15  H15 UNL     1      23.041   3.980  52.641  1.00  0.00     0.154 HD
ENDROOT
BRANCH   9  16
HETATM   16  N3  UNL     1      24.734  -0.017  53.425  1.00  0.00    -0.343 N 
HETATM   17  H10 UNL     1      24.425  -0.955  53.745  1.00  0.00     0.167 HD
BRANCH  16  18
HETATM   18  C9  UNL     1      26.130   0.102  53.485  1.00  0.00     0.035 A 
HETATM   19  C10 UNL     1      26.755   1.324  53.722  1.00  0.00     0.032 A 
HETATM   20  C11 UNL     1      28.152   1.421  53.776  1.00  0.00     0.046 A 
HETATM   21  C12 UNL     1      28.934   0.282  53.592  1.00  0.00     0.138 A 
HETATM   22  F1  UNL     1      30.279   0.293  53.627  1.00  0.00    -0.204 F 
HETATM   23  C13 UNL     1      28.287  -0.933  53.356  1.00  0.00     0.074 A 
HETATM   24 CL1  UNL     1      29.247  -2.363  53.119  1.00  0.00    -0.081 Cl
HETATM   25  C14 UNL     1      26.914  -1.033  53.301  1.00  0.00     0.056 A 
ENDBRANCH  16  18
ENDBRANCH   9  16
BRANCH   1  26
HETATM   26  N1  UNL     1      22.172   5.211  46.268  1.00  0.00    -0.285 N 
HETATM   27  H4  UNL     1      22.794   6.062  46.376  1.00  0.00     0.178 HD
BRANCH  26  28
HETATM   28  S1  UNL     1      21.119   4.872  44.960  1.00  0.00     0.227 S 
HETATM   29  C1  UNL     1      21.333   6.077  43.700  1.00  0.00     0.186 C 
HETATM   30  O1  UNL     1      19.695   4.727  45.412  1.00  0.00    -0.206 OA
HETATM   31  O2  UNL     1      21.530   3.537  44.404  1.00  0.00    -0.206 OA
ENDBRANCH  26  28
ENDBRANCH   1  26
TORSDOF 4
ENDMDL
MODEL 5
REMARK VINA RESULT:      -8.0      6.460      8.685
REMARK  4 active torsions:
REMARK  status: ('A' for Active; 'I' for Inactive)
REMARK    1  A    between atoms: S1_2  and  N1_5 
REMARK    2  A    between atoms: N1_5  and  C2_6 
REMARK    3  A    between atoms: C8_14  and  N3_15 
REMARK    4  A    between atoms: N3_15  and  C9_16 
ROOT
HETATM    1  C2  UNL     1      26.137   8.007  48.666  1.00  0.00     0.043 A 
HETATM    2  C3  UNL     1      26.060   6.773  48.217  1.00  0.00     0.044 A 
HETATM    3  C4  UNL     1      25.362   5.970  49.223  1.00  0.00    -0.004 A 
HETATM    4  C5  UNL     1      25.192   4.688  48.946  1.00  0.00     0.147 C 
HETATM    5  O3  UNL     1      24.609   3.648  49.602  1.00  0.00    -0.357 OA
HETATM    6  C6  UNL     1      23.411   3.047  49.093  1.00  0.00     0.221 C 
HETATM    7  C7  UNL     1      22.779   2.176  50.111  1.00  0.00     0.118 C 
HETATM    8  N2  UNL     1      22.700   2.129  51.402  1.00  0.00    -0.247 NA
HETATM    9  C8  UNL     1      23.335   3.102  52.232  1.00  0.00     0.128 C 
HETATM   10  C15 UNL     1      23.176   4.283  51.701  1.00  0.00     0.177 C 
HETATM   11  N4  UNL     1      23.358   5.668  51.683  1.00  0.00    -0.405 N 
HETATM   12  C16 UNL     1      24.344   6.716  51.623  1.00  0.00     0.154 C 
HETATM   13  C17 UNL     1      25.021   6.837  50.330  1.00  0.00    -0.026 A 
HETATM   14  C18 UNL     1      25.498   8.040  49.965  1.00  0.00     0.039 A 
HETATM   15  H15 UNL     1      22.347   6.025  51.723  1.00  0.00     0.154 HD
ENDROOT
BRANCH   9  16
HETATM   16  N3  UNL     1      23.737   2.085  53.134  1.00  0.00    -0.343 N 
HETATM   17  H10 UNL     1      23.107   1.734  53.881  1.00  0.00     0.167 HD
BRANCH  16  18
HETATM   18  C9  UNL     1      24.974   1.424  53.168  1.00  0.00     0.035 A 
HETATM   19  C10 UNL     1      25.074   0.044  53.007  1.00  0.00     0.032 A 
HETATM   20  C11 UNL     1      26.320  -0.598  53.045  1.00  0.00     0.046 A 
HETATM   21  C12 UNL     1      27.479   0.149  53.248  1.00  0.00     0.138 A 
HETATM   22  F1  UNL     1      28.710  -0.393  53.299  1.00  0.00    -0.204 F 
HETATM   23  C13 UNL     1      27.355   1.531  53.407  1.00  0.00     0.074 A 
HETATM   24 CL1  UNL     1      28.791   2.477  53.666  1.00  0.00    -0.081 Cl
HETATM   25  C14 UNL     1      26.133   2.166  53.370  1.00  0.00     0.056 A 
ENDBRANCH  16  18
ENDBRANCH   9  16
BRANCH   1  26
HETATM   26  N1  UNL     1      26.747   9.133  47.999  1.00  0.00    -0.285 N 
HETATM   27  H4  UNL     1      26.190   9.292  47.110  1.00  0.00     0.178 HD
BRANCH  26  28
HETATM   28  S1  UNL     1      28.103  10.033  48.533  1.00  0.00     0.227 S 
HETATM   29  C1  UNL     1      29.273   8.955  49.278  1.00  0.00     0.186 C 
HETATM   30  O1  UNL     1      27.702  11.180  49.414  1.00  0.00    -0.206 OA
HETATM   31  O2  UNL     1      28.736  10.634  47.309  1.00  0.00    -0.206 OA
ENDBRANCH  26  28
ENDBRANCH   1  26
TORSDOF 4
ENDMDL
MODEL 6
REMARK VINA RESULT:      -7.9      7.922     12.048
REMARK  4 active torsions:
REMARK  status: ('A' for Active; 'I' for Inactive)
REMARK    1  A    between atoms: S1_2  and  N1_5 
REMARK    2  A    between atoms: N1_5  and  C2_6 
REMARK    3  A    between atoms: C8_14  and  N3_15 
REMARK    4  A    between atoms: N3_15  and  C9_16 
ROOT
HETATM    1  C2  UNL     1      23.220   4.745  51.572  1.00  0.00     0.043 A 
HETATM    2  C3  UNL     1      23.552   5.952  51.168  1.00  0.00     0.044 A 
HETATM    3  C4  UNL     1      24.858   5.862  50.511  1.00  0.00    -0.004 A 
HETATM    4  C5  UNL     1      25.363   6.989  50.038  1.00  0.00     0.147 C 
HETATM    5  O3  UNL     1      26.512   7.309  49.382  1.00  0.00    -0.357 OA
HETATM    6  C6  UNL     1      26.472   7.742  48.016  1.00  0.00     0.221 C 
HETATM    7  C7  UNL     1      27.825   7.719  47.412  1.00  0.00     0.118 C 
HETATM    8  N2  UNL     1      28.917   7.038  47.556  1.00  0.00    -0.247 NA
HETATM    9  C8  UNL     1      29.027   5.984  48.513  1.00  0.00     0.128 C 
HETATM   10  C15 UNL     1      27.926   5.285  48.505  1.00  0.00     0.177 C 
HETATM   11  N4  UNL     1      27.119   4.239  48.958  1.00  0.00    -0.405 N 
HETATM   12  C16 UNL     1      26.443   3.699  50.110  1.00  0.00     0.154 C 
HETATM   13  C17 UNL     1      25.288   4.482  50.556  1.00  0.00    -0.026 A 
HETATM   14  C18 UNL     1      24.290   3.846  51.195  1.00  0.00     0.039 A 
HETATM   15  H15 UNL     1      26.982   3.661  48.065  1.00  0.00     0.154 HD
ENDROOT
BRANCH   9  16
HETATM   16  N3  UNL     1      30.333   6.417  48.854  1.00  0.00    -0.343 N 
HETATM   17  H10 UNL     1      30.497   7.280  49.408  1.00  0.00     0.167 HD
BRANCH  16  18
HETATM   18  C9  UNL     1      31.546   5.793  48.524  1.00  0.00     0.035 A 
HETATM   19  C10 UNL     1      32.773   6.306  48.937  1.00  0.00     0.032 A 
HETATM   20  C11 UNL     1      33.973   5.668  48.594  1.00  0.00     0.046 A 
HETATM   21  C12 UNL     1      33.946   4.504  47.829  1.00  0.00     0.138 A 
HETATM   22  F1  UNL     1      35.053   3.835  47.457  1.00  0.00    -0.204 F 
HETATM   23  C13 UNL     1      32.704   4.007  47.426  1.00  0.00     0.074 A 
HETATM   24 CL1  UNL     1      32.652   2.558  46.466  1.00  0.00    -0.081 Cl
HETATM   25  C14 UNL     1      31.522   4.631  47.760  1.00  0.00     0.056 A 
ENDBRANCH  16  18
ENDBRANCH   9  16
BRANCH   1  26
HETATM   26  N1  UNL     1      22.012   4.369  52.269  1.00  0.00    -0.285 N 
HETATM   27  H4  UNL     1      22.030   4.881  53.198  1.00  0.00     0.178 HD
BRANCH  26  28
HETATM   28  S1  UNL     1      20.791   3.305  51.710  1.00  0.00     0.227 S 
HETATM   29  C1  UNL     1      20.762   3.309  49.953  1.00  0.00     0.186 C 
HETATM   30  O1  UNL     1      19.459   3.607  52.330  1.00  0.00    -0.206 OA
HETATM   31  O2  UNL     1      21.174   1.925  52.167  1.00  0.00    -0.206 OA
ENDBRANCH  26  28
ENDBRANCH   1  26
TORSDOF 4
ENDMDL
MODEL 7
REMARK VINA RESULT:      -7.9      6.125      7.211
REMARK  4 active torsions:
REMARK  status: ('A' for Active; 'I' for Inactive)
REMARK    1  A    between atoms: S1_2  and  N1_5 
REMARK    2  A    between atoms: N1_5  and  C2_6 
REMARK    3  A    between atoms: C8_14  and  N3_15 
REMARK    4  A    between atoms: N3_15  and  C9_16 
ROOT
HETATM    1  C2  UNL     1      26.187   1.147  52.277  1.00  0.00     0.043 A 
HETATM    2  C3  UNL     1      26.723   1.575  51.154  1.00  0.00     0.044 A 
HETATM    3  C4  UNL     1      26.016   2.793  50.753  1.00  0.00    -0.004 A 
HETATM    4  C5  UNL     1      26.417   3.370  49.634  1.00  0.00     0.147 C 
HETATM    5  O3  UNL     1      26.028   4.481  48.950  1.00  0.00    -0.357 OA
HETATM    6  C6  UNL     1      26.899   5.616  48.852  1.00  0.00     0.221 C 
HETATM    7  C7  UNL     1      26.166   6.807  48.362  1.00  0.00     0.118 C 
HETATM    8  N2  UNL     1      24.958   7.268  48.421  1.00  0.00    -0.247 NA
HETATM    9  C8  UNL     1      23.916   6.568  49.103  1.00  0.00     0.128 C 
HETATM   10  C15 UNL     1      24.389   6.084  50.218  1.00  0.00     0.177 C 
HETATM   11  N4  UNL     1      24.260   5.370  51.411  1.00  0.00    -0.405 N 
HETATM   12  C16 UNL     1      23.963   4.077  51.973  1.00  0.00     0.154 C 
HETATM   13  C17 UNL     1      24.997   3.066  51.743  1.00  0.00    -0.026 A 
HETATM   14  C18 UNL     1      25.127   2.066  52.634  1.00  0.00     0.039 A 
HETATM   15  H15 UNL     1      24.486   6.120  52.144  1.00  0.00     0.154 HD
ENDROOT
BRANCH   9  16
HETATM   16  N3  UNL     1      23.009   6.883  48.060  1.00  0.00    -0.343 N 
HETATM   17  H10 UNL     1      22.611   7.836  47.950  1.00  0.00     0.167 HD
BRANCH  16  18
HETATM   18  C9  UNL     1      22.527   6.018  47.066  1.00  0.00     0.035 A 
HETATM   19  C10 UNL     1      22.331   4.660  47.307  1.00  0.00     0.032 A 
HETATM   20  C11 UNL     1      21.851   3.812  46.300  1.00  0.00     0.046 A 
HETATM   21  C12 UNL     1      21.564   4.328  45.037  1.00  0.00     0.138 A 
HETATM   22  F1  UNL     1      21.102   3.579  44.018  1.00  0.00    -0.204 F 
HETATM   23  C13 UNL     1      21.768   5.692  44.818  1.00  0.00     0.074 A 
HETATM   24 CL1  UNL     1      21.420   6.351  43.247  1.00  0.00    -0.081 Cl
HETATM   25  C14 UNL     1      22.240   6.530  45.805  1.00  0.00     0.056 A 
ENDBRANCH  16  18
ENDBRANCH   9  16
BRANCH   1  26
HETATM   26  N1  UNL     1      26.573  -0.024  53.028  1.00  0.00    -0.285 N 
HETATM   27  H4  UNL     1      25.824  -0.754  52.851  1.00  0.00     0.178 HD
BRANCH  26  28
HETATM   28  S1  UNL     1      27.963  -0.201  54.013  1.00  0.00     0.227 S 
HETATM   29  C1  UNL     1      28.967   1.235  53.883  1.00  0.00     0.186 C 
HETATM   30  O1  UNL     1      28.700  -1.474  53.717  1.00  0.00    -0.206 OA
HETATM   31  O2  UNL     1      27.481  -0.306  55.433  1.00  0.00    -0.206 OA
ENDBRANCH  26  28
ENDBRANCH   1  26
TORSDOF 4
ENDMDL
MODEL 8
REMARK VINA RESULT:      -7.6      5.405      9.781
REMARK  4 active torsions:
REMARK  status: ('A' for Active; 'I' for Inactive)
REMARK    1  A    between atoms: S1_2  and  N1_5 
REMARK    2  A    between atoms: N1_5  and  C2_6 
REMARK    3  A    between atoms: C8_14  and  N3_15 
REMARK    4  A    between atoms: N3_15  and  C9_16 
ROOT
HETATM    1  C2  UNL     1      17.078   1.157  51.491  1.00  0.00     0.043 A 
HETATM    2  C3  UNL     1      17.656   0.063  51.938  1.00  0.00     0.044 A 
HETATM    3  C4  UNL     1      19.076   0.356  52.143  1.00  0.00    -0.004 A 
HETATM    4  C5  UNL     1      19.829  -0.634  52.590  1.00  0.00     0.147 C 
HETATM    5  O3  UNL     1      21.149  -0.755  52.899  1.00  0.00    -0.357 OA
HETATM    6  C6  UNL     1      21.561  -0.953  54.258  1.00  0.00     0.221 C 
HETATM    7  C7  UNL     1      23.019  -0.730  54.408  1.00  0.00     0.118 C 
HETATM    8  N2  UNL     1      23.931  -0.006  53.843  1.00  0.00    -0.247 NA
HETATM    9  C8  UNL     1      23.630   0.877  52.762  1.00  0.00     0.128 C 
HETATM   10  C15 UNL     1      22.503   1.485  53.011  1.00  0.00     0.177 C 
HETATM   11  N4  UNL     1      21.479   2.379  52.686  1.00  0.00    -0.405 N 
HETATM   12  C16 UNL     1      20.437   2.666  51.734  1.00  0.00     0.154 C 
HETATM   13  C17 UNL     1      19.305   1.738  51.777  1.00  0.00    -0.026 A 
HETATM   14  C18 UNL     1      18.095   2.182  51.394  1.00  0.00     0.039 A 
HETATM   15  H15 UNL     1      21.541   3.088  53.489  1.00  0.00     0.154 HD
ENDROOT
BRANCH   9  16
HETATM   16  N3  UNL     1      24.822   0.489  52.100  1.00  0.00    -0.343 N 
HETATM   17  H10 UNL     1      24.808   0.050  51.160  1.00  0.00     0.167 HD
BRANCH  16  18
HETATM   18  C9  UNL     1      26.136   0.625  52.573  1.00  0.00     0.035 A 
HETATM   19  C10 UNL     1      26.670   1.866  52.913  1.00  0.00     0.032 A 
HETATM   20  C11 UNL     1      27.986   1.979  53.382  1.00  0.00     0.046 A 
HETATM   21  C12 UNL     1      28.777   0.839  53.512  1.00  0.00     0.138 A 
HETATM   22  F1  UNL     1      30.048   0.866  53.952  1.00  0.00    -0.204 F 
HETATM   23  C13 UNL     1      28.221  -0.394  53.165  1.00  0.00     0.074 A 
HETATM   24 CL1  UNL     1      29.196  -1.826  53.317  1.00  0.00    -0.081 Cl
HETATM   25  C14 UNL     1      26.928  -0.511  52.704  1.00  0.00     0.056 A 
ENDBRANCH  16  18
ENDBRANCH   9  16
BRANCH   1  26
HETATM   26  N1  UNL     1      15.683   1.320  51.154  1.00  0.00    -0.285 N 
HETATM   27  H4  UNL     1      15.580   1.010  50.145  1.00  0.00     0.178 HD
BRANCH  26  28
HETATM   28  S1  UNL     1      14.440   1.904  52.177  1.00  0.00     0.227 S 
HETATM   29  C1  UNL     1      13.947   0.638  53.291  1.00  0.00     0.186 C 
HETATM   30  O1  UNL     1      13.300   2.488  51.396  1.00  0.00    -0.206 OA
HETATM   31  O2  UNL     1      15.029   3.029  52.981  1.00  0.00    -0.206 OA
ENDBRANCH  26  28
ENDBRANCH   1  26
TORSDOF 4
ENDMDL
MODEL 9
REMARK VINA RESULT:      -7.6      6.686      8.022
REMARK  4 active torsions:
REMARK  status: ('A' for Active; 'I' for Inactive)
REMARK    1  A    between atoms: S1_2  and  N1_5 
REMARK    2  A    between atoms: N1_5  and  C2_6 
REMARK    3  A    between atoms: C8_14  and  N3_15 
REMARK    4  A    between atoms: N3_15  and  C9_16 
ROOT
HETATM    1  C2  UNL     1      27.347   8.189  47.072  1.00  0.00     0.043 A 
HETATM    2  C3  UNL     1      26.081   8.312  47.408  1.00  0.00     0.044 A 
HETATM    3  C4  UNL     1      25.712   7.144  48.210  1.00  0.00    -0.004 A 
HETATM    4  C5  UNL     1      24.463   7.089  48.640  1.00  0.00     0.147 C 
HETATM    5  O3  UNL     1      23.759   6.198  49.390  1.00  0.00    -0.357 OA
HETATM    6  C6  UNL     1      23.302   6.553  50.702  1.00  0.00     0.221 C 
HETATM    7  C7  UNL     1      22.858   5.354  51.451  1.00  0.00     0.118 C 
HETATM    8  N2  UNL     1      23.153   4.094  51.487  1.00  0.00    -0.247 NA
HETATM    9  C8  UNL     1      24.155   3.530  50.640  1.00  0.00     0.128 C 
HETATM   10  C15 UNL     1      25.173   4.345  50.585  1.00  0.00     0.177 C 
HETATM   11  N4  UNL     1      26.443   4.711  50.135  1.00  0.00    -0.405 N 
HETATM   12  C16 UNL     1      27.224   5.023  48.965  1.00  0.00     0.154 C 
HETATM   13  C17 UNL     1      26.879   6.297  48.330  1.00  0.00    -0.026 A 
HETATM   14  C18 UNL     1      27.832   6.949  47.640  1.00  0.00     0.039 A 
HETATM   15  H15 UNL     1      26.994   4.774  51.053  1.00  0.00     0.154 HD
ENDROOT
BRANCH   9  16
HETATM   16  N3  UNL     1      23.337   2.396  50.410  1.00  0.00    -0.343 N 
HETATM   17  H10 UNL     1      22.889   2.221  49.490  1.00  0.00     0.167 HD
BRANCH  16  18
HETATM   18  C9  UNL     1      23.015   1.384  51.327  1.00  0.00     0.035 A 
HETATM   19  C10 UNL     1      21.751   0.799  51.363  1.00  0.00     0.032 A 
HETATM   20  C11 UNL     1      21.450  -0.209  52.289  1.00  0.00     0.046 A 
HETATM   21  C12 UNL     1      22.423  -0.637  53.190  1.00  0.00     0.138 A 
HETATM   22  F1  UNL     1      22.211  -1.597  54.109  1.00  0.00    -0.204 F 
HETATM   23  C13 UNL     1      23.683  -0.037  53.136  1.00  0.00     0.074 A 
HETATM   24 CL1  UNL     1      24.907  -0.555  54.257  1.00  0.00    -0.081 Cl
HETATM   25  C14 UNL     1      23.984   0.955  52.229  1.00  0.00     0.056 A 
ENDBRANCH  16  18
ENDBRANCH   9  16
BRANCH   1  26
HETATM   26  N1  UNL     1      28.125   9.113  46.280  1.00  0.00    -0.285 N 
HETATM   27  H4  UNL     1      27.854   8.942  45.269  1.00  0.00     0.178 HD
BRANCH  26  28
HETATM   28  S1  UNL     1      29.263  10.256  46.857  1.00  0.00     0.227 S 
HETATM   29  C1  UNL     1      28.801  10.791  48.465  1.00  0.00     0.186 C 
HETATM   30  O1  UNL     1      29.464  11.383  45.887  1.00  0.00    -0.206 OA
HETATM   31  O2  UNL     1      30.581   9.542  46.963  1.00  0.00    -0.206 OA
ENDBRANCH  26  28
ENDBRANCH   1  26
TORSDOF 4
ENDMDL
