MODEL 1
REMARK VINA RESULT:      -7.4      0.000      0.000
REMARK  7 active torsions:
REMARK  status: ('A' for Active; 'I' for Inactive)
REMARK    1  A    between atoms: S1_2  and  C2_3 
REMARK    2  A    between atoms: C2_3  and  C3_4 
REMARK    3  A    between atoms: C8_10  and  O1_11 
REMARK    4  A    between atoms: O1_11  and  C9_12 
REMARK    5  A    between atoms: C9_12  and  C10_13 
REMARK    6  A    between atoms: C10_13  and  C11_14 
REMARK    7  A    between atoms: C14_17  and  O2_18 
ROOT
HETATM    1  C3  UNL     1      26.375   0.648  54.375  1.00  0.00     0.036 A 
HETATM    2  C4  UNL     1      25.288  -0.039  54.063  1.00  0.00     0.123 A 
HETATM    3  N1  UNL     1      24.374   0.874  53.427  1.00  0.00    -0.317 N 
HETATM    4  C5  UNL     1      23.073   0.605  52.915  1.00  0.00     0.099 A 
HETATM    5  C6  UNL     1      22.370   1.576  52.357  1.00  0.00     0.031 A 
HETATM    6  C7  UNL     1      22.931   2.914  52.270  1.00  0.00    -0.009 A 
HETATM    7  C8  UNL     1      22.244   3.897  51.717  1.00  0.00     0.146 C 
HETATM    8  C17 UNL     1      24.266   3.154  52.806  1.00  0.00     0.062 A 
HETATM    9  C18 UNL     1      24.966   2.175  53.363  1.00  0.00     0.112 A 
HETATM   10  N2  UNL     1      26.254   2.007  53.979  1.00  0.00    -0.344 N 
HETATM   11  H20 UNL     1      26.895   2.824  54.058  1.00  0.00     0.167 HD
ENDROOT
BRANCH   7  12
HETATM   12  O1  UNL     1      22.565   5.232  51.524  1.00  0.00    -0.362 OA
BRANCH  12  13
HETATM   13  C9  UNL     1      22.581   5.781  50.197  1.00  0.00     0.179 C 
BRANCH  13  14
HETATM   14  C10 UNL     1      23.093   4.693  49.278  1.00  0.00     0.065 C 
BRANCH  14  15
HETATM   15  C11 UNL     1      24.588   4.819  49.169  1.00  0.00    -0.056 A 
HETATM   16  C12 UNL     1      25.380   3.720  49.471  1.00  0.00     0.010 A 
HETATM   17  C13 UNL     1      26.774   3.826  49.377  1.00  0.00     0.037 A 
HETATM   18  C14 UNL     1      27.365   5.015  48.985  1.00  0.00     0.065 A 
HETATM   19  C15 UNL     1      26.586   6.097  48.688  1.00  0.00     0.037 A 
HETATM   20  C16 UNL     1      25.201   5.995  48.781  1.00  0.00     0.010 A 
BRANCH  18  21
HETATM   21  O2  UNL     1      28.762   5.148  48.882  1.00  0.00    -0.361 OA
HETATM   22  H16 UNL     1      29.157   5.978  49.334  1.00  0.00     0.217 HD
ENDBRANCH  18  21
ENDBRANCH  14  15
ENDBRANCH  13  14
ENDBRANCH  12  13
ENDBRANCH   7  12
BRANCH   1  23
HETATM   23  C2  UNL     1      27.576   0.103  55.044  1.00  0.00     0.132 C 
BRANCH  23  24
HETATM   24  S1  UNL     1      29.102   0.592  54.220  1.00  0.00    -0.167 SA
HETATM   25  C1  UNL     1      30.012  -0.802  53.545  1.00  0.00     0.090 C 
ENDBRANCH  23  24
ENDBRANCH   1  23
TORSDOF 7
ENDMDL
MODEL 2
REMARK VINA RESULT:      -7.3      2.709      5.400
REMARK  7 active torsions:
REMARK  status: ('A' for Active; 'I' for Inactive)
REMARK    1  A    between atoms: S1_2  and  C2_3 
REMARK    2  A    between atoms: C2_3  and  C3_4 
REMARK    3  A    between atoms: C8_10  and  O1_11 
REMARK    4  A    between atoms: O1_11  and  C9_12 
REMARK    5  A    between atoms: C9_12  and  C10_13 
REMARK    6  A    between atoms: C10_13  and  C11_14 
REMARK    7  A    between atoms: C14_17  and  O2_18 
ROOT
HETATM    1  C3  UNL     1      27.467   2.212  53.244  1.00  0.00     0.036 A 
HETATM    2  C4  UNL     1      27.382   2.379  51.935  1.00  0.00     0.123 A 
HETATM    3  N1  UNL     1      26.007   2.679  51.631  1.00  0.00    -0.317 N 
HETATM    4  C5  UNL     1      25.422   2.938  50.359  1.00  0.00     0.099 A 
HETATM    5  C6  UNL     1      24.129   3.198  50.269  1.00  0.00     0.031 A 
HETATM    6  C7  UNL     1      23.311   3.219  51.471  1.00  0.00    -0.009 A 
HETATM    7  C8  UNL     1      22.018   3.477  51.401  1.00  0.00     0.146 C 
HETATM    8  C17 UNL     1      23.943   2.948  52.757  1.00  0.00     0.062 A 
HETATM    9  C18 UNL     1      25.241   2.688  52.840  1.00  0.00     0.112 A 
HETATM   10  N2  UNL     1      26.201   2.385  53.867  1.00  0.00    -0.344 N 
HETATM   11  H20 UNL     1      25.891   2.332  54.860  1.00  0.00     0.167 HD
ENDROOT
BRANCH   7  12
HETATM   12  O1  UNL     1      21.052   3.550  52.393  1.00  0.00    -0.362 OA
BRANCH  12  13
HETATM   13  C9  UNL     1      19.972   2.603  52.414  1.00  0.00     0.179 C 
BRANCH  13  14
HETATM   14  C10 UNL     1      20.489   1.334  51.773  1.00  0.00     0.065 C 
BRANCH  14  15
HETATM   15  C11 UNL     1      21.142   0.490  52.832  1.00  0.00    -0.056 A 
HETATM   16  C12 UNL     1      22.258  -0.266  52.498  1.00  0.00     0.010 A 
HETATM   17  C13 UNL     1      22.873  -1.059  53.475  1.00  0.00     0.037 A 
HETATM   18  C14 UNL     1      22.379  -1.093  54.767  1.00  0.00     0.065 A 
HETATM   19  C15 UNL     1      21.282  -0.350  55.097  1.00  0.00     0.037 A 
HETATM   20  C16 UNL     1      20.668   0.439  54.129  1.00  0.00     0.010 A 
BRANCH  18  21
HETATM   21  O2  UNL     1      22.979  -1.881  55.768  1.00  0.00    -0.361 OA
HETATM   22  H16 UNL     1      23.940  -1.621  56.012  1.00  0.00     0.217 HD
ENDBRANCH  18  21
ENDBRANCH  14  15
ENDBRANCH  13  14
ENDBRANCH  12  13
ENDBRANCH   7  12
BRANCH   1  23
HETATM   23  C2  UNL     1      28.700   1.890  53.994  1.00  0.00     0.132 C 
BRANCH  23  24
HETATM   24  S1  UNL     1      28.735   0.179  54.556  1.00  0.00    -0.167 SA
HETATM   25  C1  UNL     1      28.377  -0.997  53.247  1.00  0.00     0.090 C 
ENDBRANCH  23  24
ENDBRANCH   1  23
TORSDOF 7
ENDMDL
MODEL 3
REMARK VINA RESULT:      -7.1      3.110      4.912
REMARK  7 active torsions:
REMARK  status: ('A' for Active; 'I' for Inactive)
REMARK    1  A    between atoms: S1_2  and  C2_3 
REMARK    2  A    between atoms: C2_3  and  C3_4 
REMARK    3  A    between atoms: C8_10  and  O1_11 
REMARK    4  A    between atoms: O1_11  and  C9_12 
REMARK    5  A    between atoms: C9_12  and  C10_13 
REMARK    6  A    between atoms: C10_13  and  C11_14 
REMARK    7  A    between atoms: C14_17  and  O2_18 
ROOT
HETATM    1  C3  UNL     1      26.541   0.495  53.347  1.00  0.00     0.036 A 
HETATM    2  C4  UNL     1      26.395  -0.052  54.543  1.00  0.00     0.123 A 
HETATM    3  N1  UNL     1      25.035  -0.514  54.636  1.00  0.00    -0.317 N 
HETATM    4  C5  UNL     1      24.400  -1.170  55.729  1.00  0.00     0.099 A 
HETATM    5  C6  UNL     1      23.131  -1.527  55.637  1.00  0.00     0.031 A 
HETATM    6  C7  UNL     1      22.389  -1.247  54.418  1.00  0.00    -0.009 A 
HETATM    7  C8  UNL     1      21.120  -1.596  54.307  1.00  0.00     0.146 C 
HETATM    8  C17 UNL     1      23.070  -0.573  53.319  1.00  0.00     0.062 A 
HETATM    9  C18 UNL     1      24.344  -0.218  53.418  1.00  0.00     0.112 A 
HETATM   10  N2  UNL     1      25.333   0.432  52.602  1.00  0.00    -0.344 N 
HETATM   11  H20 UNL     1      25.078   0.753  51.644  1.00  0.00     0.167 HD
ENDROOT
BRANCH   7  12
HETATM   12  O1  UNL     1      20.224  -1.437  53.261  1.00  0.00    -0.362 OA
BRANCH  12  13
HETATM   13  C9  UNL     1      19.212  -0.419  53.332  1.00  0.00     0.179 C 
BRANCH  13  14
HETATM   14  C10 UNL     1      19.068   0.153  51.939  1.00  0.00     0.065 C 
BRANCH  14  15
HETATM   15  C11 UNL     1      20.300   0.954  51.618  1.00  0.00    -0.056 A 
HETATM   16  C12 UNL     1      20.650   2.013  52.445  1.00  0.00     0.010 A 
HETATM   17  C13 UNL     1      21.793   2.769  52.155  1.00  0.00     0.037 A 
HETATM   18  C14 UNL     1      22.575   2.467  51.053  1.00  0.00     0.065 A 
HETATM   19  C15 UNL     1      22.232   1.425  50.239  1.00  0.00     0.037 A 
HETATM   20  C16 UNL     1      21.097   0.673  50.525  1.00  0.00     0.010 A 
BRANCH  18  21
HETATM   21  O2  UNL     1      23.729   3.209  50.739  1.00  0.00    -0.361 OA
HETATM   22  H16 UNL     1      24.556   2.992  51.304  1.00  0.00     0.217 HD
ENDBRANCH  18  21
ENDBRANCH  14  15
ENDBRANCH  13  14
ENDBRANCH  12  13
ENDBRANCH   7  12
BRANCH   1  23
HETATM   23  C2  UNL     1      27.785   1.100  52.822  1.00  0.00     0.132 C 
BRANCH  23  24
HETATM   24  S1  UNL     1      29.204   0.785  53.887  1.00  0.00    -0.167 SA
HETATM   25  C1  UNL     1      29.946  -0.826  53.609  1.00  0.00     0.090 C 
ENDBRANCH  23  24
ENDBRANCH   1  23
TORSDOF 7
ENDMDL
MODEL 4
REMARK VINA RESULT:      -7.0      4.916      7.690
REMARK  7 active torsions:
REMARK  status: ('A' for Active; 'I' for Inactive)
REMARK    1  A    between atoms: S1_2  and  C2_3 
REMARK    2  A    between atoms: C2_3  and  C3_4 
REMARK    3  A    between atoms: C8_10  and  O1_11 
REMARK    4  A    between atoms: O1_11  and  C9_12 
REMARK    5  A    between atoms: C9_12  and  C10_13 
REMARK    6  A    between atoms: C10_13  and  C11_14 
REMARK    7  A    between atoms: C14_17  and  O2_18 
ROOT
HETATM    1  C3  UNL     1      18.122  -0.416  52.117  1.00  0.00     0.036 A 
HETATM    2  C4  UNL     1      18.509  -1.128  53.163  1.00  0.00     0.123 A 
HETATM    3  N1  UNL     1      19.896  -0.822  53.397  1.00  0.00    -0.317 N 
HETATM    4  C5  UNL     1      20.754  -1.338  54.409  1.00  0.00     0.099 A 
HETATM    5  C6  UNL     1      22.013  -0.940  54.473  1.00  0.00     0.031 A 
HETATM    6  C7  UNL     1      22.514   0.025  53.509  1.00  0.00    -0.009 A 
HETATM    7  C8  UNL     1      23.768   0.435  53.557  1.00  0.00     0.146 C 
HETATM    8  C17 UNL     1      21.608   0.533  52.484  1.00  0.00     0.062 A 
HETATM    9  C18 UNL     1      20.346   0.129  52.426  1.00  0.00     0.112 A 
HETATM   10  N2  UNL     1      19.188   0.376  51.611  1.00  0.00    -0.344 N 
HETATM   11  H20 UNL     1      19.253   1.047  50.818  1.00  0.00     0.167 HD
ENDROOT
BRANCH   7  12
HETATM   12  O1  UNL     1      24.461   1.333  52.759  1.00  0.00    -0.362 OA
BRANCH  12  13
HETATM   13  C9  UNL     1      25.719   1.866  53.203  1.00  0.00     0.179 C 
BRANCH  13  14
HETATM   14  C10 UNL     1      26.746   1.496  52.155  1.00  0.00     0.065 C 
BRANCH  14  15
HETATM   15  C11 UNL     1      27.328   0.154  52.504  1.00  0.00    -0.056 A 
HETATM   16  C12 UNL     1      26.636  -0.995  52.144  1.00  0.00     0.010 A 
HETATM   17  C13 UNL     1      27.165  -2.250  52.466  1.00  0.00     0.037 A 
HETATM   18  C14 UNL     1      28.371  -2.354  53.138  1.00  0.00     0.065 A 
HETATM   19  C15 UNL     1      29.053  -1.225  53.492  1.00  0.00     0.037 A 
HETATM   20  C16 UNL     1      28.529   0.024  53.174  1.00  0.00     0.010 A 
BRANCH  18  21
HETATM   21  O2  UNL     1      28.926  -3.604  53.474  1.00  0.00    -0.361 OA
HETATM   22  H16 UNL     1      29.779  -3.854  52.964  1.00  0.00     0.217 HD
ENDBRANCH  18  21
ENDBRANCH  14  15
ENDBRANCH  13  14
ENDBRANCH  12  13
ENDBRANCH   7  12
BRANCH   1  23
HETATM   23  C2  UNL     1      16.765  -0.419  51.527  1.00  0.00     0.132 C 
BRANCH  23  24
HETATM   24  S1  UNL     1      16.724   0.350  49.898  1.00  0.00    -0.167 SA
HETATM   25  C1  UNL     1      15.172   0.083  49.035  1.00  0.00     0.090 C 
ENDBRANCH  23  24
ENDBRANCH   1  23
TORSDOF 7
ENDMDL
MODEL 5
REMARK VINA RESULT:      -6.9      2.343      3.266
REMARK  7 active torsions:
REMARK  status: ('A' for Active; 'I' for Inactive)
REMARK    1  A    between atoms: S1_2  and  C2_3 
REMARK    2  A    between atoms: C2_3  and  C3_4 
REMARK    3  A    between atoms: C8_10  and  O1_11 
REMARK    4  A    between atoms: O1_11  and  C9_12 
REMARK    5  A    between atoms: C9_12  and  C10_13 
REMARK    6  A    between atoms: C10_13  and  C11_14 
REMARK    7  A    between atoms: C14_17  and  O2_18 
ROOT
HETATM    1  C3  UNL     1      26.184  -0.426  53.490  1.00  0.00     0.036 A 
HETATM    2  C4  UNL     1      25.478  -0.994  54.454  1.00  0.00     0.123 A 
HETATM    3  N1  UNL     1      24.097  -0.659  54.224  1.00  0.00    -0.317 N 
HETATM    4  C5  UNL     1      22.959  -1.038  54.991  1.00  0.00     0.099 A 
HETATM    5  C6  UNL     1      21.753  -0.634  54.626  1.00  0.00     0.031 A 
HETATM    6  C7  UNL     1      21.598   0.194  53.442  1.00  0.00    -0.009 A 
HETATM    7  C8  UNL     1      20.402   0.607  53.062  1.00  0.00     0.146 C 
HETATM    8  C17 UNL     1      22.785   0.564  52.680  1.00  0.00     0.062 A 
HETATM    9  C18 UNL     1      23.991   0.155  53.051  1.00  0.00     0.112 A 
HETATM   10  N2  UNL     1      25.347   0.293  52.595  1.00  0.00    -0.344 N 
HETATM   11  H20 UNL     1      25.546   0.852  51.739  1.00  0.00     0.167 HD
ENDROOT
BRANCH   7  12
HETATM   12  O1  UNL     1      20.012   1.391  51.987  1.00  0.00    -0.362 OA
BRANCH  12  13
HETATM   13  C9  UNL     1      19.768   2.794  52.173  1.00  0.00     0.179 C 
BRANCH  13  14
HETATM   14  C10 UNL     1      20.296   3.499  50.943  1.00  0.00     0.065 C 
BRANCH  14  15
HETATM   15  C11 UNL     1      21.796   3.561  51.030  1.00  0.00    -0.056 A 
HETATM   16  C12 UNL     1      22.554   3.044  49.987  1.00  0.00     0.010 A 
HETATM   17  C13 UNL     1      23.951   3.093  50.058  1.00  0.00     0.037 A 
HETATM   18  C14 UNL     1      24.582   3.651  51.156  1.00  0.00     0.065 A 
HETATM   19  C15 UNL     1      23.838   4.160  52.183  1.00  0.00     0.037 A 
HETATM   20  C16 UNL     1      22.448   4.112  52.115  1.00  0.00     0.010 A 
BRANCH  18  21
HETATM   21  O2  UNL     1      25.985   3.714  51.252  1.00  0.00    -0.361 OA
HETATM   22  H16 UNL     1      26.496   3.248  50.497  1.00  0.00     0.217 HD
ENDBRANCH  18  21
ENDBRANCH  14  15
ENDBRANCH  13  14
ENDBRANCH  12  13
ENDBRANCH   7  12
BRANCH   1  23
HETATM   23  C2  UNL     1      27.653  -0.510  53.334  1.00  0.00     0.132 C 
BRANCH  23  24
HETATM   24  S1  UNL     1      28.522   0.684  54.366  1.00  0.00    -0.167 SA
HETATM   25  C1  UNL     1      28.618   2.316  53.622  1.00  0.00     0.090 C 
ENDBRANCH  23  24
ENDBRANCH   1  23
TORSDOF 7
ENDMDL
MODEL 6
REMARK VINA RESULT:      -6.9      3.671      6.315
REMARK  7 active torsions:
REMARK  status: ('A' for Active; 'I' for Inactive)
REMARK    1  A    between atoms: S1_2  and  C2_3 
REMARK    2  A    between atoms: C2_3  and  C3_4 
REMARK    3  A    between atoms: C8_10  and  O1_11 
REMARK    4  A    between atoms: O1_11  and  C9_12 
REMARK    5  A    between atoms: C9_12  and  C10_13 
REMARK    6  A    between atoms: C10_13  and  C11_14 
REMARK    7  A    between atoms: C14_17  and  O2_18 
ROOT
HETATM    1  C3  UNL     1      20.163   0.528  51.446  1.00  0.00     0.036 A 
HETATM    2  C4  UNL     1      19.813   0.002  52.609  1.00  0.00     0.123 A 
HETATM    3  N1  UNL     1      21.025  -0.331  53.309  1.00  0.00    -0.317 N 
HETATM    4  C5  UNL     1      21.165  -0.921  54.597  1.00  0.00     0.099 A 
HETATM    5  C6  UNL     1      22.371  -1.157  55.087  1.00  0.00     0.031 A 
HETATM    6  C7  UNL     1      23.547  -0.813  54.306  1.00  0.00    -0.009 A 
HETATM    7  C8  UNL     1      24.759  -1.041  54.778  1.00  0.00     0.146 C 
HETATM    8  C17 UNL     1      23.367  -0.212  52.989  1.00  0.00     0.062 A 
HETATM    9  C18 UNL     1      22.155   0.023  52.505  1.00  0.00     0.112 A 
HETATM   10  N2  UNL     1      21.577   0.575  51.309  1.00  0.00    -0.344 N 
HETATM   11  H20 UNL     1      22.200   0.916  50.548  1.00  0.00     0.167 HD
ENDROOT
BRANCH   7  12
HETATM   12  O1  UNL     1      26.008  -0.802  54.225  1.00  0.00    -0.362 OA
BRANCH  12  13
HETATM   13  C9  UNL     1      26.832   0.254  54.744  1.00  0.00     0.179 C 
BRANCH  13  14
HETATM   14  C10 UNL     1      27.405   0.989  53.553  1.00  0.00     0.065 C 
BRANCH  14  15
HETATM   15  C11 UNL     1      26.305   1.782  52.902  1.00  0.00    -0.056 A 
HETATM   16  C12 UNL     1      25.441   2.518  53.702  1.00  0.00     0.010 A 
HETATM   17  C13 UNL     1      24.410   3.257  53.108  1.00  0.00     0.037 A 
HETATM   18  C14 UNL     1      24.248   3.261  51.733  1.00  0.00     0.065 A 
HETATM   19  C15 UNL     1      25.097   2.537  50.946  1.00  0.00     0.037 A 
HETATM   20  C16 UNL     1      26.122   1.801  51.533  1.00  0.00     0.010 A 
BRANCH  18  21
HETATM   21  O2  UNL     1      23.221   3.996  51.111  1.00  0.00    -0.361 OA
HETATM   22  H16 UNL     1      23.250   5.008  51.269  1.00  0.00     0.217 HD
ENDBRANCH  18  21
ENDBRANCH  14  15
ENDBRANCH  13  14
ENDBRANCH  12  13
ENDBRANCH   7  12
BRANCH   1  23
HETATM   23  C2  UNL     1      19.232   1.015  50.405  1.00  0.00     0.132 C 
BRANCH  23  24
HETATM   24  S1  UNL     1      19.715   2.623  49.752  1.00  0.00    -0.167 SA
HETATM   25  C1  UNL     1      19.563   3.945  50.958  1.00  0.00     0.090 C 
ENDBRANCH  23  24
ENDBRANCH   1  23
TORSDOF 7
ENDMDL
MODEL 7
REMARK VINA RESULT:      -6.8      3.708      6.796
REMARK  7 active torsions:
REMARK  status: ('A' for Active; 'I' for Inactive)
REMARK    1  A    between atoms: S1_2  and  C2_3 
REMARK    2  A    between atoms: C2_3  and  C3_4 
REMARK    3  A    between atoms: C8_10  and  O1_11 
REMARK    4  A    between atoms: O1_11  and  C9_12 
REMARK    5  A    between atoms: C9_12  and  C10_13 
REMARK    6  A    between atoms: C10_13  and  C11_14 
REMARK    7  A    between atoms: C14_17  and  O2_18 
ROOT
HETATM    1  C3  UNL     1      28.597   6.374  48.030  1.00  0.00     0.036 A 
HETATM    2  C4  UNL     1      27.464   7.056  47.993  1.00  0.00     0.123 A 
HETATM    3  N1  UNL     1      26.435   6.204  48.531  1.00  0.00    -0.317 N 
HETATM    4  C5  UNL     1      25.051   6.491  48.697  1.00  0.00     0.099 A 
HETATM    5  C6  UNL     1      24.246   5.578  49.214  1.00  0.00     0.031 A 
HETATM    6  C7  UNL     1      24.780   4.286  49.610  1.00  0.00    -0.009 A 
HETATM    7  C8  UNL     1      23.992   3.362  50.128  1.00  0.00     0.146 C 
HETATM    8  C17 UNL     1      26.203   4.025  49.424  1.00  0.00     0.062 A 
HETATM    9  C18 UNL     1      27.005   4.945  48.906  1.00  0.00     0.112 A 
HETATM   10  N2  UNL     1      28.398   5.076  48.574  1.00  0.00    -0.344 N 
HETATM   11  H20 UNL     1      29.045   4.281  48.755  1.00  0.00     0.167 HD
ENDROOT
BRANCH   7  12
HETATM   12  O1  UNL     1      24.269   2.078  50.573  1.00  0.00    -0.362 OA
BRANCH  12  13
HETATM   13  C9  UNL     1      24.152   1.761  51.969  1.00  0.00     0.179 C 
BRANCH  13  14
HETATM   14  C10 UNL     1      25.405   2.278  52.642  1.00  0.00     0.065 C 
BRANCH  14  15
HETATM   15  C11 UNL     1      26.345   1.125  52.861  1.00  0.00    -0.056 A 
HETATM   16  C12 UNL     1      27.649   1.386  53.261  1.00  0.00     0.010 A 
HETATM   17  C13 UNL     1      28.535   0.321  53.465  1.00  0.00     0.037 A 
HETATM   18  C14 UNL     1      28.122  -0.986  53.272  1.00  0.00     0.065 A 
HETATM   19  C15 UNL     1      26.839  -1.244  52.879  1.00  0.00     0.037 A 
HETATM   20  C16 UNL     1      25.957  -0.188  52.675  1.00  0.00     0.010 A 
BRANCH  18  21
HETATM   21  O2  UNL     1      28.992  -2.075  53.471  1.00  0.00    -0.361 OA
HETATM   22  H16 UNL     1      29.602  -2.297  52.679  1.00  0.00     0.217 HD
ENDBRANCH  18  21
ENDBRANCH  14  15
ENDBRANCH  13  14
ENDBRANCH  12  13
ENDBRANCH   7  12
BRANCH   1  23
HETATM   23  C2  UNL     1      29.915   6.867  47.575  1.00  0.00     0.132 C 
BRANCH  23  24
HETATM   24  S1  UNL     1      31.252   5.734  47.990  1.00  0.00    -0.167 SA
HETATM   25  C1  UNL     1      31.890   5.979  49.651  1.00  0.00     0.090 C 
ENDBRANCH  23  24
ENDBRANCH   1  23
TORSDOF 7
ENDMDL
MODEL 8
REMARK VINA RESULT:      -6.7      3.647      7.698
REMARK  7 active torsions:
REMARK  status: ('A' for Active; 'I' for Inactive)
REMARK    1  A    between atoms: S1_2  and  C2_3 
REMARK    2  A    between atoms: C2_3  and  C3_4 
REMARK    3  A    between atoms: C8_10  and  O1_11 
REMARK    4  A    between atoms: O1_11  and  C9_12 
REMARK    5  A    between atoms: C9_12  and  C10_13 
REMARK    6  A    between atoms: C10_13  and  C11_14 
REMARK    7  A    between atoms: C14_17  and  O2_18 
ROOT
HETATM    1  C3  UNL     1      22.206   4.540  50.709  1.00  0.00     0.036 A 
HETATM    2  C4  UNL     1      23.186   4.362  49.838  1.00  0.00     0.123 A 
HETATM    3  N1  UNL     1      24.276   3.740  50.544  1.00  0.00    -0.317 N 
HETATM    4  C5  UNL     1      25.548   3.353  50.037  1.00  0.00     0.099 A 
HETATM    5  C6  UNL     1      26.434   2.787  50.839  1.00  0.00     0.031 A 
HETATM    6  C7  UNL     1      26.103   2.565  52.237  1.00  0.00    -0.009 A 
HETATM    7  C8  UNL     1      26.975   2.002  53.053  1.00  0.00     0.146 C 
HETATM    8  C17 UNL     1      24.791   2.975  52.724  1.00  0.00     0.062 A 
HETATM    9  C18 UNL     1      23.907   3.541  51.913  1.00  0.00     0.112 A 
HETATM   10  N2  UNL     1      22.570   4.063  51.997  1.00  0.00    -0.344 N 
HETATM   11  H20 UNL     1      22.064   4.035  52.907  1.00  0.00     0.167 HD
ENDROOT
BRANCH   7  12
HETATM   12  O1  UNL     1      26.887   1.693  54.402  1.00  0.00    -0.362 OA
BRANCH  12  13
HETATM   13  C9  UNL     1      26.964   0.325  54.832  1.00  0.00     0.179 C 
BRANCH  13  14
HETATM   14  C10 UNL     1      26.348  -0.515  53.735  1.00  0.00     0.065 C 
BRANCH  14  15
HETATM   15  C11 UNL     1      24.895  -0.737  54.057  1.00  0.00    -0.056 A 
HETATM   16  C12 UNL     1      23.939  -0.443  53.094  1.00  0.00     0.010 A 
HETATM   17  C13 UNL     1      22.583  -0.642  53.384  1.00  0.00     0.037 A 
HETATM   18  C14 UNL     1      22.191  -1.130  54.619  1.00  0.00     0.065 A 
HETATM   19  C15 UNL     1      23.131  -1.419  55.566  1.00  0.00     0.037 A 
HETATM   20  C16 UNL     1      24.479  -1.222  55.282  1.00  0.00     0.010 A 
BRANCH  18  21
HETATM   21  O2  UNL     1      20.836  -1.340  54.935  1.00  0.00    -0.361 OA
HETATM   22  H16 UNL     1      20.602  -2.285  55.254  1.00  0.00     0.217 HD
ENDBRANCH  18  21
ENDBRANCH  14  15
ENDBRANCH  13  14
ENDBRANCH  12  13
ENDBRANCH   7  12
BRANCH   1  23
HETATM   23  C2  UNL     1      20.890   5.147  50.413  1.00  0.00     0.132 C 
BRANCH  23  24
HETATM   24  S1  UNL     1      21.007   6.486  49.213  1.00  0.00    -0.167 SA
HETATM   25  C1  UNL     1      20.783   8.109  49.949  1.00  0.00     0.090 C 
ENDBRANCH  23  24
ENDBRANCH   1  23
TORSDOF 7
ENDMDL
MODEL 9
REMARK VINA RESULT:      -6.6      3.699      7.145
REMARK  7 active torsions:
REMARK  status: ('A' for Active; 'I' for Inactive)
REMARK    1  A    between atoms: S1_2  and  C2_3 
REMARK    2  A    between atoms: C2_3  and  C3_4 
REMARK    3  A    between atoms: C8_10  and  O1_11 
REMARK    4  A    between atoms: O1_11  and  C9_12 
REMARK    5  A    between atoms: C9_12  and  C10_13 
REMARK    6  A    between atoms: C10_13  and  C11_14 
REMARK    7  A    between atoms: C14_17  and  O2_18 
ROOT
HETATM    1  C3  UNL     1      25.486   3.534  50.676  1.00  0.00     0.036 A 
HETATM    2  C4  UNL     1      26.424   2.601  50.681  1.00  0.00     0.123 A 
HETATM    3  N1  UNL     1      26.008   1.582  51.610  1.00  0.00    -0.317 N 
HETATM    4  C5  UNL     1      26.683   0.379  51.959  1.00  0.00     0.099 A 
HETATM    5  C6  UNL     1      26.145  -0.447  52.840  1.00  0.00     0.031 A 
HETATM    6  C7  UNL     1      24.866  -0.121  53.448  1.00  0.00    -0.009 A 
HETATM    7  C8  UNL     1      24.313  -0.934  54.330  1.00  0.00     0.146 C 
HETATM    8  C17 UNL     1      24.202   1.121  53.068  1.00  0.00     0.062 A 
HETATM    9  C18 UNL     1      24.747   1.944  52.183  1.00  0.00     0.112 A 
HETATM   10  N2  UNL     1      24.429   3.205  51.568  1.00  0.00    -0.344 N 
HETATM   11  H20 UNL     1      23.543   3.689  51.820  1.00  0.00     0.167 HD
ENDROOT
BRANCH   7  12
HETATM   12  O1  UNL     1      23.121  -0.837  55.031  1.00  0.00    -0.362 OA
BRANCH  12  13
HETATM   13  C9  UNL     1      21.894  -1.271  54.423  1.00  0.00     0.179 C 
BRANCH  13  14
HETATM   14  C10 UNL     1      20.911  -0.128  54.553  1.00  0.00     0.065 C 
BRANCH  14  15
HETATM   15  C11 UNL     1      20.122  -0.023  53.277  1.00  0.00    -0.056 A 
HETATM   16  C12 UNL     1      20.650   0.702  52.217  1.00  0.00     0.010 A 
HETATM   17  C13 UNL     1      19.924   0.810  51.024  1.00  0.00     0.037 A 
HETATM   18  C14 UNL     1      18.687   0.201  50.895  1.00  0.00     0.065 A 
HETATM   19  C15 UNL     1      18.168  -0.513  51.938  1.00  0.00     0.037 A 
HETATM   20  C16 UNL     1      18.887  -0.622  53.124  1.00  0.00     0.010 A 
BRANCH  18  21
HETATM   21  O2  UNL     1      17.937   0.293  49.708  1.00  0.00    -0.361 OA
HETATM   22  H16 UNL     1      16.923   0.366  49.835  1.00  0.00     0.217 HD
ENDBRANCH  18  21
ENDBRANCH  14  15
ENDBRANCH  13  14
ENDBRANCH  12  13
ENDBRANCH   7  12
BRANCH   1  23
HETATM   23  C2  UNL     1      25.502   4.768  49.861  1.00  0.00     0.132 C 
BRANCH  23  24
HETATM   24  S1  UNL     1      23.988   5.728  50.039  1.00  0.00    -0.167 SA
HETATM   25  C1  UNL     1      24.148   7.081  51.208  1.00  0.00     0.090 C 
ENDBRANCH  23  24
ENDBRANCH   1  23
TORSDOF 7
ENDMDL
