MODEL 1
REMARK VINA RESULT:      -8.8      0.000      0.000
REMARK  2 active torsions:
REMARK  status: ('A' for Active; 'I' for Inactive)
REMARK    1  A    between atoms: O1_2  and  C2_3 
REMARK    2  A    between atoms: C12_16  and  C13_17 
ROOT
HETATM    1  C2  UNL     1      27.385  -0.645  53.285  1.00  0.00     0.069 A 
HETATM    2  C3  UNL     1      27.774   0.595  52.818  1.00  0.00     0.039 A 
HETATM    3  C4  UNL     1      26.853   1.580  52.585  1.00  0.00     0.040 A 
HETATM    4  C5  UNL     1      25.522   1.321  52.824  1.00  0.00     0.086 A 
HETATM    5  C6  UNL     1      25.088   0.082  53.296  1.00  0.00    -0.004 A 
HETATM    6  C7  UNL     1      26.058  -0.886  53.517  1.00  0.00     0.048 A 
HETATM    7  C8  UNL     1      23.775  -0.513  53.647  1.00  0.00     0.161 C 
HETATM    8  N1  UNL     1      22.692   0.069  52.874  1.00  0.00    -0.380 N 
HETATM    9  C9  UNL     1      22.338   1.429  52.645  1.00  0.00     0.112 A 
HETATM   10  C10 UNL     1      23.297   2.422  52.505  1.00  0.00     0.200 A 
HETATM   11  N2  UNL     1      22.834   3.683  52.280  1.00  0.00    -0.215 NA
HETATM   12  C11 UNL     1      21.517   3.924  52.202  1.00  0.00     0.236 A 
HETATM   13  N3  UNL     1      20.680   2.915  52.348  1.00  0.00    -0.239 NA
HETATM   14  C12 UNL     1      20.980   1.633  52.573  1.00  0.00     0.095 A 
HETATM   15  O2  UNL     1      24.682   2.407  52.547  1.00  0.00    -0.289 OA
HETATM   16  H9  UNL     1      21.997  -0.511  52.355  1.00  0.00     0.160 HD
ENDROOT
BRANCH  14  17
HETATM   17  C13 UNL     1      20.015   0.519  52.759  1.00  0.00    -0.023 A 
HETATM   18  C14 UNL     1      19.100   0.534  51.783  1.00  0.00     0.010 A 
HETATM   19  C15 UNL     1      18.096  -0.492  51.849  1.00  0.00     0.003 A 
HETATM   20  C16 UNL     1      18.404  -1.175  52.923  1.00  0.00    -0.080 A 
HETATM   21  C17 UNL     1      17.767  -2.372  53.566  1.00  0.00     0.043 C 
HETATM   22  C18 UNL     1      19.618  -0.625  53.555  1.00  0.00     0.074 A 
ENDBRANCH  14  17
BRANCH   1  23
HETATM   23  O1  UNL     1      28.426  -1.538  53.472  1.00  0.00    -0.356 OA
HETATM   24  C1  UNL     1      29.772  -1.129  53.522  1.00  0.00     0.210 C 
ENDBRANCH   1  23
TORSDOF 2
ENDMDL
MODEL 2
REMARK VINA RESULT:      -8.5      3.477      6.348
REMARK  2 active torsions:
REMARK  status: ('A' for Active; 'I' for Inactive)
REMARK    1  A    between atoms: O1_2  and  C2_3 
REMARK    2  A    between atoms: C12_16  and  C13_17 
ROOT
HETATM    1  C2  UNL     1      26.880  -0.763  53.157  1.00  0.00     0.069 A 
HETATM    2  C3  UNL     1      25.725  -0.830  53.912  1.00  0.00     0.039 A 
HETATM    3  C4  UNL     1      24.727   0.092  53.752  1.00  0.00     0.040 A 
HETATM    4  C5  UNL     1      24.886   1.096  52.823  1.00  0.00     0.086 A 
HETATM    5  C6  UNL     1      26.036   1.198  52.040  1.00  0.00    -0.004 A 
HETATM    6  C7  UNL     1      27.021   0.241  52.238  1.00  0.00     0.048 A 
HETATM    7  C8  UNL     1      26.516   2.121  50.984  1.00  0.00     0.161 C 
HETATM    8  N1  UNL     1      25.972   3.458  51.144  1.00  0.00    -0.380 N 
HETATM    9  C9  UNL     1      24.631   3.902  51.325  1.00  0.00     0.112 A 
HETATM   10  C10 UNL     1      23.713   3.175  52.070  1.00  0.00     0.200 A 
HETATM   11  N2  UNL     1      22.464   3.708  52.178  1.00  0.00    -0.215 NA
HETATM   12  C11 UNL     1      22.165   4.874  51.587  1.00  0.00     0.236 A 
HETATM   13  N3  UNL     1      23.105   5.493  50.898  1.00  0.00    -0.239 NA
HETATM   14  C12 UNL     1      24.366   5.099  50.703  1.00  0.00     0.095 A 
HETATM   15  O2  UNL     1      23.797   1.974  52.755  1.00  0.00    -0.289 OA
HETATM   16  H9  UNL     1      26.571   4.313  51.146  1.00  0.00     0.160 HD
ENDROOT
BRANCH  14  17
HETATM   17  C13 UNL     1      25.397   5.805  49.900  1.00  0.00    -0.023 A 
HETATM   18  C14 UNL     1      25.536   7.063  50.332  1.00  0.00     0.010 A 
HETATM   19  C15 UNL     1      26.502   7.864  49.632  1.00  0.00     0.003 A 
HETATM   20  C16 UNL     1      26.985   7.059  48.719  1.00  0.00    -0.080 A 
HETATM   21  C17 UNL     1      28.024   7.260  47.655  1.00  0.00     0.043 C 
HETATM   22  C18 UNL     1      26.363   5.726  48.824  1.00  0.00     0.074 A 
ENDBRANCH  14  17
BRANCH   1  23
HETATM   23  O1  UNL     1      27.799  -1.763  53.429  1.00  0.00    -0.356 OA
HETATM   24  C1  UNL     1      29.188  -1.538  53.413  1.00  0.00     0.210 C 
ENDBRANCH   1  23
TORSDOF 2
ENDMDL
MODEL 3
REMARK VINA RESULT:      -8.5      2.785      7.797
REMARK  2 active torsions:
REMARK  status: ('A' for Active; 'I' for Inactive)
REMARK    1  A    between atoms: O1_2  and  C2_3 
REMARK    2  A    between atoms: C12_16  and  C13_17 
ROOT
HETATM    1  C2  UNL     1      17.282  -0.294  51.573  1.00  0.00     0.069 A 
HETATM    2  C3  UNL     1      17.084  -1.280  52.520  1.00  0.00     0.039 A 
HETATM    3  C4  UNL     1      18.087  -1.642  53.377  1.00  0.00     0.040 A 
HETATM    4  C5  UNL     1      19.306  -1.008  53.287  1.00  0.00     0.086 A 
HETATM    5  C6  UNL     1      19.546  -0.007  52.345  1.00  0.00    -0.004 A 
HETATM    6  C7  UNL     1      18.499   0.326  51.497  1.00  0.00     0.048 A 
HETATM    7  C8  UNL     1      20.701   0.851  51.987  1.00  0.00     0.161 C 
HETATM    8  N1  UNL     1      21.969   0.202  52.272  1.00  0.00    -0.380 N 
HETATM    9  C9  UNL     1      22.442  -0.439  53.452  1.00  0.00     0.112 A 
HETATM   10  C10 UNL     1      21.600  -1.177  54.273  1.00  0.00     0.200 A 
HETATM   11  N2  UNL     1      22.173  -1.748  55.369  1.00  0.00    -0.215 NA
HETATM   12  C11 UNL     1      23.482  -1.592  55.617  1.00  0.00     0.236 A 
HETATM   13  N3  UNL     1      24.202  -0.872  54.778  1.00  0.00    -0.239 NA
HETATM   14  C12 UNL     1      23.787  -0.253  53.670  1.00  0.00     0.095 A 
HETATM   15  O2  UNL     1      20.247  -1.468  54.217  1.00  0.00    -0.289 OA
HETATM   16  H9  UNL     1      22.734   0.129  51.567  1.00  0.00     0.160 HD
ENDROOT
BRANCH  14  17
HETATM   17  C13 UNL     1      24.616   0.574  52.756  1.00  0.00    -0.023 A 
HETATM   18  C14 UNL     1      25.844   0.054  52.652  1.00  0.00     0.010 A 
HETATM   19  C15 UNL     1      26.756   0.766  51.799  1.00  0.00     0.003 A 
HETATM   20  C16 UNL     1      26.056   1.779  51.355  1.00  0.00    -0.080 A 
HETATM   21  C17 UNL     1      26.403   2.907  50.428  1.00  0.00     0.043 C 
HETATM   22  C18 UNL     1      24.681   1.731  51.887  1.00  0.00     0.074 A 
ENDBRANCH  14  17
BRANCH   1  23
HETATM   23  O1  UNL     1      16.177  -0.036  50.778  1.00  0.00    -0.356 OA
HETATM   24  C1  UNL     1      15.177   0.882  51.149  1.00  0.00     0.210 C 
ENDBRANCH   1  23
TORSDOF 2
ENDMDL
MODEL 4
REMARK VINA RESULT:      -8.4      3.346      5.598
REMARK  2 active torsions:
REMARK  status: ('A' for Active; 'I' for Inactive)
REMARK    1  A    between atoms: O1_2  and  C2_3 
REMARK    2  A    between atoms: C12_16  and  C13_17 
ROOT
HETATM    1  C2  UNL     1      24.893   5.449  48.745  1.00  0.00     0.069 A 
HETATM    2  C3  UNL     1      26.261   5.441  48.943  1.00  0.00     0.039 A 
HETATM    3  C4  UNL     1      26.863   4.437  49.651  1.00  0.00     0.040 A 
HETATM    4  C5  UNL     1      26.086   3.426  50.170  1.00  0.00     0.086 A 
HETATM    5  C6  UNL     1      24.703   3.396  49.992  1.00  0.00    -0.004 A 
HETATM    6  C7  UNL     1      24.137   4.435  49.267  1.00  0.00     0.048 A 
HETATM    7  C8  UNL     1      23.606   2.487  50.402  1.00  0.00     0.161 C 
HETATM    8  N1  UNL     1      23.904   1.801  51.647  1.00  0.00    -0.380 N 
HETATM    9  C9  UNL     1      25.053   1.063  52.050  1.00  0.00     0.112 A 
HETATM   10  C10 UNL     1      26.334   1.430  51.660  1.00  0.00     0.200 A 
HETATM   11  N2  UNL     1      27.353   0.649  52.118  1.00  0.00    -0.215 NA
HETATM   12  C11 UNL     1      27.104  -0.409  52.902  1.00  0.00     0.236 A 
HETATM   13  N3  UNL     1      25.852  -0.681  53.219  1.00  0.00    -0.239 NA
HETATM   14  C12 UNL     1      24.754  -0.014  52.850  1.00  0.00     0.095 A 
HETATM   15  O2  UNL     1      26.820   2.461  50.873  1.00  0.00    -0.289 OA
HETATM   16  H9  UNL     1      23.242   1.782  52.453  1.00  0.00     0.160 HD
ENDROOT
BRANCH  14  17
HETATM   17  C13 UNL     1      23.353  -0.357  53.203  1.00  0.00    -0.023 A 
HETATM   18  C14 UNL     1      23.286  -0.779  54.470  1.00  0.00     0.010 A 
HETATM   19  C15 UNL     1      21.980  -1.153  54.939  1.00  0.00     0.003 A 
HETATM   20  C16 UNL     1      21.199  -0.954  53.907  1.00  0.00    -0.080 A 
HETATM   21  C17 UNL     1      19.723  -1.146  53.715  1.00  0.00     0.043 C 
HETATM   22  C18 UNL     1      21.973  -0.428  52.766  1.00  0.00     0.074 A 
ENDBRANCH  14  17
BRANCH   1  23
HETATM   23  O1  UNL     1      24.428   6.526  48.010  1.00  0.00    -0.356 OA
HETATM   24  C1  UNL     1      25.260   7.596  47.629  1.00  0.00     0.210 C 
ENDBRANCH   1  23
TORSDOF 2
ENDMDL
MODEL 5
REMARK VINA RESULT:      -8.2      3.069      7.118
REMARK  2 active torsions:
REMARK  status: ('A' for Active; 'I' for Inactive)
REMARK    1  A    between atoms: O1_2  and  C2_3 
REMARK    2  A    between atoms: C12_16  and  C13_17 
ROOT
HETATM    1  C2  UNL     1      22.814   3.898  48.776  1.00  0.00     0.069 A 
HETATM    2  C3  UNL     1      21.541   3.425  49.031  1.00  0.00     0.039 A 
HETATM    3  C4  UNL     1      21.308   2.559  50.065  1.00  0.00     0.040 A 
HETATM    4  C5  UNL     1      22.362   2.161  50.856  1.00  0.00     0.086 A 
HETATM    5  C6  UNL     1      23.661   2.616  50.632  1.00  0.00    -0.004 A 
HETATM    6  C7  UNL     1      23.850   3.492  49.572  1.00  0.00     0.048 A 
HETATM    7  C8  UNL     1      24.981   2.395  51.270  1.00  0.00     0.161 C 
HETATM    8  N1  UNL     1      25.075   1.083  51.886  1.00  0.00    -0.380 N 
HETATM    9  C9  UNL     1      24.203   0.418  52.794  1.00  0.00     0.112 A 
HETATM   10  C10 UNL     1      22.823   0.555  52.719  1.00  0.00     0.200 A 
HETATM   11  N2  UNL     1      22.096  -0.139  53.638  1.00  0.00    -0.215 NA
HETATM   12  C11 UNL     1      22.705  -0.906  54.554  1.00  0.00     0.236 A 
HETATM   13  N3  UNL     1      24.022  -0.974  54.547  1.00  0.00    -0.239 NA
HETATM   14  C12 UNL     1      24.866  -0.356  53.716  1.00  0.00     0.095 A 
HETATM   15  O2  UNL     1      21.993   1.276  51.877  1.00  0.00    -0.289 OA
HETATM   16  H9  UNL     1      25.867   0.430  51.703  1.00  0.00     0.160 HD
ENDROOT
BRANCH  14  17
HETATM   17  C13 UNL     1      26.349  -0.431  53.747  1.00  0.00    -0.023 A 
HETATM   18  C14 UNL     1      26.823   0.247  54.798  1.00  0.00     0.010 A 
HETATM   19  C15 UNL     1      28.253   0.262  54.942  1.00  0.00     0.003 A 
HETATM   20  C16 UNL     1      28.685  -0.441  53.925  1.00  0.00    -0.080 A 
HETATM   21  C17 UNL     1      30.070  -0.814  53.482  1.00  0.00     0.043 C 
HETATM   22  C18 UNL     1      27.553  -0.942  53.124  1.00  0.00     0.074 A 
ENDBRANCH  14  17
BRANCH   1  23
HETATM   23  O1  UNL     1      22.896   4.764  47.699  1.00  0.00    -0.356 OA
HETATM   24  C1  UNL     1      21.946   4.770  46.660  1.00  0.00     0.210 C 
ENDBRANCH   1  23
TORSDOF 2
ENDMDL
MODEL 6
REMARK VINA RESULT:      -8.1      2.981      7.021
REMARK  2 active torsions:
REMARK  status: ('A' for Active; 'I' for Inactive)
REMARK    1  A    between atoms: O1_2  and  C2_3 
REMARK    2  A    between atoms: C12_16  and  C13_17 
ROOT
HETATM    1  C2  UNL     1      24.033   5.304  48.746  1.00  0.00     0.069 A 
HETATM    2  C3  UNL     1      22.709   4.914  48.674  1.00  0.00     0.039 A 
HETATM    3  C4  UNL     1      22.234   3.895  49.453  1.00  0.00     0.040 A 
HETATM    4  C5  UNL     1      23.094   3.256  50.318  1.00  0.00     0.086 A 
HETATM    5  C6  UNL     1      24.436   3.621  50.422  1.00  0.00    -0.004 A 
HETATM    6  C7  UNL     1      24.874   4.659  49.612  1.00  0.00     0.048 A 
HETATM    7  C8  UNL     1      25.596   3.159  51.222  1.00  0.00     0.161 C 
HETATM    8  N1  UNL     1      25.495   1.752  51.565  1.00  0.00    -0.380 N 
HETATM    9  C9  UNL     1      24.429   1.012  52.152  1.00  0.00     0.112 A 
HETATM   10  C10 UNL     1      23.099   1.290  51.867  1.00  0.00     0.200 A 
HETATM   11  N2  UNL     1      22.171   0.507  52.485  1.00  0.00    -0.215 NA
HETATM   12  C11 UNL     1      22.550  -0.474  53.317  1.00  0.00     0.236 A 
HETATM   13  N3  UNL     1      23.839  -0.664  53.526  1.00  0.00    -0.239 NA
HETATM   14  C12 UNL     1      24.859   0.018  52.999  1.00  0.00     0.095 A 
HETATM   15  O2  UNL     1      22.487   2.233  51.058  1.00  0.00    -0.289 OA
HETATM   16  H9  UNL     1      26.268   1.073  51.394  1.00  0.00     0.160 HD
ENDROOT
BRANCH  14  17
HETATM   17  C13 UNL     1      26.303  -0.201  53.272  1.00  0.00    -0.023 A 
HETATM   18  C14 UNL     1      26.636   0.338  54.450  1.00  0.00     0.010 A 
HETATM   19  C15 UNL     1      28.014   0.204  54.834  1.00  0.00     0.003 A 
HETATM   20  C16 UNL     1      28.562  -0.450  53.841  1.00  0.00    -0.080 A 
HETATM   21  C17 UNL     1      29.968  -0.916  53.603  1.00  0.00     0.043 C 
HETATM   22  C18 UNL     1      27.553  -0.772  52.814  1.00  0.00     0.074 A 
ENDBRANCH  14  17
BRANCH   1  23
HETATM   23  O1  UNL     1      24.367   6.347  47.899  1.00  0.00    -0.356 OA
HETATM   24  C1  UNL     1      25.253   7.374  48.278  1.00  0.00     0.210 C 
ENDBRANCH   1  23
TORSDOF 2
ENDMDL
MODEL 7
REMARK VINA RESULT:      -8.1      2.776      6.964
REMARK  2 active torsions:
REMARK  status: ('A' for Active; 'I' for Inactive)
REMARK    1  A    between atoms: O1_2  and  C2_3 
REMARK    2  A    between atoms: C12_16  and  C13_17 
ROOT
HETATM    1  C2  UNL     1      22.048   6.124  51.093  1.00  0.00     0.069 A 
HETATM    2  C3  UNL     1      20.805   5.562  50.875  1.00  0.00     0.039 A 
HETATM    3  C4  UNL     1      20.530   4.286  51.285  1.00  0.00     0.040 A 
HETATM    4  C5  UNL     1      21.511   3.562  51.924  1.00  0.00     0.086 A 
HETATM    5  C6  UNL     1      22.778   4.094  52.165  1.00  0.00    -0.004 A 
HETATM    6  C7  UNL     1      23.012   5.391  51.730  1.00  0.00     0.048 A 
HETATM    7  C8  UNL     1      24.023   3.605  52.804  1.00  0.00     0.161 C 
HETATM    8  N1  UNL     1      24.165   2.165  52.686  1.00  0.00    -0.380 N 
HETATM    9  C9  UNL     1      23.256   1.112  52.990  1.00  0.00     0.112 A 
HETATM   10  C10 UNL     1      21.890   1.240  52.779  1.00  0.00     0.200 A 
HETATM   11  N2  UNL     1      21.124   0.161  53.101  1.00  0.00    -0.215 NA
HETATM   12  C11 UNL     1      21.685  -0.954  53.591  1.00  0.00     0.236 A 
HETATM   13  N3  UNL     1      22.994  -0.983  53.758  1.00  0.00    -0.239 NA
HETATM   14  C12 UNL     1      23.871  -0.011  53.492  1.00  0.00     0.095 A 
HETATM   15  O2  UNL     1      21.105   2.273  52.293  1.00  0.00    -0.289 OA
HETATM   16  H9  UNL     1      25.034   1.712  52.328  1.00  0.00     0.160 HD
ENDROOT
BRANCH  14  17
HETATM   17  C13 UNL     1      25.339  -0.061  53.712  1.00  0.00    -0.023 A 
HETATM   18  C14 UNL     1      25.915  -0.852  52.801  1.00  0.00     0.010 A 
HETATM   19  C15 UNL     1      27.342  -0.995  52.907  1.00  0.00     0.003 A 
HETATM   20  C16 UNL     1      27.663  -0.256  53.939  1.00  0.00    -0.080 A 
HETATM   21  C17 UNL     1      28.983   0.034  54.591  1.00  0.00     0.043 C 
HETATM   22  C18 UNL     1      26.465   0.395  54.502  1.00  0.00     0.074 A 
ENDBRANCH  14  17
BRANCH   1  23
HETATM   23  O1  UNL     1      22.179   7.420  50.623  1.00  0.00    -0.356 OA
HETATM   24  C1  UNL     1      23.432   8.006  50.360  1.00  0.00     0.210 C 
ENDBRANCH   1  23
TORSDOF 2
ENDMDL
MODEL 8
REMARK VINA RESULT:      -7.8      1.975      2.185
REMARK  2 active torsions:
REMARK  status: ('A' for Active; 'I' for Inactive)
REMARK    1  A    between atoms: O1_2  and  C2_3 
REMARK    2  A    between atoms: C12_16  and  C13_17 
ROOT
HETATM    1  C2  UNL     1      26.930   1.635  53.604  1.00  0.00     0.069 A 
HETATM    2  C3  UNL     1      27.442   2.177  52.441  1.00  0.00     0.039 A 
HETATM    3  C4  UNL     1      26.625   2.478  51.386  1.00  0.00     0.040 A 
HETATM    4  C5  UNL     1      25.274   2.234  51.495  1.00  0.00     0.086 A 
HETATM    5  C6  UNL     1      24.717   1.689  52.652  1.00  0.00    -0.004 A 
HETATM    6  C7  UNL     1      25.585   1.399  53.696  1.00  0.00     0.048 A 
HETATM    7  C8  UNL     1      23.352   1.311  53.089  1.00  0.00     0.161 C 
HETATM    8  N1  UNL     1      22.511   0.922  51.970  1.00  0.00    -0.380 N 
HETATM    9  C9  UNL     1      22.246   1.577  50.734  1.00  0.00     0.112 A 
HETATM   10  C10 UNL     1      23.221   2.304  50.066  1.00  0.00     0.200 A 
HETATM   11  N2  UNL     1      22.847   2.877  48.888  1.00  0.00    -0.215 NA
HETATM   12  C11 UNL     1      21.599   2.730  48.422  1.00  0.00     0.236 A 
HETATM   13  N3  UNL     1      20.739   2.020  49.128  1.00  0.00    -0.239 NA
HETATM   14  C12 UNL     1      20.955   1.403  50.293  1.00  0.00     0.095 A 
HETATM   15  O2  UNL     1      24.547   2.584  50.350  1.00  0.00    -0.289 OA
HETATM   16  H9  UNL     1      21.967   0.032  51.958  1.00  0.00     0.160 HD
ENDROOT
BRANCH  14  17
HETATM   17  C13 UNL     1      19.961   0.630  51.080  1.00  0.00    -0.023 A 
HETATM   18  C14 UNL     1      18.786   0.606  50.442  1.00  0.00     0.010 A 
HETATM   19  C15 UNL     1      17.727  -0.106  51.103  1.00  0.00     0.003 A 
HETATM   20  C16 UNL     1      18.276  -0.543  52.209  1.00  0.00    -0.080 A 
HETATM   21  C17 UNL     1      17.728  -1.352  53.348  1.00  0.00     0.043 C 
HETATM   22  C18 UNL     1      19.695  -0.146  52.274  1.00  0.00     0.074 A 
ENDBRANCH  14  17
BRANCH   1  23
HETATM   23  O1  UNL     1      27.877   1.384  54.583  1.00  0.00    -0.356 OA
HETATM   24  C1  UNL     1      28.661   0.215  54.593  1.00  0.00     0.210 C 
ENDBRANCH   1  23
TORSDOF 2
ENDMDL
MODEL 9
REMARK VINA RESULT:      -7.8      2.369      3.993
REMARK  2 active torsions:
REMARK  status: ('A' for Active; 'I' for Inactive)
REMARK    1  A    between atoms: O1_2  and  C2_3 
REMARK    2  A    between atoms: C12_16  and  C13_17 
ROOT
HETATM    1  C2  UNL     1      25.090   3.341  50.153  1.00  0.00     0.069 A 
HETATM    2  C3  UNL     1      26.021   3.093  51.143  1.00  0.00     0.039 A 
HETATM    3  C4  UNL     1      25.764   2.192  52.139  1.00  0.00     0.040 A 
HETATM    4  C5  UNL     1      24.559   1.527  52.146  1.00  0.00     0.086 A 
HETATM    5  C6  UNL     1      23.593   1.747  51.165  1.00  0.00    -0.004 A 
HETATM    6  C7  UNL     1      23.897   2.671  50.174  1.00  0.00     0.048 A 
HETATM    7  C8  UNL     1      22.236   1.221  50.882  1.00  0.00     0.161 C 
HETATM    8  N1  UNL     1      21.547   0.816  52.095  1.00  0.00    -0.380 N 
HETATM    9  C9  UNL     1      21.964  -0.025  53.165  1.00  0.00     0.112 A 
HETATM   10  C10 UNL     1      23.278  -0.045  53.613  1.00  0.00     0.200 A 
HETATM   11  N2  UNL     1      23.551  -0.886  54.649  1.00  0.00    -0.215 NA
HETATM   12  C11 UNL     1      22.584  -1.641  55.190  1.00  0.00     0.236 A 
HETATM   13  N3  UNL     1      21.363  -1.555  54.697  1.00  0.00    -0.239 NA
HETATM   14  C12 UNL     1      20.944  -0.784  53.690  1.00  0.00     0.095 A 
HETATM   15  O2  UNL     1      24.418   0.633  53.215  1.00  0.00    -0.289 OA
HETATM   16  H9  UNL     1      20.582   1.137  52.329  1.00  0.00     0.160 HD
ENDROOT
BRANCH  14  17
HETATM   17  C13 UNL     1      19.567  -0.725  53.138  1.00  0.00    -0.023 A 
HETATM   18  C14 UNL     1      18.824  -1.715  53.645  1.00  0.00     0.010 A 
HETATM   19  C15 UNL     1      17.464  -1.778  53.184  1.00  0.00     0.003 A 
HETATM   20  C16 UNL     1      17.362  -0.776  52.347  1.00  0.00    -0.080 A 
HETATM   21  C17 UNL     1      16.215  -0.278  51.517  1.00  0.00     0.043 C 
HETATM   22  C18 UNL     1      18.635  -0.036  52.269  1.00  0.00     0.074 A 
ENDBRANCH  14  17
BRANCH   1  23
HETATM   23  O1  UNL     1      25.489   4.277  49.214  1.00  0.00    -0.356 OA
HETATM   24  C1  UNL     1      26.841   4.615  49.012  1.00  0.00     0.210 C 
ENDBRANCH   1  23
TORSDOF 2
ENDMDL
