MODEL 1
REMARK VINA RESULT:      -6.7      0.000      0.000
REMARK  7 active torsions:
REMARK  status: ('A' for Active; 'I' for Inactive)
REMARK    1  A    between atoms: C2_2  and  P1_3 
REMARK    2  A    between atoms: P1_3  and  C3_5 
REMARK    3  A    between atoms: C3_5  and  C4_6 
REMARK    4  A    between atoms: C5_7  and  C6_8 
REMARK    5  A    between atoms: C6_8  and  C7_9 
REMARK       I    between atoms: C7_9  and  N1_11 
REMARK    6  A    between atoms: N1_11  and  S1_12 
REMARK    7  A    between atoms: S1_12  and  C8_15 
ROOT
HETATM    1  C7  UNL     1      24.491  -0.975  54.577  1.00  0.00     0.234 C 
HETATM    2  O1  UNL     1      24.742  -1.075  53.345  1.00  0.00    -0.272 OA
HETATM    3  N1  UNL     1      25.595  -0.364  55.241  1.00  0.00    -0.250 N 
HETATM    4  H8  UNL     1      25.604  -0.178  56.289  1.00  0.00     0.181 HD
ENDROOT
BRANCH   3   5
HETATM    5  S1  UNL     1      26.930   0.059  54.204  1.00  0.00     0.265 S 
HETATM    6  O2  UNL     1      27.969   0.686  55.091  1.00  0.00    -0.200 OA
HETATM    7  O3  UNL     1      27.482  -1.161  53.532  1.00  0.00    -0.200 OA
BRANCH   5   8
HETATM    8  C8  UNL     1      26.331   1.228  53.047  1.00  0.00     0.080 A 
HETATM    9  C9  UNL     1      25.357   2.123  53.455  1.00  0.00     0.027 A 
HETATM   10  C10 UNL     1      24.833   3.076  52.601  1.00  0.00     0.025 A 
HETATM   11  C11 UNL     1      25.273   3.171  51.286  1.00  0.00     0.034 A 
HETATM   12 CL2  UNL     1      24.626   4.368  50.184  1.00  0.00    -0.084 Cl
HETATM   13  C12 UNL     1      26.250   2.276  50.871  1.00  0.00     0.025 A 
HETATM   14  C13 UNL     1      26.759   1.330  51.746  1.00  0.00     0.027 A 
ENDBRANCH   5   8
ENDBRANCH   3   5
BRANCH   1  15
HETATM   15  C6  UNL     1      23.348  -1.333  55.490  1.00  0.00     0.131 C 
BRANCH  15  16
HETATM   16  C5  UNL     1      22.204  -1.757  54.653  1.00  0.00    -0.017 C 
HETATM   17  C4  UNL     1      21.045  -1.273  54.179  1.00  0.00    -0.001 C 
BRANCH  17  18
HETATM   18  C3  UNL     1      21.082   0.037  54.733  1.00  0.00     0.034 C 
BRANCH  18  19
HETATM   19  P1  UNL     1      20.771   0.728  53.239  1.00  0.00     0.074 P 
HETATM   20 CL1  UNL     1      22.255   0.600  51.764  1.00  0.00    -0.078 Cl
BRANCH  19  21
HETATM   21  C2  UNL     1      19.415  -0.030  52.698  1.00  0.00    -0.131 C 
HETATM   22  C1  UNL     1      18.357  -0.374  51.972  1.00  0.00     0.098 C 
ENDBRANCH  19  21
ENDBRANCH  18  19
ENDBRANCH  17  18
ENDBRANCH  15  16
ENDBRANCH   1  15
TORSDOF 7
ENDMDL
MODEL 2
REMARK VINA RESULT:      -6.6      4.340      6.017
REMARK  7 active torsions:
REMARK  status: ('A' for Active; 'I' for Inactive)
REMARK    1  A    between atoms: C2_2  and  P1_3 
REMARK    2  A    between atoms: P1_3  and  C3_5 
REMARK    3  A    between atoms: C3_5  and  C4_6 
REMARK    4  A    between atoms: C5_7  and  C6_8 
REMARK    5  A    between atoms: C6_8  and  C7_9 
REMARK       I    between atoms: C7_9  and  N1_11 
REMARK    6  A    between atoms: N1_11  and  S1_12 
REMARK    7  A    between atoms: S1_12  and  C8_15 
ROOT
HETATM    1  C7  UNL     1      24.125   1.954  52.782  1.00  0.00     0.234 C 
HETATM    2  O1  UNL     1      24.458   3.043  53.321  1.00  0.00    -0.272 OA
HETATM    3  N1  UNL     1      23.436   2.214  51.561  1.00  0.00    -0.250 N 
HETATM    4  H8  UNL     1      23.061   1.438  50.936  1.00  0.00     0.181 HD
ENDROOT
BRANCH   3   5
HETATM    5  S1  UNL     1      23.255   3.902  51.169  1.00  0.00     0.265 S 
HETATM    6  O2  UNL     1      22.064   3.996  50.258  1.00  0.00    -0.200 OA
HETATM    7  O3  UNL     1      23.030   4.710  52.411  1.00  0.00    -0.200 OA
BRANCH   5   8
HETATM    8  C8  UNL     1      24.708   4.392  50.324  1.00  0.00     0.080 A 
HETATM    9  C9  UNL     1      25.640   3.422  49.996  1.00  0.00     0.027 A 
HETATM   10  C10 UNL     1      26.812   3.729  49.329  1.00  0.00     0.025 A 
HETATM   11  C11 UNL     1      27.099   5.037  48.959  1.00  0.00     0.034 A 
HETATM   12 CL2  UNL     1      28.575   5.453  48.116  1.00  0.00    -0.084 Cl
HETATM   13  C12 UNL     1      26.167   6.014  49.287  1.00  0.00     0.025 A 
HETATM   14  C13 UNL     1      25.000   5.682  49.956  1.00  0.00     0.027 A 
ENDBRANCH   5   8
ENDBRANCH   3   5
BRANCH   1  15
HETATM   15  C6  UNL     1      24.271   0.489  53.104  1.00  0.00     0.131 C 
BRANCH  15  16
HETATM   16  C5  UNL     1      25.514  -0.001  52.470  1.00  0.00    -0.017 C 
HETATM   17  C4  UNL     1      26.723  -0.474  52.814  1.00  0.00    -0.001 C 
BRANCH  17  18
HETATM   18  C3  UNL     1      26.611  -0.426  54.231  1.00  0.00     0.034 C 
BRANCH  18  19
HETATM   19  P1  UNL     1      28.244  -0.091  54.395  1.00  0.00     0.074 P 
HETATM   20 CL1  UNL     1      29.609  -1.310  53.373  1.00  0.00    -0.078 Cl
BRANCH  19  21
HETATM   21  C2  UNL     1      28.412   1.458  53.866  1.00  0.00    -0.131 C 
HETATM   22  C1  UNL     1      28.919   2.646  53.558  1.00  0.00     0.098 C 
ENDBRANCH  19  21
ENDBRANCH  18  19
ENDBRANCH  17  18
ENDBRANCH  15  16
ENDBRANCH   1  15
TORSDOF 7
ENDMDL
MODEL 3
REMARK VINA RESULT:      -6.5      5.315      8.154
REMARK  7 active torsions:
REMARK  status: ('A' for Active; 'I' for Inactive)
REMARK    1  A    between atoms: C2_2  and  P1_3 
REMARK    2  A    between atoms: P1_3  and  C3_5 
REMARK    3  A    between atoms: C3_5  and  C4_6 
REMARK    4  A    between atoms: C5_7  and  C6_8 
REMARK    5  A    between atoms: C6_8  and  C7_9 
REMARK       I    between atoms: C7_9  and  N1_11 
REMARK    6  A    between atoms: N1_11  and  S1_12 
REMARK    7  A    between atoms: S1_12  and  C8_15 
ROOT
HETATM    1  C7  UNL     1      24.778   4.305  50.576  1.00  0.00     0.234 C 
HETATM    2  O1  UNL     1      23.663   4.001  51.078  1.00  0.00    -0.272 OA
HETATM    3  N1  UNL     1      25.791   3.452  51.104  1.00  0.00    -0.250 N 
HETATM    4  H8  UNL     1      26.813   3.528  50.820  1.00  0.00     0.181 HD
ENDROOT
BRANCH   3   5
HETATM    5  S1  UNL     1      25.224   2.271  52.254  1.00  0.00     0.265 S 
HETATM    6  O2  UNL     1      24.699   3.046  53.429  1.00  0.00    -0.200 OA
HETATM    7  O3  UNL     1      24.140   1.429  51.654  1.00  0.00    -0.200 OA
BRANCH   5   8
HETATM    8  C8  UNL     1      26.609   1.311  52.729  1.00  0.00     0.080 A 
HETATM    9  C9  UNL     1      26.536  -0.066  52.597  1.00  0.00     0.027 A 
HETATM   10  C10 UNL     1      27.586  -0.893  52.950  1.00  0.00     0.025 A 
HETATM   11  C11 UNL     1      28.769  -0.365  53.454  1.00  0.00     0.034 A 
HETATM   12 CL2  UNL     1      30.114  -1.388  53.909  1.00  0.00    -0.084 Cl
HETATM   13  C12 UNL     1      28.848   1.016  53.588  1.00  0.00     0.025 A 
HETATM   14  C13 UNL     1      27.781   1.823  53.228  1.00  0.00     0.027 A 
ENDBRANCH   5   8
ENDBRANCH   3   5
BRANCH   1  15
HETATM   15  C6  UNL     1      25.288   5.319  49.584  1.00  0.00     0.131 C 
BRANCH  15  16
HETATM   16  C5  UNL     1      26.575   4.831  49.044  1.00  0.00    -0.017 C 
HETATM   17  C4  UNL     1      27.703   5.308  48.493  1.00  0.00    -0.001 C 
BRANCH  17  18
HETATM   18  C3  UNL     1      27.412   6.700  48.505  1.00  0.00     0.034 C 
BRANCH  18  19
HETATM   19  P1  UNL     1      28.967   7.076  48.011  1.00  0.00     0.074 P 
HETATM   20 CL1  UNL     1      30.354   5.514  47.840  1.00  0.00    -0.078 Cl
BRANCH  19  21
HETATM   21  C2  UNL     1      28.782   7.788  46.539  1.00  0.00    -0.131 C 
HETATM   22  C1  UNL     1      29.026   8.318  45.345  1.00  0.00     0.098 C 
ENDBRANCH  19  21
ENDBRANCH  18  19
ENDBRANCH  17  18
ENDBRANCH  15  16
ENDBRANCH   1  15
TORSDOF 7
ENDMDL
MODEL 4
REMARK VINA RESULT:      -6.4      2.973      5.790
REMARK  7 active torsions:
REMARK  status: ('A' for Active; 'I' for Inactive)
REMARK    1  A    between atoms: C2_2  and  P1_3 
REMARK    2  A    between atoms: P1_3  and  C3_5 
REMARK    3  A    between atoms: C3_5  and  C4_6 
REMARK    4  A    between atoms: C5_7  and  C6_8 
REMARK    5  A    between atoms: C6_8  and  C7_9 
REMARK       I    between atoms: C7_9  and  N1_11 
REMARK    6  A    between atoms: N1_11  and  S1_12 
REMARK    7  A    between atoms: S1_12  and  C8_15 
ROOT
HETATM    1  C7  UNL     1      26.678   2.800  51.226  1.00  0.00     0.234 C 
HETATM    2  O1  UNL     1      27.659   2.514  51.962  1.00  0.00    -0.272 OA
HETATM    3  N1  UNL     1      25.526   2.081  51.661  1.00  0.00    -0.250 N 
HETATM    4  H8  UNL     1      24.579   2.168  51.183  1.00  0.00     0.181 HD
ENDROOT
BRANCH   3   5
HETATM    5  S1  UNL     1      25.789   1.046  53.038  1.00  0.00     0.265 S 
HETATM    6  O2  UNL     1      26.811   0.031  52.613  1.00  0.00    -0.200 OA
HETATM    7  O3  UNL     1      26.292   1.839  54.206  1.00  0.00    -0.200 OA
BRANCH   5   8
HETATM    8  C8  UNL     1      24.263   0.262  53.390  1.00  0.00     0.080 A 
HETATM    9  C9  UNL     1      23.179   0.530  52.571  1.00  0.00     0.027 A 
HETATM   10  C10 UNL     1      21.941  -0.049  52.782  1.00  0.00     0.025 A 
HETATM   11  C11 UNL     1      21.739  -0.932  53.837  1.00  0.00     0.034 A 
HETATM   12 CL2  UNL     1      20.182  -1.677  54.127  1.00  0.00    -0.084 Cl
HETATM   13  C12 UNL     1      22.823  -1.203  54.661  1.00  0.00     0.025 A 
HETATM   14  C13 UNL     1      24.054  -0.610  54.429  1.00  0.00     0.027 A 
ENDBRANCH   5   8
ENDBRANCH   3   5
BRANCH   1  15
HETATM   15  C6  UNL     1      26.431   3.689  50.034  1.00  0.00     0.131 C 
BRANCH  15  16
HETATM   16  C5  UNL     1      25.115   3.336  49.459  1.00  0.00    -0.017 C 
HETATM   17  C4  UNL     1      23.904   3.880  49.261  1.00  0.00    -0.001 C 
BRANCH  17  18
HETATM   18  C3  UNL     1      24.119   5.170  49.822  1.00  0.00     0.034 C 
BRANCH  18  19
HETATM   19  P1  UNL     1      22.942   4.911  50.985  1.00  0.00     0.074 P 
HETATM   20 CL1  UNL     1      23.557   4.613  52.966  1.00  0.00    -0.078 Cl
BRANCH  19  21
HETATM   21  C2  UNL     1      21.983   6.247  50.919  1.00  0.00    -0.131 C 
HETATM   22  C1  UNL     1      21.526   7.471  50.679  1.00  0.00     0.098 C 
ENDBRANCH  19  21
ENDBRANCH  18  19
ENDBRANCH  17  18
ENDBRANCH  15  16
ENDBRANCH   1  15
TORSDOF 7
ENDMDL
MODEL 5
REMARK VINA RESULT:      -6.4      2.231      5.366
REMARK  7 active torsions:
REMARK  status: ('A' for Active; 'I' for Inactive)
REMARK    1  A    between atoms: C2_2  and  P1_3 
REMARK    2  A    between atoms: P1_3  and  C3_5 
REMARK    3  A    between atoms: C3_5  and  C4_6 
REMARK    4  A    between atoms: C5_7  and  C6_8 
REMARK    5  A    between atoms: C6_8  and  C7_9 
REMARK       I    between atoms: C7_9  and  N1_11 
REMARK    6  A    between atoms: N1_11  and  S1_12 
REMARK    7  A    between atoms: S1_12  and  C8_15 
ROOT
HETATM    1  C7  UNL     1      26.738   1.860  52.960  1.00  0.00     0.234 C 
HETATM    2  O1  UNL     1      26.392   2.001  54.163  1.00  0.00    -0.272 OA
HETATM    3  N1  UNL     1      26.650   0.485  52.594  1.00  0.00    -0.250 N 
HETATM    4  H8  UNL     1      26.895   0.132  51.620  1.00  0.00     0.181 HD
ENDROOT
BRANCH   3   5
HETATM    5  S1  UNL     1      26.107  -0.577  53.865  1.00  0.00     0.265 S 
HETATM    6  O2  UNL     1      26.587  -1.952  53.497  1.00  0.00    -0.200 OA
HETATM    7  O3  UNL     1      26.681  -0.156  55.183  1.00  0.00    -0.200 OA
BRANCH   5   8
HETATM    8  C8  UNL     1      24.357  -0.523  53.867  1.00  0.00     0.080 A 
HETATM    9  C9  UNL     1      23.714   0.114  52.818  1.00  0.00     0.027 A 
HETATM   10  C10 UNL     1      22.336   0.199  52.747  1.00  0.00     0.025 A 
HETATM   11  C11 UNL     1      21.537  -0.360  53.737  1.00  0.00     0.034 A 
HETATM   12 CL2  UNL     1      19.790  -0.266  53.673  1.00  0.00    -0.084 Cl
HETATM   13  C12 UNL     1      22.177  -0.999  54.791  1.00  0.00     0.025 A 
HETATM   14  C13 UNL     1      23.559  -1.072  54.840  1.00  0.00     0.027 A 
ENDBRANCH   5   8
ENDBRANCH   3   5
BRANCH   1  15
HETATM   15  C6  UNL     1      27.209   2.761  51.848  1.00  0.00     0.131 C 
BRANCH  15  16
HETATM   16  C5  UNL     1      26.464   2.409  50.620  1.00  0.00    -0.017 C 
HETATM   17  C4  UNL     1      25.763   3.001  49.641  1.00  0.00    -0.001 C 
BRANCH  17  18
HETATM   18  C3  UNL     1      25.864   4.359  50.053  1.00  0.00     0.034 C 
BRANCH  18  19
HETATM   19  P1  UNL     1      24.204   4.559  49.962  1.00  0.00     0.074 P 
HETATM   20 CL1  UNL     1      23.131   3.328  48.647  1.00  0.00    -0.078 Cl
BRANCH  19  21
HETATM   21  C2  UNL     1      23.662   4.302  51.494  1.00  0.00    -0.131 C 
HETATM   22  C1  UNL     1      23.611   4.136  52.811  1.00  0.00     0.098 C 
ENDBRANCH  19  21
ENDBRANCH  18  19
ENDBRANCH  17  18
ENDBRANCH  15  16
ENDBRANCH   1  15
TORSDOF 7
ENDMDL
MODEL 6
REMARK VINA RESULT:      -6.4      4.859      6.550
REMARK  7 active torsions:
REMARK  status: ('A' for Active; 'I' for Inactive)
REMARK    1  A    between atoms: C2_2  and  P1_3 
REMARK    2  A    between atoms: P1_3  and  C3_5 
REMARK    3  A    between atoms: C3_5  and  C4_6 
REMARK    4  A    between atoms: C5_7  and  C6_8 
REMARK    5  A    between atoms: C6_8  and  C7_9 
REMARK       I    between atoms: C7_9  and  N1_11 
REMARK    6  A    between atoms: N1_11  and  S1_12 
REMARK    7  A    between atoms: S1_12  and  C8_15 
ROOT
HETATM    1  C7  UNL     1      23.911   3.045  51.949  1.00  0.00     0.234 C 
HETATM    2  O1  UNL     1      22.836   3.181  51.306  1.00  0.00    -0.272 OA
HETATM    3  N1  UNL     1      24.946   3.795  51.317  1.00  0.00    -0.250 N 
HETATM    4  H8  UNL     1      25.942   3.826  51.689  1.00  0.00     0.181 HD
ENDROOT
BRANCH   3   5
HETATM    5  S1  UNL     1      24.453   4.659  49.886  1.00  0.00     0.265 S 
HETATM    6  O2  UNL     1      23.853   3.636  48.963  1.00  0.00    -0.200 OA
HETATM    7  O3  UNL     1      23.444   5.713  50.228  1.00  0.00    -0.200 OA
BRANCH   5   8
HETATM    8  C8  UNL     1      25.899   5.346  49.177  1.00  0.00     0.080 A 
HETATM    9  C9  UNL     1      27.015   4.538  49.040  1.00  0.00     0.027 A 
HETATM   10  C10 UNL     1      28.194   5.005  48.490  1.00  0.00     0.025 A 
HETATM   11  C11 UNL     1      28.302   6.319  48.049  1.00  0.00     0.034 A 
HETATM   12 CL2  UNL     1      29.784   6.936  47.350  1.00  0.00    -0.084 Cl
HETATM   13  C12 UNL     1      27.185   7.133  48.184  1.00  0.00     0.025 A 
HETATM   14  C13 UNL     1      26.015   6.641  48.738  1.00  0.00     0.027 A 
ENDBRANCH   5   8
ENDBRANCH   3   5
BRANCH   1  15
HETATM   15  C6  UNL     1      24.357   2.304  53.183  1.00  0.00     0.131 C 
BRANCH  15  16
HETATM   16  C5  UNL     1      24.780   0.946  52.780  1.00  0.00    -0.017 C 
HETATM   17  C4  UNL     1      25.686   0.013  53.113  1.00  0.00    -0.001 C 
BRANCH  17  18
HETATM   18  C3  UNL     1      26.348   0.684  54.179  1.00  0.00     0.034 C 
BRANCH  18  19
HETATM   19  P1  UNL     1      27.690   0.978  53.220  1.00  0.00     0.074 P 
HETATM   20 CL1  UNL     1      28.916   2.606  53.709  1.00  0.00    -0.078 Cl
BRANCH  19  21
HETATM   21  C2  UNL     1      28.580  -0.404  53.305  1.00  0.00    -0.131 C 
HETATM   22  C1  UNL     1      29.513  -1.295  53.618  1.00  0.00     0.098 C 
ENDBRANCH  19  21
ENDBRANCH  18  19
ENDBRANCH  17  18
ENDBRANCH  15  16
ENDBRANCH   1  15
TORSDOF 7
ENDMDL
MODEL 7
REMARK VINA RESULT:      -6.4      4.376      7.845
REMARK  7 active torsions:
REMARK  status: ('A' for Active; 'I' for Inactive)
REMARK    1  A    between atoms: C2_2  and  P1_3 
REMARK    2  A    between atoms: P1_3  and  C3_5 
REMARK    3  A    between atoms: C3_5  and  C4_6 
REMARK    4  A    between atoms: C5_7  and  C6_8 
REMARK    5  A    between atoms: C6_8  and  C7_9 
REMARK       I    between atoms: C7_9  and  N1_11 
REMARK    6  A    between atoms: N1_11  and  S1_12 
REMARK    7  A    between atoms: S1_12  and  C8_15 
ROOT
HETATM    1  C7  UNL     1      26.227   3.014  50.777  1.00  0.00     0.234 C 
HETATM    2  O1  UNL     1      27.210   2.649  51.476  1.00  0.00    -0.272 OA
HETATM    3  N1  UNL     1      25.049   2.346  51.222  1.00  0.00    -0.250 N 
HETATM    4  H8  UNL     1      24.096   2.502  50.774  1.00  0.00     0.181 HD
ENDROOT
BRANCH   3   5
HETATM    5  S1  UNL     1      25.288   1.253  52.557  1.00  0.00     0.265 S 
HETATM    6  O2  UNL     1      26.256   0.209  52.077  1.00  0.00    -0.200 OA
HETATM    7  O3  UNL     1      25.846   1.981  53.742  1.00  0.00    -0.200 OA
BRANCH   5   8
HETATM    8  C8  UNL     1      23.735   0.525  52.910  1.00  0.00     0.080 A 
HETATM    9  C9  UNL     1      22.602   1.073  52.332  1.00  0.00     0.027 A 
HETATM   10  C10 UNL     1      21.340   0.557  52.561  1.00  0.00     0.025 A 
HETATM   11  C11 UNL     1      21.161  -0.545  53.389  1.00  0.00     0.034 A 
HETATM   12 CL2  UNL     1      19.575  -1.218  53.697  1.00  0.00    -0.084 Cl
HETATM   13  C12 UNL     1      22.295  -1.098  53.971  1.00  0.00     0.025 A 
HETATM   14  C13 UNL     1      23.549  -0.563  53.726  1.00  0.00     0.027 A 
ENDBRANCH   5   8
ENDBRANCH   3   5
BRANCH   1  15
HETATM   15  C6  UNL     1      26.000   3.955  49.622  1.00  0.00     0.131 C 
BRANCH  15  16
HETATM   16  C5  UNL     1      27.312   4.266  49.015  1.00  0.00    -0.017 C 
HETATM   17  C4  UNL     1      27.954   5.290  48.431  1.00  0.00    -0.001 C 
BRANCH  17  18
HETATM   18  C3  UNL     1      26.940   6.285  48.496  1.00  0.00     0.034 C 
BRANCH  18  19
HETATM   19  P1  UNL     1      28.025   7.486  48.064  1.00  0.00     0.074 P 
HETATM   20 CL1  UNL     1      27.876   8.309  46.142  1.00  0.00    -0.078 Cl
BRANCH  19  21
HETATM   21  C2  UNL     1      27.799   8.679  49.174  1.00  0.00    -0.131 C 
HETATM   22  C1  UNL     1      27.437   9.347  50.263  1.00  0.00     0.098 C 
ENDBRANCH  19  21
ENDBRANCH  18  19
ENDBRANCH  17  18
ENDBRANCH  15  16
ENDBRANCH   1  15
TORSDOF 7
ENDMDL
MODEL 8
REMARK VINA RESULT:      -6.4      5.469      8.457
REMARK  7 active torsions:
REMARK  status: ('A' for Active; 'I' for Inactive)
REMARK    1  A    between atoms: C2_2  and  P1_3 
REMARK    2  A    between atoms: P1_3  and  C3_5 
REMARK    3  A    between atoms: C3_5  and  C4_6 
REMARK    4  A    between atoms: C5_7  and  C6_8 
REMARK    5  A    between atoms: C6_8  and  C7_9 
REMARK       I    between atoms: C7_9  and  N1_11 
REMARK    6  A    between atoms: N1_11  and  S1_12 
REMARK    7  A    between atoms: S1_12  and  C8_15 
ROOT
HETATM    1  C7  UNL     1      24.881   4.661  50.389  1.00  0.00     0.234 C 
HETATM    2  O1  UNL     1      23.743   4.400  50.864  1.00  0.00    -0.272 OA
HETATM    3  N1  UNL     1      25.832   3.717  50.874  1.00  0.00    -0.250 N 
HETATM    4  H8  UNL     1      26.860   3.744  50.602  1.00  0.00     0.181 HD
ENDROOT
BRANCH   3   5
HETATM    5  S1  UNL     1      25.179   2.509  51.949  1.00  0.00     0.265 S 
HETATM    6  O2  UNL     1      24.574   3.257  53.103  1.00  0.00    -0.200 OA
HETATM    7  O3  UNL     1      24.138   1.689  51.250  1.00  0.00    -0.200 OA
BRANCH   5   8
HETATM    8  C8  UNL     1      26.523   1.529  52.496  1.00  0.00     0.080 A 
HETATM    9  C9  UNL     1      26.437   0.154  52.360  1.00  0.00     0.027 A 
HETATM   10  C10 UNL     1      27.455  -0.688  52.768  1.00  0.00     0.025 A 
HETATM   11  C11 UNL     1      28.617  -0.177  53.335  1.00  0.00     0.034 A 
HETATM   12 CL2  UNL     1      29.920  -1.220  53.861  1.00  0.00    -0.084 Cl
HETATM   13  C12 UNL     1      28.708   1.202  53.474  1.00  0.00     0.025 A 
HETATM   14  C13 UNL     1      27.674   2.025  53.057  1.00  0.00     0.027 A 
ENDBRANCH   5   8
ENDBRANCH   3   5
BRANCH   1  15
HETATM   15  C6  UNL     1      25.463   5.697  49.462  1.00  0.00     0.131 C 
BRANCH  15  16
HETATM   16  C5  UNL     1      26.730   5.166  48.914  1.00  0.00    -0.017 C 
HETATM   17  C4  UNL     1      27.894   5.606  48.411  1.00  0.00    -0.001 C 
BRANCH  17  18
HETATM   18  C3  UNL     1      27.685   7.010  48.502  1.00  0.00     0.034 C 
BRANCH  18  19
HETATM   19  P1  UNL     1      29.010   7.317  47.524  1.00  0.00     0.074 P 
HETATM   20 CL1  UNL     1      28.666   8.082  45.604  1.00  0.00    -0.078 Cl
BRANCH  19  21
HETATM   21  C2  UNL     1      29.919   8.395  48.372  1.00  0.00    -0.131 C 
HETATM   22  C1  UNL     1      30.663   8.965  49.314  1.00  0.00     0.098 C 
ENDBRANCH  19  21
ENDBRANCH  18  19
ENDBRANCH  17  18
ENDBRANCH  15  16
ENDBRANCH   1  15
TORSDOF 7
ENDMDL
MODEL 9
REMARK VINA RESULT:      -6.3      3.175      6.389
REMARK  7 active torsions:
REMARK  status: ('A' for Active; 'I' for Inactive)
REMARK    1  A    between atoms: C2_2  and  P1_3 
REMARK    2  A    between atoms: P1_3  and  C3_5 
REMARK    3  A    between atoms: C3_5  and  C4_6 
REMARK    4  A    between atoms: C5_7  and  C6_8 
REMARK    5  A    between atoms: C6_8  and  C7_9 
REMARK       I    between atoms: C7_9  and  N1_11 
REMARK    6  A    between atoms: N1_11  and  S1_12 
REMARK    7  A    between atoms: S1_12  and  C8_15 
ROOT
HETATM    1  C7  UNL     1      26.418   2.664  50.721  1.00  0.00     0.234 C 
HETATM    2  O1  UNL     1      27.322   2.616  51.598  1.00  0.00    -0.272 OA
HETATM    3  N1  UNL     1      25.250   2.000  51.200  1.00  0.00    -0.250 N 
HETATM    4  H8  UNL     1      24.359   1.917  50.625  1.00  0.00     0.181 HD
ENDROOT
BRANCH   3   5
HETATM    5  S1  UNL     1      25.395   1.335  52.805  1.00  0.00     0.265 S 
HETATM    6  O2  UNL     1      26.539   0.362  52.754  1.00  0.00    -0.200 OA
HETATM    7  O3  UNL     1      25.671   2.418  53.802  1.00  0.00    -0.200 OA
BRANCH   5   8
HETATM    8  C8  UNL     1      23.897   0.496  53.149  1.00  0.00     0.080 A 
HETATM    9  C9  UNL     1      23.900  -0.488  54.123  1.00  0.00     0.027 A 
HETATM   10  C10 UNL     1      22.759  -1.196  54.453  1.00  0.00     0.025 A 
HETATM   11  C11 UNL     1      21.553  -0.941  53.811  1.00  0.00     0.034 A 
HETATM   12 CL2  UNL     1      20.094  -1.822  54.208  1.00  0.00    -0.084 Cl
HETATM   13  C12 UNL     1      21.545   0.045  52.832  1.00  0.00     0.025 A 
HETATM   14  C13 UNL     1      22.702   0.741  52.520  1.00  0.00     0.027 A 
ENDBRANCH   5   8
ENDBRANCH   3   5
BRANCH   1  15
HETATM   15  C6  UNL     1      26.273   3.232  49.333  1.00  0.00     0.131 C 
BRANCH  15  16
HETATM   16  C5  UNL     1      26.694   4.649  49.368  1.00  0.00    -0.017 C 
HETATM   17  C4  UNL     1      26.158   5.879  49.327  1.00  0.00    -0.001 C 
BRANCH  17  18
HETATM   18  C3  UNL     1      24.780   5.543  49.218  1.00  0.00     0.034 C 
BRANCH  18  19
HETATM   19  P1  UNL     1      24.378   6.595  50.458  1.00  0.00     0.074 P 
HETATM   20 CL1  UNL     1      22.981   8.106  50.058  1.00  0.00    -0.078 Cl
BRANCH  19  21
HETATM   21  C2  UNL     1      23.794   5.632  51.657  1.00  0.00    -0.131 C 
HETATM   22  C1  UNL     1      23.228   4.626  52.315  1.00  0.00     0.098 C 
ENDBRANCH  19  21
ENDBRANCH  18  19
ENDBRANCH  17  18
ENDBRANCH  15  16
ENDBRANCH   1  15
TORSDOF 7
ENDMDL
