MODEL 1
REMARK VINA RESULT:      -9.1      0.000      0.000
REMARK  5 active torsions:
REMARK  status: ('A' for Active; 'I' for Inactive)
REMARK    1  A    between atoms: C2_2  and  C3_3 
REMARK    2  A    between atoms: C2_2  and  N2_11 
REMARK    3  A    between atoms: C3_3  and  N1_4 
REMARK    4  A    between atoms: N2_11  and  C8_12 
REMARK    5  A    between atoms: C15_21  and  N5_22 
ROOT
HETATM    1  C8  UNL     1      23.328   2.002  50.723  1.00  0.00     0.029 A 
HETATM    2  C9  UNL     1      21.936   1.848  50.682  1.00  0.00     0.030 A 
HETATM    3  C10 UNL     1      21.237   1.059  51.570  1.00  0.00     0.016 A 
HETATM    4  C11 UNL     1      21.904   0.375  52.556  1.00  0.00     0.000 A 
HETATM    5  C12 UNL     1      21.328  -0.439  53.508  1.00  0.00     0.073 A 
HETATM    6  C13 UNL     1      19.907  -0.590  53.457  1.00  0.00     0.102 C 
HETATM    7  N3  UNL     1      18.740  -0.732  53.423  1.00  0.00    -0.191 NA
HETATM    8  C14 UNL     1      22.089  -1.080  54.465  1.00  0.00     0.142 A 
HETATM    9  N4  UNL     1      23.420  -0.892  54.450  1.00  0.00    -0.241 NA
HETATM   10  C15 UNL     1      24.044  -0.100  53.536  1.00  0.00     0.140 A 
HETATM   11  C21 UNL     1      23.273   0.520  52.605  1.00  0.00     0.024 A 
HETATM   12  C22 UNL     1      23.969   1.305  51.723  1.00  0.00     0.045 A 
ENDROOT
BRANCH  10  13
HETATM   13  N5  UNL     1      25.446  -0.105  53.740  1.00  0.00    -0.338 N 
HETATM   14  C16 UNL     1      26.058  -1.092  52.913  1.00  0.00     0.094 A 
HETATM   15  C17 UNL     1      27.363  -1.331  52.895  1.00  0.00     0.036 A 
HETATM   16  C18 UNL     1      28.277  -0.574  53.745  1.00  0.00     0.010 A 
HETATM   17 BR1  UNL     1      30.167  -0.826  53.808  1.00  0.00    -0.051 Br
HETATM   18  C19 UNL     1      27.699   0.339  54.506  1.00  0.00     0.012 A 
HETATM   19  C20 UNL     1      26.271   0.686  54.605  1.00  0.00     0.158 A 
ENDBRANCH  10  13
BRANCH   1  20
HETATM   20  N2  UNL     1      24.000   2.831  49.785  1.00  0.00    -0.384 N 
HETATM   21  H13 UNL     1      23.738   2.729  48.782  1.00  0.00     0.160 HD
BRANCH  20  22
HETATM   22  C2  UNL     1      25.008   3.787  50.156  1.00  0.00     0.095 C 
HETATM   23  C1  UNL     1      26.416   3.272  49.891  1.00  0.00     0.034 C 
BRANCH  22  24
HETATM   24  C3  UNL     1      24.843   5.087  49.442  1.00  0.00     0.150 C 
BRANCH  24  25
HETATM   25  N1  UNL     1      23.689   5.857  49.860  1.00  0.00    -0.346 N 
HETATM   26  C4  UNL     1      23.834   7.040  50.726  1.00  0.00     0.152 C 
HETATM   27  C5  UNL     1      22.470   7.734  50.625  1.00  0.00     0.188 C 
HETATM   28  O1  UNL     1      21.543   6.897  51.206  1.00  0.00    -0.380 OA
HETATM   29  C6  UNL     1      21.268   5.754  50.458  1.00  0.00     0.270 C 
HETATM   30  C7  UNL     1      22.351   5.501  49.452  1.00  0.00     0.243 C 
HETATM   31  O2  UNL     1      22.230   5.013  48.286  1.00  0.00    -0.271 OA
ENDBRANCH  24  25
ENDBRANCH  22  24
ENDBRANCH  20  22
ENDBRANCH   1  20
TORSDOF 5
ENDMDL
MODEL 2
REMARK VINA RESULT:      -9.0      1.769      2.628
REMARK  5 active torsions:
REMARK  status: ('A' for Active; 'I' for Inactive)
REMARK    1  A    between atoms: C2_2  and  C3_3 
REMARK    2  A    between atoms: C2_2  and  N2_11 
REMARK    3  A    between atoms: C3_3  and  N1_4 
REMARK    4  A    between atoms: N2_11  and  C8_12 
REMARK    5  A    between atoms: C15_21  and  N5_22 
ROOT
HETATM    1  C8  UNL     1      23.023   3.087  52.039  1.00  0.00     0.029 A 
HETATM    2  C9  UNL     1      21.636   2.904  51.961  1.00  0.00     0.030 A 
HETATM    3  C10 UNL     1      20.995   1.776  52.426  1.00  0.00     0.016 A 
HETATM    4  C11 UNL     1      21.720   0.760  53.001  1.00  0.00     0.000 A 
HETATM    5  C12 UNL     1      21.205  -0.413  53.510  1.00  0.00     0.073 A 
HETATM    6  C13 UNL     1      19.789  -0.590  53.426  1.00  0.00     0.102 C 
HETATM    7  N3  UNL     1      18.627  -0.755  53.355  1.00  0.00    -0.191 NA
HETATM    8  C14 UNL     1      22.021  -1.372  54.075  1.00  0.00     0.142 A 
HETATM    9  N4  UNL     1      23.344  -1.138  54.119  1.00  0.00    -0.241 NA
HETATM   10  C15 UNL     1      23.909   0.001  53.633  1.00  0.00     0.140 A 
HETATM   11  C21 UNL     1      23.084   0.931  53.082  1.00  0.00     0.024 A 
HETATM   12  C22 UNL     1      23.721   2.052  52.620  1.00  0.00     0.045 A 
ENDROOT
BRANCH  10  13
HETATM   13  N5  UNL     1      25.317  -0.029  53.787  1.00  0.00    -0.338 N 
HETATM   14  C16 UNL     1      25.894  -0.927  52.843  1.00  0.00     0.094 A 
HETATM   15  C17 UNL     1      27.196  -1.168  52.756  1.00  0.00     0.036 A 
HETATM   16  C18 UNL     1      28.143  -0.505  53.648  1.00  0.00     0.010 A 
HETATM   17 BR1  UNL     1      30.032  -0.768  53.620  1.00  0.00    -0.051 Br
HETATM   18  C19 UNL     1      27.597   0.327  54.518  1.00  0.00     0.012 A 
HETATM   19  C20 UNL     1      26.175   0.667  54.700  1.00  0.00     0.158 A 
ENDBRANCH  10  13
BRANCH   1  20
HETATM   20  N2  UNL     1      23.633   4.271  51.546  1.00  0.00    -0.384 N 
HETATM   21  H13 UNL     1      24.479   4.618  52.046  1.00  0.00     0.160 HD
BRANCH  20  22
HETATM   22  C2  UNL     1      23.142   4.996  50.406  1.00  0.00     0.095 C 
HETATM   23  C1  UNL     1      23.218   6.504  50.605  1.00  0.00     0.034 C 
BRANCH  22  24
HETATM   24  C3  UNL     1      23.881   4.652  49.156  1.00  0.00     0.150 C 
BRANCH  24  25
HETATM   25  N1  UNL     1      25.200   5.245  49.058  1.00  0.00    -0.346 N 
HETATM   26  C4  UNL     1      25.385   6.612  48.539  1.00  0.00     0.152 C 
HETATM   27  C5  UNL     1      26.825   6.959  48.935  1.00  0.00     0.188 C 
HETATM   28  O1  UNL     1      27.656   6.121  48.224  1.00  0.00    -0.380 OA
HETATM   29  C6  UNL     1      27.621   4.796  48.651  1.00  0.00     0.270 C 
HETATM   30  C7  UNL     1      26.387   4.529  49.459  1.00  0.00     0.243 C 
HETATM   31  O2  UNL     1      26.263   3.748  50.454  1.00  0.00    -0.271 OA
ENDBRANCH  24  25
ENDBRANCH  22  24
ENDBRANCH  20  22
ENDBRANCH   1  20
TORSDOF 5
ENDMDL
MODEL 3
REMARK VINA RESULT:      -8.9      1.593      2.117
REMARK  5 active torsions:
REMARK  status: ('A' for Active; 'I' for Inactive)
REMARK    1  A    between atoms: C2_2  and  C3_3 
REMARK    2  A    between atoms: C2_2  and  N2_11 
REMARK    3  A    between atoms: C3_3  and  N1_4 
REMARK    4  A    between atoms: N2_11  and  C8_12 
REMARK    5  A    between atoms: C15_21  and  N5_22 
ROOT
HETATM    1  C8  UNL     1      23.471   3.581  52.241  1.00  0.00     0.029 A 
HETATM    2  C9  UNL     1      22.088   3.488  52.032  1.00  0.00     0.030 A 
HETATM    3  C10 UNL     1      21.364   2.340  52.277  1.00  0.00     0.016 A 
HETATM    4  C11 UNL     1      21.994   1.215  52.748  1.00  0.00     0.000 A 
HETATM    5  C12 UNL     1      21.390   0.010  53.039  1.00  0.00     0.073 A 
HETATM    6  C13 UNL     1      19.979  -0.075  52.823  1.00  0.00     0.102 C 
HETATM    7  N3  UNL     1      18.820  -0.165  52.641  1.00  0.00    -0.191 NA
HETATM    8  C14 UNL     1      22.114  -1.063  53.516  1.00  0.00     0.142 A 
HETATM    9  N4  UNL     1      23.438  -0.910  53.693  1.00  0.00    -0.241 NA
HETATM   10  C15 UNL     1      24.089   0.255  53.424  1.00  0.00     0.140 A 
HETATM   11  C21 UNL     1      23.353   1.297  52.956  1.00  0.00     0.024 A 
HETATM   12  C22 UNL     1      24.074   2.437  52.714  1.00  0.00     0.045 A 
ENDROOT
BRANCH  10  13
HETATM   13  N5  UNL     1      25.477   0.125  53.677  1.00  0.00    -0.338 N 
HETATM   14  C16 UNL     1      26.073  -0.738  52.713  1.00  0.00     0.094 A 
HETATM   15  C17 UNL     1      27.362  -1.053  52.703  1.00  0.00     0.036 A 
HETATM   16  C18 UNL     1      28.274  -0.515  53.708  1.00  0.00     0.010 A 
HETATM   17 BR1  UNL     1      30.141  -0.893  53.798  1.00  0.00    -0.051 Br
HETATM   18  C19 UNL     1      27.710   0.286  54.597  1.00  0.00     0.012 A 
HETATM   19  C20 UNL     1      26.301   0.701  54.699  1.00  0.00     0.158 A 
ENDBRANCH  10  13
BRANCH   1  20
HETATM   20  N2  UNL     1      24.170   4.789  51.975  1.00  0.00    -0.384 N 
HETATM   21  H13 UNL     1      24.948   5.044  52.621  1.00  0.00     0.160 HD
BRANCH  20  22
HETATM   22  C2  UNL     1      23.856   5.656  50.873  1.00  0.00     0.095 C 
HETATM   23  C1  UNL     1      24.414   7.060  51.067  1.00  0.00     0.034 C 
BRANCH  22  24
HETATM   24  C3  UNL     1      24.364   5.126  49.573  1.00  0.00     0.150 C 
BRANCH  24  25
HETATM   25  N1  UNL     1      23.333   4.865  48.589  1.00  0.00    -0.346 N 
HETATM   26  C4  UNL     1      22.923   5.898  47.622  1.00  0.00     0.152 C 
HETATM   27  C5  UNL     1      22.109   5.119  46.582  1.00  0.00     0.188 C 
HETATM   28  O1  UNL     1      20.975   4.659  47.213  1.00  0.00    -0.380 OA
HETATM   29  C6  UNL     1      21.214   3.632  48.124  1.00  0.00     0.270 C 
HETATM   30  C7  UNL     1      22.661   3.590  48.513  1.00  0.00     0.243 C 
HETATM   31  O2  UNL     1      23.365   2.567  48.782  1.00  0.00    -0.271 OA
ENDBRANCH  24  25
ENDBRANCH  22  24
ENDBRANCH  20  22
ENDBRANCH   1  20
TORSDOF 5
ENDMDL
MODEL 4
REMARK VINA RESULT:      -8.7      2.725      4.913
REMARK  5 active torsions:
REMARK  status: ('A' for Active; 'I' for Inactive)
REMARK    1  A    between atoms: C2_2  and  C3_3 
REMARK    2  A    between atoms: C2_2  and  N2_11 
REMARK    3  A    between atoms: C3_3  and  N1_4 
REMARK    4  A    between atoms: N2_11  and  C8_12 
REMARK    5  A    between atoms: C15_21  and  N5_22 
ROOT
HETATM    1  C8  UNL     1      25.504   2.737  50.669  1.00  0.00     0.029 A 
HETATM    2  C9  UNL     1      26.760   2.607  51.277  1.00  0.00     0.030 A 
HETATM    3  C10 UNL     1      26.999   1.764  52.342  1.00  0.00     0.016 A 
HETATM    4  C11 UNL     1      25.981   1.002  52.859  1.00  0.00     0.000 A 
HETATM    5  C12 UNL     1      26.086   0.119  53.913  1.00  0.00     0.073 A 
HETATM    6  C13 UNL     1      27.371  -0.008  54.526  1.00  0.00     0.102 C 
HETATM    7  N3  UNL     1      28.420  -0.116  55.047  1.00  0.00    -0.191 NA
HETATM    8  C14 UNL     1      25.000  -0.609  54.354  1.00  0.00     0.142 A 
HETATM    9  N4  UNL     1      23.821  -0.437  53.730  1.00  0.00    -0.241 NA
HETATM   10  C15 UNL     1      23.658   0.419  52.685  1.00  0.00     0.140 A 
HETATM   11  C21 UNL     1      24.743   1.124  52.268  1.00  0.00     0.024 A 
HETATM   12  C22 UNL     1      24.504   1.960  51.209  1.00  0.00     0.045 A 
ENDROOT
BRANCH  10  13
HETATM   13  N5  UNL     1      22.313   0.418  52.239  1.00  0.00    -0.338 N 
HETATM   14  C16 UNL     1      21.444   0.037  53.303  1.00  0.00     0.094 A 
HETATM   15  C17 UNL     1      20.126  -0.060  53.179  1.00  0.00     0.036 A 
HETATM   16  C18 UNL     1      19.469   0.229  51.908  1.00  0.00     0.010 A 
HETATM   17 BR1  UNL     1      17.588   0.125  51.607  1.00  0.00    -0.051 Br
HETATM   18  C19 UNL     1      20.284   0.584  50.929  1.00  0.00     0.012 A 
HETATM   19  C20 UNL     1      21.750   0.723  50.957  1.00  0.00     0.158 A 
ENDBRANCH  10  13
BRANCH   1  20
HETATM   20  N2  UNL     1      25.312   3.619  49.571  1.00  0.00    -0.384 N 
HETATM   21  H13 UNL     1      24.778   3.255  48.753  1.00  0.00     0.160 HD
BRANCH  20  22
HETATM   22  C2  UNL     1      25.812   4.966  49.544  1.00  0.00     0.095 C 
HETATM   23  C1  UNL     1      27.115   5.082  48.765  1.00  0.00     0.034 C 
BRANCH  22  24
HETATM   24  C3  UNL     1      24.828   5.923  48.956  1.00  0.00     0.150 C 
BRANCH  24  25
HETATM   25  N1  UNL     1      23.576   6.013  49.679  1.00  0.00    -0.346 N 
HETATM   26  C4  UNL     1      23.283   7.159  50.557  1.00  0.00     0.152 C 
HETATM   27  C5  UNL     1      21.777   7.038  50.821  1.00  0.00     0.188 C 
HETATM   28  O1  UNL     1      21.582   5.887  51.552  1.00  0.00    -0.380 OA
HETATM   29  C6  UNL     1      21.775   4.716  50.821  1.00  0.00     0.270 C 
HETATM   30  C7  UNL     1      22.564   4.989  49.576  1.00  0.00     0.243 C 
HETATM   31  O2  UNL     1      22.447   4.426  48.443  1.00  0.00    -0.271 OA
ENDBRANCH  24  25
ENDBRANCH  22  24
ENDBRANCH  20  22
ENDBRANCH   1  20
TORSDOF 5
ENDMDL
MODEL 5
REMARK VINA RESULT:      -8.5      3.557      6.779
REMARK  5 active torsions:
REMARK  status: ('A' for Active; 'I' for Inactive)
REMARK    1  A    between atoms: C2_2  and  C3_3 
REMARK    2  A    between atoms: C2_2  and  N2_11 
REMARK    3  A    between atoms: C3_3  and  N1_4 
REMARK    4  A    between atoms: N2_11  and  C8_12 
REMARK    5  A    between atoms: C15_21  and  N5_22 
ROOT
HETATM    1  C8  UNL     1      22.637   0.694  52.592  1.00  0.00     0.029 A 
HETATM    2  C9  UNL     1      21.279   0.692  52.938  1.00  0.00     0.030 A 
HETATM    3  C10 UNL     1      20.392   1.660  52.517  1.00  0.00     0.016 A 
HETATM    4  C11 UNL     1      20.824   2.691  51.720  1.00  0.00     0.000 A 
HETATM    5  C12 UNL     1      20.043   3.715  51.227  1.00  0.00     0.073 A 
HETATM    6  C13 UNL     1      18.659   3.704  51.585  1.00  0.00     0.102 C 
HETATM    7  N3  UNL     1      17.520   3.715  51.879  1.00  0.00    -0.191 NA
HETATM    8  C14 UNL     1      20.574   4.704  50.424  1.00  0.00     0.142 A 
HETATM    9  N4  UNL     1      21.885   4.650  50.129  1.00  0.00    -0.241 NA
HETATM   10  C15 UNL     1      22.704   3.664  50.587  1.00  0.00     0.140 A 
HETATM   11  C21 UNL     1      22.157   2.701  51.375  1.00  0.00     0.024 A 
HETATM   12  C22 UNL     1      23.040   1.740  51.792  1.00  0.00     0.045 A 
ENDROOT
BRANCH  10  13
HETATM   13  N5  UNL     1      24.035   3.870  50.144  1.00  0.00    -0.338 N 
HETATM   14  C16 UNL     1      24.189   5.200  49.656  1.00  0.00     0.094 A 
HETATM   15  C17 UNL     1      25.327   5.678  49.168  1.00  0.00     0.036 A 
HETATM   16  C18 UNL     1      26.524   4.846  49.102  1.00  0.00     0.010 A 
HETATM   17 BR1  UNL     1      28.212   5.418  48.423  1.00  0.00    -0.051 Br
HETATM   18  C19 UNL     1      26.369   3.614  49.559  1.00  0.00     0.012 A 
HETATM   19  C20 UNL     1      25.161   2.984  50.119  1.00  0.00     0.158 A 
ENDBRANCH  10  13
BRANCH   1  20
HETATM   20  N2  UNL     1      23.510  -0.329  53.050  1.00  0.00    -0.384 N 
HETATM   21  H13 UNL     1      23.193  -1.316  52.935  1.00  0.00     0.160 HD
BRANCH  20  22
HETATM   22  C2  UNL     1      24.787  -0.065  53.654  1.00  0.00     0.095 C 
HETATM   23  C1  UNL     1      25.008  -0.885  54.918  1.00  0.00     0.034 C 
BRANCH  22  24
HETATM   24  C3  UNL     1      25.920  -0.332  52.719  1.00  0.00     0.150 C 
BRANCH  24  25
HETATM   25  N1  UNL     1      27.234  -0.180  53.313  1.00  0.00    -0.346 N 
HETATM   26  C4  UNL     1      27.616   1.061  54.008  1.00  0.00     0.152 C 
HETATM   27  C5  UNL     1      28.893   0.674  54.765  1.00  0.00     0.188 C 
HETATM   28  O1  UNL     1      29.860   0.405  53.821  1.00  0.00    -0.380 OA
HETATM   29  C6  UNL     1      29.648  -0.781  53.120  1.00  0.00     0.270 C 
HETATM   30  C7  UNL     1      28.223  -1.228  53.247  1.00  0.00     0.243 C 
HETATM   31  O2  UNL     1      27.785  -2.419  53.305  1.00  0.00    -0.271 OA
ENDBRANCH  24  25
ENDBRANCH  22  24
ENDBRANCH  20  22
ENDBRANCH   1  20
TORSDOF 5
ENDMDL
MODEL 6
REMARK VINA RESULT:      -8.5      3.107      6.225
REMARK  5 active torsions:
REMARK  status: ('A' for Active; 'I' for Inactive)
REMARK    1  A    between atoms: C2_2  and  C3_3 
REMARK    2  A    between atoms: C2_2  and  N2_11 
REMARK    3  A    between atoms: C3_3  and  N1_4 
REMARK    4  A    between atoms: N2_11  and  C8_12 
REMARK    5  A    between atoms: C15_21  and  N5_22 
ROOT
HETATM    1  C8  UNL     1      21.948   0.782  52.858  1.00  0.00     0.029 A 
HETATM    2  C9  UNL     1      22.621  -0.322  53.398  1.00  0.00     0.030 A 
HETATM    3  C10 UNL     1      23.981  -0.513  53.270  1.00  0.00     0.016 A 
HETATM    4  C11 UNL     1      24.744   0.403  52.587  1.00  0.00     0.000 A 
HETATM    5  C12 UNL     1      26.107   0.336  52.392  1.00  0.00     0.073 A 
HETATM    6  C13 UNL     1      26.786  -0.794  52.947  1.00  0.00     0.102 C 
HETATM    7  N3  UNL     1      27.357  -1.722  53.389  1.00  0.00    -0.191 NA
HETATM    8  C14 UNL     1      26.784   1.314  51.693  1.00  0.00     0.142 A 
HETATM    9  N4  UNL     1      26.080   2.347  51.199  1.00  0.00    -0.241 NA
HETATM   10  C15 UNL     1      24.734   2.467  51.360  1.00  0.00     0.140 A 
HETATM   11  C21 UNL     1      24.090   1.491  52.052  1.00  0.00     0.024 A 
HETATM   12  C22 UNL     1      22.739   1.681  52.179  1.00  0.00     0.045 A 
ENDROOT
BRANCH  10  13
HETATM   13  N5  UNL     1      24.252   3.634  50.717  1.00  0.00    -0.338 N 
HETATM   14  C16 UNL     1      23.946   4.636  51.683  1.00  0.00     0.094 A 
HETATM   15  C17 UNL     1      23.469   5.835  51.375  1.00  0.00     0.036 A 
HETATM   16  C18 UNL     1      23.222   6.211  49.986  1.00  0.00     0.010 A 
HETATM   17 BR1  UNL     1      22.539   7.899  49.419  1.00  0.00    -0.051 Br
HETATM   18  C19 UNL     1      23.511   5.274  49.098  1.00  0.00     0.012 A 
HETATM   19  C20 UNL     1      24.043   3.920  49.328  1.00  0.00     0.158 A 
ENDBRANCH  10  13
BRANCH   1  20
HETATM   20  N2  UNL     1      20.544   0.932  53.020  1.00  0.00    -0.384 N 
HETATM   21  H13 UNL     1      20.214   1.680  53.667  1.00  0.00     0.160 HD
BRANCH  20  22
HETATM   22  C2  UNL     1      19.579   0.112  52.340  1.00  0.00     0.095 C 
HETATM   23  C1  UNL     1      18.922  -0.897  53.273  1.00  0.00     0.034 C 
BRANCH  22  24
HETATM   24  C3  UNL     1      18.503   0.922  51.695  1.00  0.00     0.150 C 
BRANCH  24  25
HETATM   25  N1  UNL     1      18.987   2.022  50.886  1.00  0.00    -0.346 N 
HETATM   26  C4  UNL     1      19.586   1.788  49.561  1.00  0.00     0.152 C 
HETATM   27  C5  UNL     1      19.622   3.184  48.927  1.00  0.00     0.188 C 
HETATM   28  O1  UNL     1      20.507   3.943  49.661  1.00  0.00    -0.380 OA
HETATM   29  C6  UNL     1      20.039   4.285  50.928  1.00  0.00     0.270 C 
HETATM   30  C7  UNL     1      18.909   3.390  51.339  1.00  0.00     0.243 C 
HETATM   31  O2  UNL     1      17.892   3.693  52.038  1.00  0.00    -0.271 OA
ENDBRANCH  24  25
ENDBRANCH  22  24
ENDBRANCH  20  22
ENDBRANCH   1  20
TORSDOF 5
ENDMDL
MODEL 7
REMARK VINA RESULT:      -8.2      3.140      5.431
REMARK  5 active torsions:
REMARK  status: ('A' for Active; 'I' for Inactive)
REMARK    1  A    between atoms: C2_2  and  C3_3 
REMARK    2  A    between atoms: C2_2  and  N2_11 
REMARK    3  A    between atoms: C3_3  and  N1_4 
REMARK    4  A    between atoms: N2_11  and  C8_12 
REMARK    5  A    between atoms: C15_21  and  N5_22 
ROOT
HETATM    1  C8  UNL     1      25.043   2.541  50.824  1.00  0.00     0.029 A 
HETATM    2  C9  UNL     1      26.398   2.562  51.178  1.00  0.00     0.030 A 
HETATM    3  C10 UNL     1      26.921   1.808  52.207  1.00  0.00     0.016 A 
HETATM    4  C11 UNL     1      26.103   0.985  52.943  1.00  0.00     0.000 A 
HETATM    5  C12 UNL     1      26.497   0.178  53.989  1.00  0.00     0.073 A 
HETATM    6  C13 UNL     1      27.881   0.206  54.343  1.00  0.00     0.102 C 
HETATM    7  N3  UNL     1      29.016   0.225  54.653  1.00  0.00    -0.191 NA
HETATM    8  C14 UNL     1      25.595  -0.620  54.662  1.00  0.00     0.142 A 
HETATM    9  N4  UNL     1      24.307  -0.594  54.274  1.00  0.00    -0.241 NA
HETATM   10  C15 UNL     1      23.861   0.183  53.250  1.00  0.00     0.140 A 
HETATM   11  C21 UNL     1      24.769   0.959  52.602  1.00  0.00     0.024 A 
HETATM   12  C22 UNL     1      24.249   1.708  51.579  1.00  0.00     0.045 A 
ENDROOT
BRANCH  10  13
HETATM   13  N5  UNL     1      22.463   0.032  53.076  1.00  0.00    -0.338 N 
HETATM   14  C16 UNL     1      21.962  -0.959  53.969  1.00  0.00     0.094 A 
HETATM   15  C17 UNL     1      20.687  -1.321  54.029  1.00  0.00     0.036 A 
HETATM   16  C18 UNL     1      19.691  -0.704  53.158  1.00  0.00     0.010 A 
HETATM   17 BR1  UNL     1      17.833  -1.138  53.149  1.00  0.00    -0.051 Br
HETATM   18  C19 UNL     1      20.166   0.216  52.335  1.00  0.00     0.012 A 
HETATM   19  C20 UNL     1      21.552   0.691  52.187  1.00  0.00     0.158 A 
ENDBRANCH  10  13
BRANCH   1  20
HETATM   20  N2  UNL     1      24.556   3.337  49.752  1.00  0.00    -0.384 N 
HETATM   21  H13 UNL     1      25.249   3.664  49.045  1.00  0.00     0.160 HD
BRANCH  20  22
HETATM   22  C2  UNL     1      23.173   3.700  49.604  1.00  0.00     0.095 C 
HETATM   23  C1  UNL     1      22.914   5.151  49.988  1.00  0.00     0.034 C 
BRANCH  22  24
HETATM   24  C3  UNL     1      22.678   3.490  48.212  1.00  0.00     0.150 C 
BRANCH  24  25
HETATM   25  N1  UNL     1      21.267   3.173  48.120  1.00  0.00    -0.346 N 
HETATM   26  C4  UNL     1      20.319   4.097  47.474  1.00  0.00     0.152 C 
HETATM   27  C5  UNL     1      19.058   3.246  47.279  1.00  0.00     0.188 C 
HETATM   28  O1  UNL     1      18.570   2.947  48.532  1.00  0.00    -0.380 OA
HETATM   29  C6  UNL     1      19.349   2.033  49.237  1.00  0.00     0.270 C 
HETATM   30  C7  UNL     1      20.728   1.946  48.655  1.00  0.00     0.243 C 
HETATM   31  O2  UNL     1      21.476   0.922  48.577  1.00  0.00    -0.271 OA
ENDBRANCH  24  25
ENDBRANCH  22  24
ENDBRANCH  20  22
ENDBRANCH   1  20
TORSDOF 5
ENDMDL
MODEL 8
REMARK VINA RESULT:      -8.2      2.896      3.710
REMARK  5 active torsions:
REMARK  status: ('A' for Active; 'I' for Inactive)
REMARK    1  A    between atoms: C2_2  and  C3_3 
REMARK    2  A    between atoms: C2_2  and  N2_11 
REMARK    3  A    between atoms: C3_3  and  N1_4 
REMARK    4  A    between atoms: N2_11  and  C8_12 
REMARK    5  A    between atoms: C15_21  and  N5_22 
ROOT
HETATM    1  C8  UNL     1      23.685   4.777  51.754  1.00  0.00     0.029 A 
HETATM    2  C9  UNL     1      22.308   4.819  51.499  1.00  0.00     0.030 A 
HETATM    3  C10 UNL     1      21.474   3.736  51.679  1.00  0.00     0.016 A 
HETATM    4  C11 UNL     1      21.983   2.542  52.130  1.00  0.00     0.000 A 
HETATM    5  C12 UNL     1      21.262   1.389  52.358  1.00  0.00     0.073 A 
HETATM    6  C13 UNL     1      19.858   1.441  52.095  1.00  0.00     0.102 C 
HETATM    7  N3  UNL     1      18.702   1.464  51.874  1.00  0.00    -0.191 NA
HETATM    8  C14 UNL     1      21.869   0.239  52.820  1.00  0.00     0.142 A 
HETATM    9  N4  UNL     1      23.194   0.264  53.044  1.00  0.00    -0.241 NA
HETATM   10  C15 UNL     1      23.957   1.372  52.837  1.00  0.00     0.140 A 
HETATM   11  C21 UNL     1      23.336   2.493  52.383  1.00  0.00     0.024 A 
HETATM   12  C22 UNL     1      24.165   3.569  52.205  1.00  0.00     0.045 A 
ENDROOT
BRANCH  10  13
HETATM   13  N5  UNL     1      25.318   1.108  53.130  1.00  0.00    -0.338 N 
HETATM   14  C16 UNL     1      25.761  -0.039  52.409  1.00  0.00     0.094 A 
HETATM   15  C17 UNL     1      26.991  -0.531  52.489  1.00  0.00     0.036 A 
HETATM   16  C18 UNL     1      27.994   0.095  53.344  1.00  0.00     0.010 A 
HETATM   17 BR1  UNL     1      29.790  -0.516  53.544  1.00  0.00    -0.051 Br
HETATM   18  C19 UNL     1      27.573   1.159  54.007  1.00  0.00     0.012 A 
HETATM   19  C20 UNL     1      26.240   1.786  53.992  1.00  0.00     0.158 A 
ENDBRANCH  10  13
BRANCH   1  20
HETATM   20  N2  UNL     1      24.499   5.924  51.553  1.00  0.00    -0.384 N 
HETATM   21  H13 UNL     1      24.619   6.574  52.360  1.00  0.00     0.160 HD
BRANCH  20  22
HETATM   22  C2  UNL     1      25.155   6.219  50.308  1.00  0.00     0.095 C 
HETATM   23  C1  UNL     1      24.328   5.782  49.105  1.00  0.00     0.034 C 
BRANCH  22  24
HETATM   24  C3  UNL     1      25.463   7.672  50.161  1.00  0.00     0.150 C 
BRANCH  24  25
HETATM   25  N1  UNL     1      26.708   7.952  49.474  1.00  0.00    -0.346 N 
HETATM   26  C4  UNL     1      27.393   6.914  48.685  1.00  0.00     0.152 C 
HETATM   27  C5  UNL     1      28.426   7.701  47.869  1.00  0.00     0.188 C 
HETATM   28  O1  UNL     1      29.338   8.223  48.760  1.00  0.00    -0.380 OA
HETATM   29  C6  UNL     1      28.832   9.261  49.540  1.00  0.00     0.270 C 
HETATM   30  C7  UNL     1      27.333   9.251  49.534  1.00  0.00     0.243 C 
HETATM   31  O2  UNL     1      26.549  10.250  49.574  1.00  0.00    -0.271 OA
ENDBRANCH  24  25
ENDBRANCH  22  24
ENDBRANCH  20  22
ENDBRANCH   1  20
TORSDOF 5
ENDMDL
MODEL 9
REMARK VINA RESULT:      -8.2      2.616      4.222
REMARK  5 active torsions:
REMARK  status: ('A' for Active; 'I' for Inactive)
REMARK    1  A    between atoms: C2_2  and  C3_3 
REMARK    2  A    between atoms: C2_2  and  N2_11 
REMARK    3  A    between atoms: C3_3  and  N1_4 
REMARK    4  A    between atoms: N2_11  and  C8_12 
REMARK    5  A    between atoms: C15_21  and  N5_22 
ROOT
HETATM    1  C8  UNL     1      20.540   1.260  49.802  1.00  0.00     0.029 A 
HETATM    2  C9  UNL     1      19.939   0.358  50.689  1.00  0.00     0.030 A 
HETATM    3  C10 UNL     1      20.565  -0.117  51.822  1.00  0.00     0.016 A 
HETATM    4  C11 UNL     1      21.840   0.293  52.127  1.00  0.00     0.000 A 
HETATM    5  C12 UNL     1      22.574  -0.098  53.227  1.00  0.00     0.073 A 
HETATM    6  C13 UNL     1      21.953  -1.019  54.127  1.00  0.00     0.102 C 
HETATM    7  N3  UNL     1      21.459  -1.784  54.872  1.00  0.00    -0.191 NA
HETATM    8  C14 UNL     1      23.850   0.379  53.448  1.00  0.00     0.142 A 
HETATM    9  N4  UNL     1      24.371   1.242  52.558  1.00  0.00    -0.241 NA
HETATM   10  C15 UNL     1      23.694   1.663  51.455  1.00  0.00     0.140 A 
HETATM   11  C21 UNL     1      22.438   1.180  51.260  1.00  0.00     0.024 A 
HETATM   12  C22 UNL     1      21.817   1.653  50.135  1.00  0.00     0.045 A 
ENDROOT
BRANCH  10  13
HETATM   13  N5  UNL     1      24.489   2.546  50.684  1.00  0.00    -0.338 N 
HETATM   14  C16 UNL     1      25.860   2.423  51.054  1.00  0.00     0.094 A 
HETATM   15  C17 UNL     1      26.838   3.132  50.505  1.00  0.00     0.036 A 
HETATM   16  C18 UNL     1      26.560   4.108  49.457  1.00  0.00     0.010 A 
HETATM   17 BR1  UNL     1      27.877   5.186  48.594  1.00  0.00    -0.051 Br
HETATM   18  C19 UNL     1      25.285   4.214  49.120  1.00  0.00     0.012 A 
HETATM   19  C20 UNL     1      24.127   3.481  49.659  1.00  0.00     0.158 A 
ENDBRANCH  10  13
BRANCH   1  20
HETATM   20  N2  UNL     1      19.849   1.721  48.649  1.00  0.00    -0.384 N 
HETATM   21  H13 UNL     1      19.283   1.024  48.119  1.00  0.00     0.160 HD
BRANCH  20  22
HETATM   22  C2  UNL     1      19.895   3.083  48.193  1.00  0.00     0.095 C 
HETATM   23  C1  UNL     1      19.329   3.240  46.788  1.00  0.00     0.034 C 
BRANCH  22  24
HETATM   24  C3  UNL     1      19.157   4.010  49.100  1.00  0.00     0.150 C 
BRANCH  24  25
HETATM   25  N1  UNL     1      20.008   4.840  49.929  1.00  0.00    -0.346 N 
HETATM   26  C4  UNL     1      20.619   6.071  49.400  1.00  0.00     0.152 C 
HETATM   27  C5  UNL     1      21.116   6.798  50.656  1.00  0.00     0.188 C 
HETATM   28  O1  UNL     1      22.120   6.029  51.201  1.00  0.00    -0.380 OA
HETATM   29  C6  UNL     1      21.670   4.849  51.790  1.00  0.00     0.270 C 
HETATM   30  C7  UNL     1      20.298   4.499  51.301  1.00  0.00     0.243 C 
HETATM   31  O2  UNL     1      19.360   3.940  51.951  1.00  0.00    -0.271 OA
ENDBRANCH  24  25
ENDBRANCH  22  24
ENDBRANCH  20  22
ENDBRANCH   1  20
TORSDOF 5
ENDMDL
