MODEL 1
REMARK VINA RESULT:      -7.2      0.000      0.000
REMARK  5 active torsions:
REMARK  status: ('A' for Active; 'I' for Inactive)
REMARK    1  A    between atoms: C3_3  and  C4_4 
REMARK    2  A    between atoms: C4_4  and  N1_5 
REMARK    3  A    between atoms: N1_5  and  C5_6 
REMARK    4  A    between atoms: C9_12  and  O1_13 
REMARK    5  A    between atoms: O1_13  and  C10_14 
ROOT
HETATM    1  C5  UNL     1      23.835   1.669  51.503  1.00  0.00     0.138 A 
HETATM    2  N2  UNL     1      24.191   2.640  50.653  1.00  0.00    -0.224 NA
HETATM    3  C6  UNL     1      25.425   3.125  50.521  1.00  0.00     0.236 A 
HETATM    4  N3  UNL     1      26.353   2.584  51.305  1.00  0.00    -0.241 NA
HETATM    5  C7  UNL     1      26.114   1.608  52.193  1.00  0.00     0.075 A 
HETATM    6  C8  UNL     1      27.199   1.173  52.919  1.00  0.00     0.072 A 
HETATM    7  C9  UNL     1      26.962   0.170  53.835  1.00  0.00     0.105 A 
HETATM    8  C12 UNL     1      25.664  -0.340  53.975  1.00  0.00     0.114 A 
HETATM    9  C13 UNL     1      24.630   0.150  53.209  1.00  0.00     0.018 A 
HETATM   10  C14 UNL     1      24.829   1.145  52.291  1.00  0.00     0.052 A 
HETATM   11  P1  UNL     1      22.992  -0.592  53.445  1.00  0.00    -0.088 P 
HETATM   12  C15 UNL     1      22.905  -1.215  55.190  1.00  0.00     0.063 C 
HETATM   13  C16 UNL     1      24.264  -1.255  55.800  1.00  0.00     0.180 C 
HETATM   14  O2  UNL     1      25.329  -1.338  54.863  1.00  0.00    -0.347 OA
HETATM   15  H16 UNL     1      22.852  -1.730  52.553  1.00  0.00     0.062 HD
ENDROOT
BRANCH   1  16
HETATM   16  N1  UNL     1      22.487   1.217  51.573  1.00  0.00    -0.371 N 
HETATM   17  H8  UNL     1      21.673   0.846  52.045  1.00  0.00     0.161 HD
BRANCH  16  18
HETATM   18  C4  UNL     1      21.811   1.289  50.290  1.00  0.00     0.148 C 
BRANCH  18  19
HETATM   19  C3  UNL     1      20.387   0.923  50.267  1.00  0.00    -0.012 C 
HETATM   20  C2  UNL     1      19.482   0.428  51.101  1.00  0.00    -0.033 C 
HETATM   21  C1  UNL     1      18.048   0.151  50.780  1.00  0.00     0.036 C 
ENDBRANCH  18  19
ENDBRANCH  16  18
ENDBRANCH   1  16
BRANCH   7  22
HETATM   22  O1  UNL     1      27.995  -0.305  54.586  1.00  0.00    -0.349 OA
BRANCH  22  23
HETATM   23  C10 UNL     1      29.297  -0.534  54.167  1.00  0.00     0.171 C 
HETATM   24  C11 UNL     1      29.435  -1.799  53.333  1.00  0.00     0.034 C 
ENDBRANCH  22  23
ENDBRANCH   7  22
TORSDOF 5
ENDMDL
MODEL 2
REMARK VINA RESULT:      -7.2      2.687      5.905
REMARK  5 active torsions:
REMARK  status: ('A' for Active; 'I' for Inactive)
REMARK    1  A    between atoms: C3_3  and  C4_4 
REMARK    2  A    between atoms: C4_4  and  N1_5 
REMARK    3  A    between atoms: N1_5  and  C5_6 
REMARK    4  A    between atoms: C9_12  and  O1_13 
REMARK    5  A    between atoms: O1_13  and  C10_14 
ROOT
HETATM    1  C5  UNL     1      26.365   2.579  51.664  1.00  0.00     0.138 A 
HETATM    2  N2  UNL     1      27.597   2.329  52.123  1.00  0.00    -0.224 NA
HETATM    3  C6  UNL     1      27.923   1.313  52.921  1.00  0.00     0.236 A 
HETATM    4  N3  UNL     1      26.929   0.501  53.269  1.00  0.00    -0.241 NA
HETATM    5  C7  UNL     1      25.657   0.651  52.871  1.00  0.00     0.075 A 
HETATM    6  C8  UNL     1      24.764  -0.287  53.334  1.00  0.00     0.072 A 
HETATM    7  C9  UNL     1      23.454  -0.138  52.930  1.00  0.00     0.105 A 
HETATM    8  C12 UNL     1      23.111   0.931  52.092  1.00  0.00     0.114 A 
HETATM    9  C13 UNL     1      24.065   1.830  51.671  1.00  0.00     0.018 A 
HETATM   10  C14 UNL     1      25.375   1.713  52.053  1.00  0.00     0.052 A 
HETATM   11  P1  UNL     1      23.527   3.165  50.568  1.00  0.00    -0.088 P 
HETATM   12  C15 UNL     1      21.741   3.507  50.931  1.00  0.00     0.063 C 
HETATM   13  C16 UNL     1      21.153   2.408  51.748  1.00  0.00     0.180 C 
HETATM   14  O2  UNL     1      21.831   1.163  51.638  1.00  0.00    -0.347 OA
HETATM   15  H16 UNL     1      23.629   2.714  49.190  1.00  0.00     0.062 HD
ENDROOT
BRANCH   1  16
HETATM   16  N1  UNL     1      26.114   3.694  50.815  1.00  0.00    -0.371 N 
HETATM   17  H8  UNL     1      25.702   4.588  50.581  1.00  0.00     0.161 HD
BRANCH  16  18
HETATM   18  C4  UNL     1      26.786   3.577  49.533  1.00  0.00     0.148 C 
BRANCH  18  19
HETATM   19  C3  UNL     1      27.200   4.829  48.882  1.00  0.00    -0.012 C 
HETATM   20  C2  UNL     1      28.314   5.376  48.412  1.00  0.00    -0.033 C 
HETATM   21  C1  UNL     1      28.432   6.723  47.775  1.00  0.00     0.036 C 
ENDBRANCH  18  19
ENDBRANCH  16  18
ENDBRANCH   1  16
BRANCH   7  22
HETATM   22  O1  UNL     1      22.520  -1.035  53.354  1.00  0.00    -0.349 OA
BRANCH  22  23
HETATM   23  C10 UNL     1      21.912  -1.086  54.599  1.00  0.00     0.171 C 
HETATM   24  C11 UNL     1      20.966   0.081  54.841  1.00  0.00     0.034 C 
ENDBRANCH  22  23
ENDBRANCH   7  22
TORSDOF 5
ENDMDL
MODEL 3
REMARK VINA RESULT:      -7.2      2.338      5.622
REMARK  5 active torsions:
REMARK  status: ('A' for Active; 'I' for Inactive)
REMARK    1  A    between atoms: C3_3  and  C4_4 
REMARK    2  A    between atoms: C4_4  and  N1_5 
REMARK    3  A    between atoms: N1_5  and  C5_6 
REMARK    4  A    between atoms: C9_12  and  O1_13 
REMARK    5  A    between atoms: O1_13  and  C10_14 
ROOT
HETATM    1  C5  UNL     1      25.032   3.089  50.738  1.00  0.00     0.138 A 
HETATM    2  N2  UNL     1      24.085   3.558  49.918  1.00  0.00    -0.224 NA
HETATM    3  C6  UNL     1      22.822   3.134  49.887  1.00  0.00     0.236 A 
HETATM    4  N3  UNL     1      22.508   2.172  50.751  1.00  0.00    -0.241 NA
HETATM    5  C7  UNL     1      23.372   1.626  51.619  1.00  0.00     0.075 A 
HETATM    6  C8  UNL     1      22.866   0.640  52.435  1.00  0.00     0.072 A 
HETATM    7  C9  UNL     1      23.749   0.073  53.330  1.00  0.00     0.105 A 
HETATM    8  C12 UNL     1      25.077   0.519  53.361  1.00  0.00     0.114 A 
HETATM    9  C13 UNL     1      25.506   1.512  52.510  1.00  0.00     0.018 A 
HETATM   10  C14 UNL     1      24.658   2.097  51.609  1.00  0.00     0.052 A 
HETATM   11  P1  UNL     1      27.237   2.038  52.644  1.00  0.00    -0.088 P 
HETATM   12  C15 UNL     1      28.214   0.592  53.271  1.00  0.00     0.063 C 
HETATM   13  C16 UNL     1      27.307  -0.461  53.808  1.00  0.00     0.180 C 
HETATM   14  O2  UNL     1      26.031   0.013  54.217  1.00  0.00    -0.347 OA
HETATM   15  H16 UNL     1      27.335   3.107  53.623  1.00  0.00     0.062 HD
ENDROOT
BRANCH   1  16
HETATM   16  N1  UNL     1      26.358   3.606  50.695  1.00  0.00    -0.371 N 
HETATM   17  H8  UNL     1      27.211   3.967  51.103  1.00  0.00     0.161 HD
BRANCH  16  18
HETATM   18  C4  UNL     1      26.864   3.720  49.338  1.00  0.00     0.148 C 
BRANCH  18  19
HETATM   19  C3  UNL     1      27.337   5.046  48.913  1.00  0.00    -0.012 C 
HETATM   20  C2  UNL     1      28.386   5.566  48.287  1.00  0.00    -0.033 C 
HETATM   21  C1  UNL     1      28.600   7.013  47.983  1.00  0.00     0.036 C 
ENDBRANCH  18  19
ENDBRANCH  16  18
ENDBRANCH   1  16
BRANCH   7  22
HETATM   22  O1  UNL     1      23.310  -0.909  54.167  1.00  0.00    -0.349 OA
BRANCH  22  23
HETATM   23  C10 UNL     1      22.151  -0.904  54.928  1.00  0.00     0.171 C 
HETATM   24  C11 UNL     1      21.038  -1.737  54.311  1.00  0.00     0.034 C 
ENDBRANCH  22  23
ENDBRANCH   7  22
TORSDOF 5
ENDMDL
MODEL 4
REMARK VINA RESULT:      -6.9      2.991      7.188
REMARK  5 active torsions:
REMARK  status: ('A' for Active; 'I' for Inactive)
REMARK    1  A    between atoms: C3_3  and  C4_4 
REMARK    2  A    between atoms: C4_4  and  N1_5 
REMARK    3  A    between atoms: N1_5  and  C5_6 
REMARK    4  A    between atoms: C9_12  and  O1_13 
REMARK    5  A    between atoms: O1_13  and  C10_14 
ROOT
HETATM    1  C5  UNL     1      24.461  -0.132  53.922  1.00  0.00     0.138 A 
HETATM    2  N2  UNL     1      24.884  -0.852  54.968  1.00  0.00    -0.224 NA
HETATM    3  C6  UNL     1      24.100  -1.577  55.764  1.00  0.00     0.236 A 
HETATM    4  N3  UNL     1      22.802  -1.568  55.473  1.00  0.00    -0.241 NA
HETATM    5  C7  UNL     1      22.263  -0.885  54.452  1.00  0.00     0.075 A 
HETATM    6  C8  UNL     1      20.900  -0.994  54.306  1.00  0.00     0.072 A 
HETATM    7  C9  UNL     1      20.338  -0.294  53.259  1.00  0.00     0.105 A 
HETATM    8  C12 UNL     1      21.162   0.470  52.422  1.00  0.00     0.114 A 
HETATM    9  C13 UNL     1      22.521   0.527  52.635  1.00  0.00     0.018 A 
HETATM   10  C14 UNL     1      23.113  -0.155  53.664  1.00  0.00     0.052 A 
HETATM   11  P1  UNL     1      23.507   1.522  51.483  1.00  0.00    -0.088 P 
HETATM   12  C15 UNL     1      22.412   2.867  50.826  1.00  0.00     0.063 C 
HETATM   13  C16 UNL     1      20.983   2.578  51.135  1.00  0.00     0.180 C 
HETATM   14  O2  UNL     1      20.694   1.204  51.354  1.00  0.00    -0.347 OA
HETATM   15  H16 UNL     1      23.917   0.689  50.365  1.00  0.00     0.062 HD
ENDROOT
BRANCH   1  16
HETATM   16  N1  UNL     1      25.377   0.614  53.129  1.00  0.00    -0.371 N 
HETATM   17  H8  UNL     1      25.737   0.990  52.261  1.00  0.00     0.161 HD
BRANCH  16  18
HETATM   18  C4  UNL     1      26.433   1.217  53.923  1.00  0.00     0.148 C 
BRANCH  18  19
HETATM   19  C3  UNL     1      27.784   0.655  53.770  1.00  0.00    -0.012 C 
HETATM   20  C2  UNL     1      28.343  -0.535  53.588  1.00  0.00    -0.033 C 
HETATM   21  C1  UNL     1      29.807  -0.808  53.463  1.00  0.00     0.036 C 
ENDBRANCH  18  19
ENDBRANCH  16  18
ENDBRANCH   1  16
BRANCH   7  22
HETATM   22  O1  UNL     1      18.992  -0.360  53.059  1.00  0.00    -0.349 OA
BRANCH  22  23
HETATM   23  C10 UNL     1      18.155  -1.429  53.344  1.00  0.00     0.171 C 
HETATM   24  C11 UNL     1      16.818  -1.339  52.624  1.00  0.00     0.034 C 
ENDBRANCH  22  23
ENDBRANCH   7  22
TORSDOF 5
ENDMDL
MODEL 5
REMARK VINA RESULT:      -6.7      3.324      6.664
REMARK  5 active torsions:
REMARK  status: ('A' for Active; 'I' for Inactive)
REMARK    1  A    between atoms: C3_3  and  C4_4 
REMARK    2  A    between atoms: C4_4  and  N1_5 
REMARK    3  A    between atoms: N1_5  and  C5_6 
REMARK    4  A    between atoms: C9_12  and  O1_13 
REMARK    5  A    between atoms: O1_13  and  C10_14 
ROOT
HETATM    1  C5  UNL     1      24.185   0.914  53.018  1.00  0.00     0.138 A 
HETATM    2  N2  UNL     1      25.034   0.171  53.738  1.00  0.00    -0.224 NA
HETATM    3  C6  UNL     1      24.677  -0.809  54.567  1.00  0.00     0.236 A 
HETATM    4  N3  UNL     1      23.371  -1.045  54.666  1.00  0.00    -0.241 NA
HETATM    5  C7  UNL     1      22.429  -0.366  53.995  1.00  0.00     0.075 A 
HETATM    6  C8  UNL     1      21.129  -0.750  54.226  1.00  0.00     0.072 A 
HETATM    7  C9  UNL     1      20.154  -0.055  53.541  1.00  0.00     0.105 A 
HETATM    8  C12 UNL     1      20.529   0.976  52.669  1.00  0.00     0.114 A 
HETATM    9  C13 UNL     1      21.855   1.300  52.492  1.00  0.00     0.018 A 
HETATM   10  C14 UNL     1      22.849   0.632  53.157  1.00  0.00     0.052 A 
HETATM   11  P1  UNL     1      22.242   2.633  51.325  1.00  0.00    -0.088 P 
HETATM   12  C15 UNL     1      20.787   3.781  51.284  1.00  0.00     0.063 C 
HETATM   13  C16 UNL     1      19.600   3.147  51.925  1.00  0.00     0.180 C 
HETATM   14  O2  UNL     1      19.629   1.726  51.944  1.00  0.00    -0.347 OA
HETATM   15  H16 UNL     1      22.408   2.068  49.996  1.00  0.00     0.062 HD
ENDROOT
BRANCH   1  16
HETATM   16  N1  UNL     1      24.663   1.943  52.159  1.00  0.00    -0.371 N 
HETATM   17  H8  UNL     1      24.586   2.810  51.642  1.00  0.00     0.161 HD
BRANCH  16  18
HETATM   18  C4  UNL     1      26.026   1.707  51.717  1.00  0.00     0.148 C 
BRANCH  18  19
HETATM   19  C3  UNL     1      26.574   2.640  50.721  1.00  0.00    -0.012 C 
HETATM   20  C2  UNL     1      26.152   3.666  49.992  1.00  0.00    -0.033 C 
HETATM   21  C1  UNL     1      26.973   4.454  49.024  1.00  0.00     0.036 C 
ENDBRANCH  18  19
ENDBRANCH  16  18
ENDBRANCH   1  16
BRANCH   7  22
HETATM   22  O1  UNL     1      18.845  -0.387  53.724  1.00  0.00    -0.349 OA
BRANCH  22  23
HETATM   23  C10 UNL     1      18.088  -1.261  52.959  1.00  0.00     0.171 C 
HETATM   24  C11 UNL     1      17.853  -2.597  53.648  1.00  0.00     0.034 C 
ENDBRANCH  22  23
ENDBRANCH   7  22
TORSDOF 5
ENDMDL
MODEL 6
REMARK VINA RESULT:      -6.7      2.020      3.666
REMARK  5 active torsions:
REMARK  status: ('A' for Active; 'I' for Inactive)
REMARK    1  A    between atoms: C3_3  and  C4_4 
REMARK    2  A    between atoms: C4_4  and  N1_5 
REMARK    3  A    between atoms: N1_5  and  C5_6 
REMARK    4  A    between atoms: C9_12  and  O1_13 
REMARK    5  A    between atoms: O1_13  and  C10_14 
ROOT
HETATM    1  C5  UNL     1      21.991   0.751  53.219  1.00  0.00     0.138 A 
HETATM    2  N2  UNL     1      21.107  -0.062  53.809  1.00  0.00    -0.224 NA
HETATM    3  C6  UNL     1      21.422  -1.105  54.576  1.00  0.00     0.236 A 
HETATM    4  N3  UNL     1      22.721  -1.331  54.752  1.00  0.00    -0.241 NA
HETATM    5  C7  UNL     1      23.696  -0.585  54.212  1.00  0.00     0.075 A 
HETATM    6  C8  UNL     1      24.983  -0.971  54.504  1.00  0.00     0.072 A 
HETATM    7  C9  UNL     1      25.992  -0.209  53.952  1.00  0.00     0.105 A 
HETATM    8  C12 UNL     1      25.661   0.887  53.144  1.00  0.00     0.114 A 
HETATM    9  C13 UNL     1      24.345   1.209  52.900  1.00  0.00     0.018 A 
HETATM   10  C14 UNL     1      23.319   0.475  53.431  1.00  0.00     0.052 A 
HETATM   11  P1  UNL     1      24.018   2.661  51.863  1.00  0.00    -0.088 P 
HETATM   12  C15 UNL     1      25.461   2.865  50.715  1.00  0.00     0.063 C 
HETATM   13  C16 UNL     1      26.611   2.032  51.165  1.00  0.00     0.180 C 
HETATM   14  O2  UNL     1      26.597   1.704  52.548  1.00  0.00    -0.347 OA
HETATM   15  H16 UNL     1      23.944   3.841  52.707  1.00  0.00     0.062 HD
ENDROOT
BRANCH   1  16
HETATM   16  N1  UNL     1      21.557   1.842  52.414  1.00  0.00    -0.371 N 
HETATM   17  H8  UNL     1      21.675   2.562  51.713  1.00  0.00     0.161 HD
BRANCH  16  18
HETATM   18  C4  UNL     1      20.175   2.203  52.671  1.00  0.00     0.148 C 
BRANCH  18  19
HETATM   19  C3  UNL     1      19.170   1.710  51.717  1.00  0.00    -0.012 C 
HETATM   20  C2  UNL     1      18.919   0.599  51.034  1.00  0.00    -0.033 C 
HETATM   21  C1  UNL     1      17.771   0.381  50.102  1.00  0.00     0.036 C 
ENDBRANCH  18  19
ENDBRANCH  16  18
ENDBRANCH   1  16
BRANCH   7  22
HETATM   22  O1  UNL     1      27.290  -0.539  54.203  1.00  0.00    -0.349 OA
BRANCH  22  23
HETATM   23  C10 UNL     1      28.260   0.264  54.783  1.00  0.00     0.171 C 
HETATM   24  C11 UNL     1      29.524   0.364  53.942  1.00  0.00     0.034 C 
ENDBRANCH  22  23
ENDBRANCH   7  22
TORSDOF 5
ENDMDL
MODEL 7
REMARK VINA RESULT:      -6.7      2.785      6.443
REMARK  5 active torsions:
REMARK  status: ('A' for Active; 'I' for Inactive)
REMARK    1  A    between atoms: C3_3  and  C4_4 
REMARK    2  A    between atoms: C4_4  and  N1_5 
REMARK    3  A    between atoms: N1_5  and  C5_6 
REMARK    4  A    between atoms: C9_12  and  O1_13 
REMARK    5  A    between atoms: O1_13  and  C10_14 
ROOT
HETATM    1  C5  UNL     1      24.854   0.787  52.567  1.00  0.00     0.138 A 
HETATM    2  N2  UNL     1      25.785   1.468  51.889  1.00  0.00    -0.224 NA
HETATM    3  C6  UNL     1      25.572   2.610  51.236  1.00  0.00     0.236 A 
HETATM    4  N3  UNL     1      24.330   3.086  51.280  1.00  0.00    -0.241 NA
HETATM    5  C7  UNL     1      23.317   2.490  51.927  1.00  0.00     0.075 A 
HETATM    6  C8  UNL     1      22.100   3.129  51.861  1.00  0.00     0.072 A 
HETATM    7  C9  UNL     1      21.053   2.523  52.523  1.00  0.00     0.105 A 
HETATM    8  C12 UNL     1      21.277   1.322  53.209  1.00  0.00     0.114 A 
HETATM    9  C13 UNL     1      22.527   0.745  53.228  1.00  0.00     0.018 A 
HETATM   10  C14 UNL     1      23.589   1.319  52.582  1.00  0.00     0.052 A 
HETATM   11  P1  UNL     1      22.723  -0.797  54.163  1.00  0.00    -0.088 P 
HETATM   12  C15 UNL     1      21.082  -1.662  54.166  1.00  0.00     0.063 C 
HETATM   13  C16 UNL     1      20.001  -0.738  53.721  1.00  0.00     0.180 C 
HETATM   14  O2  UNL     1      20.295   0.642  53.896  1.00  0.00    -0.347 OA
HETATM   15  H16 UNL     1      23.066  -0.477  55.539  1.00  0.00     0.062 HD
ENDROOT
BRANCH   1  16
HETATM   16  N1  UNL     1      25.179  -0.428  53.234  1.00  0.00    -0.371 N 
HETATM   17  H8  UNL     1      25.058  -1.142  53.942  1.00  0.00     0.161 HD
BRANCH  16  18
HETATM   18  C4  UNL     1      26.315  -1.103  52.632  1.00  0.00     0.148 C 
BRANCH  18  19
HETATM   19  C3  UNL     1      27.631  -0.862  53.243  1.00  0.00    -0.012 C 
HETATM   20  C2  UNL     1      28.877  -1.303  53.110  1.00  0.00    -0.033 C 
HETATM   21  C1  UNL     1      30.058  -0.851  53.906  1.00  0.00     0.036 C 
ENDBRANCH  18  19
ENDBRANCH  16  18
ENDBRANCH   1  16
BRANCH   7  22
HETATM   22  O1  UNL     1      19.822   3.105  52.497  1.00  0.00    -0.349 OA
BRANCH  22  23
HETATM   23  C10 UNL     1      18.824   2.911  51.554  1.00  0.00     0.171 C 
HETATM   24  C11 UNL     1      18.554   4.152  50.716  1.00  0.00     0.034 C 
ENDBRANCH  22  23
ENDBRANCH   7  22
TORSDOF 5
ENDMDL
MODEL 8
REMARK VINA RESULT:      -6.6      3.288      7.405
REMARK  5 active torsions:
REMARK  status: ('A' for Active; 'I' for Inactive)
REMARK    1  A    between atoms: C3_3  and  C4_4 
REMARK    2  A    between atoms: C4_4  and  N1_5 
REMARK    3  A    between atoms: N1_5  and  C5_6 
REMARK    4  A    between atoms: C9_12  and  O1_13 
REMARK    5  A    between atoms: O1_13  and  C10_14 
ROOT
HETATM    1  C5  UNL     1      23.848   0.155  53.452  1.00  0.00     0.138 A 
HETATM    2  N2  UNL     1      23.642  -0.893  54.257  1.00  0.00    -0.224 NA
HETATM    3  C6  UNL     1      22.463  -1.241  54.772  1.00  0.00     0.236 A 
HETATM    4  N3  UNL     1      21.430  -0.470  54.442  1.00  0.00    -0.241 NA
HETATM    5  C7  UNL     1      21.517   0.605  53.645  1.00  0.00     0.075 A 
HETATM    6  C8  UNL     1      20.342   1.283  53.416  1.00  0.00     0.072 A 
HETATM    7  C9  UNL     1      20.422   2.390  52.598  1.00  0.00     0.105 A 
HETATM    8  C12 UNL     1      21.662   2.756  52.057  1.00  0.00     0.114 A 
HETATM    9  C13 UNL     1      22.794   2.024  52.334  1.00  0.00     0.018 A 
HETATM   10  C14 UNL     1      22.751   0.920  53.142  1.00  0.00     0.052 A 
HETATM   11  P1  UNL     1      24.346   2.563  51.567  1.00  0.00    -0.088 P 
HETATM   12  C15 UNL     1      24.228   4.392  51.289  1.00  0.00     0.063 C 
HETATM   13  C16 UNL     1      22.820   4.856  51.439  1.00  0.00     0.180 C 
HETATM   14  O2  UNL     1      21.842   3.845  51.233  1.00  0.00    -0.347 OA
HETATM   15  H16 UNL     1      24.486   1.918  50.272  1.00  0.00     0.062 HD
ENDROOT
BRANCH   1  16
HETATM   16  N1  UNL     1      25.148   0.448  52.951  1.00  0.00    -0.371 N 
HETATM   17  H8  UNL     1      25.817   0.680  52.228  1.00  0.00     0.161 HD
BRANCH  16  18
HETATM   18  C4  UNL     1      26.160   0.423  53.992  1.00  0.00     0.148 C 
BRANCH  18  19
HETATM   19  C3  UNL     1      27.411  -0.288  53.687  1.00  0.00    -0.012 C 
HETATM   20  C2  UNL     1      28.711  -0.138  53.909  1.00  0.00    -0.033 C 
HETATM   21  C1  UNL     1      29.793  -1.065  53.457  1.00  0.00     0.036 C 
ENDBRANCH  18  19
ENDBRANCH  16  18
ENDBRANCH   1  16
BRANCH   7  22
HETATM   22  O1  UNL     1      19.293   3.105  52.332  1.00  0.00    -0.349 OA
BRANCH  22  23
HETATM   23  C10 UNL     1      18.423   2.929  51.267  1.00  0.00     0.171 C 
HETATM   24  C11 UNL     1      18.154   4.218  50.505  1.00  0.00     0.034 C 
ENDBRANCH  22  23
ENDBRANCH   7  22
TORSDOF 5
ENDMDL
MODEL 9
REMARK VINA RESULT:      -6.2      3.442      5.449
REMARK  5 active torsions:
REMARK  status: ('A' for Active; 'I' for Inactive)
REMARK    1  A    between atoms: C3_3  and  C4_4 
REMARK    2  A    between atoms: C4_4  and  N1_5 
REMARK    3  A    between atoms: N1_5  and  C5_6 
REMARK    4  A    between atoms: C9_12  and  O1_13 
REMARK    5  A    between atoms: O1_13  and  C10_14 
ROOT
HETATM    1  C5  UNL     1      24.667   1.527  52.543  1.00  0.00     0.138 A 
HETATM    2  N2  UNL     1      25.696   0.780  52.957  1.00  0.00    -0.224 NA
HETATM    3  C6  UNL     1      26.947   0.889  52.512  1.00  0.00     0.236 A 
HETATM    4  N3  UNL     1      27.159   1.820  51.585  1.00  0.00    -0.241 NA
HETATM    5  C7  UNL     1      26.206   2.626  51.095  1.00  0.00     0.075 A 
HETATM    6  C8  UNL     1      26.612   3.529  50.140  1.00  0.00     0.072 A 
HETATM    7  C9  UNL     1      25.638   4.361  49.629  1.00  0.00     0.105 A 
HETATM    8  C12 UNL     1      24.322   4.246  50.097  1.00  0.00     0.114 A 
HETATM    9  C13 UNL     1      23.996   3.315  51.057  1.00  0.00     0.018 A 
HETATM   10  C14 UNL     1      24.937   2.473  51.586  1.00  0.00     0.052 A 
HETATM   11  P1  UNL     1      22.272   3.260  51.617  1.00  0.00    -0.088 P 
HETATM   12  C15 UNL     1      21.210   3.856  50.218  1.00  0.00     0.063 C 
HETATM   13  C16 UNL     1      22.041   4.523  49.176  1.00  0.00     0.180 C 
HETATM   14  O2  UNL     1      23.282   5.030  49.647  1.00  0.00    -0.347 OA
HETATM   15  H16 UNL     1      22.104   4.177  52.732  1.00  0.00     0.062 HD
ENDROOT
BRANCH   1  16
HETATM   16  N1  UNL     1      23.362   1.335  53.079  1.00  0.00    -0.371 N 
HETATM   17  H8  UNL     1      22.441   1.638  53.369  1.00  0.00     0.161 HD
BRANCH  16  18
HETATM   18  C4  UNL     1      23.115  -0.046  53.453  1.00  0.00     0.148 C 
BRANCH  18  19
HETATM   19  C3  UNL     1      21.717  -0.502  53.428  1.00  0.00    -0.012 C 
HETATM   20  C2  UNL     1      20.512   0.018  53.222  1.00  0.00    -0.033 C 
HETATM   21  C1  UNL     1      19.216  -0.724  53.263  1.00  0.00     0.036 C 
ENDBRANCH  18  19
ENDBRANCH  16  18
ENDBRANCH   1  16
BRANCH   7  22
HETATM   22  O1  UNL     1      25.976   5.279  48.680  1.00  0.00    -0.349 OA
BRANCH  22  23
HETATM   23  C10 UNL     1      26.706   6.443  48.864  1.00  0.00     0.171 C 
HETATM   24  C11 UNL     1      28.068   6.398  48.187  1.00  0.00     0.034 C 
ENDBRANCH  22  23
ENDBRANCH   7  22
TORSDOF 5
ENDMDL
