MODEL 1
REMARK VINA RESULT:      -7.8      0.000      0.000
REMARK  6 active torsions:
REMARK  status: ('A' for Active; 'I' for Inactive)
REMARK    1  A    between atoms: N1_2  and  C2_3 
REMARK    2  A    between atoms: C4_5  and  C5_6 
REMARK    3  A    between atoms: C8_9  and  O1_10 
REMARK    4  A    between atoms: N3_15  and  C12_16 
REMARK    5  A    between atoms: C12_16  and  S1_17 
REMARK    6  A    between atoms: C13_18  and  N4_19 
ROOT
HETATM    1  C2  UNL     1      23.362   2.022  50.480  1.00  0.00     0.203 C 
HETATM    2  C3  UNL     1      23.729   3.129  49.558  1.00  0.00     0.109 C 
HETATM    3  C4  UNL     1      24.964   3.682  50.144  1.00  0.00     0.068 C 
HETATM    4  N2  UNL     1      25.125   3.215  51.335  1.00  0.00    -0.178 NA
HETATM    5  N3  UNL     1      24.104   2.354  51.682  1.00  0.00    -0.273 N 
ENDROOT
BRANCH   5   6
HETATM    6  C12 UNL     1      23.989   1.983  53.075  1.00  0.00     0.220 C 
BRANCH   6   7
HETATM    7  S1  UNL     1      25.341   0.841  53.521  1.00  0.00    -0.136 SA
HETATM    8  C13 UNL     1      26.848   1.396  53.860  1.00  0.00     0.020 C 
HETATM    9  C14 UNL     1      27.734   0.271  54.194  1.00  0.00     0.035 C 
HETATM   10  C15 UNL     1      29.097   0.819  54.536  1.00  0.00     0.017 C 
HETATM   11  C16 UNL     1      27.857  -0.704  53.046  1.00  0.00     0.038 C 
HETATM   12  C17 UNL     1      26.585  -1.351  52.687  1.00  0.00    -0.020 C 
HETATM   13  C18 UNL     1      25.356  -0.846  52.813  1.00  0.00     0.037 C 
BRANCH   8  14
HETATM   14  N4  UNL     1      27.295   2.722  53.860  1.00  0.00    -0.301 NA
HETATM   15  H17 UNL     1      27.933   3.016  54.652  1.00  0.00     0.124 HD
HETATM   16  H18 UNL     1      27.702   3.658  53.994  1.00  0.00     0.124 HD
ENDBRANCH   8  14
ENDBRANCH   6   7
ENDBRANCH   5   6
BRANCH   1  17
HETATM   17  N1  UNL     1      21.971   1.968  50.826  1.00  0.00    -0.404 N 
HETATM   18  C1  UNL     1      21.387   0.668  50.725  1.00  0.00     0.142 C 
HETATM   19  H4  UNL     1      21.702   2.504  51.659  1.00  0.00     0.154 HD
ENDBRANCH   1  17
BRANCH   3  20
HETATM   20  C5  UNL     1      25.857   4.627  49.445  1.00  0.00    -0.009 A 
HETATM   21  C6  UNL     1      25.420   5.894  49.077  1.00  0.00     0.016 A 
HETATM   22  C7  UNL     1      26.308   6.721  48.428  1.00  0.00     0.037 A 
HETATM   23  C8  UNL     1      27.599   6.337  48.134  1.00  0.00     0.068 A 
HETATM   24  C10 UNL     1      28.046   5.087  48.491  1.00  0.00     0.037 A 
HETATM   25  C11 UNL     1      27.149   4.247  49.149  1.00  0.00     0.016 A 
BRANCH  23  26
HETATM   26  O1  UNL     1      28.533   7.122  47.487  1.00  0.00    -0.356 OA
HETATM   27  C9  UNL     1      29.907   6.797  47.525  1.00  0.00     0.210 C 
ENDBRANCH  23  26
ENDBRANCH   3  20
TORSDOF 6
ENDMDL
MODEL 2
REMARK VINA RESULT:      -7.7      3.619      6.797
REMARK  6 active torsions:
REMARK  status: ('A' for Active; 'I' for Inactive)
REMARK    1  A    between atoms: N1_2  and  C2_3 
REMARK    2  A    between atoms: C4_5  and  C5_6 
REMARK    3  A    between atoms: C8_9  and  O1_10 
REMARK    4  A    between atoms: N3_15  and  C12_16 
REMARK    5  A    between atoms: C12_16  and  S1_17 
REMARK    6  A    between atoms: C13_18  and  N4_19 
ROOT
HETATM    1  C2  UNL     1      24.438   2.745  51.295  1.00  0.00     0.203 C 
HETATM    2  C3  UNL     1      23.319   1.867  50.861  1.00  0.00     0.109 C 
HETATM    3  C4  UNL     1      22.675   1.465  52.125  1.00  0.00     0.068 C 
HETATM    4  N2  UNL     1      23.438   1.776  53.118  1.00  0.00    -0.178 NA
HETATM    5  N3  UNL     1      24.603   2.381  52.689  1.00  0.00    -0.273 N 
ENDROOT
BRANCH   5   6
HETATM    6  C12 UNL     1      25.674   2.520  53.650  1.00  0.00     0.220 C 
BRANCH   6   7
HETATM    7  S1  UNL     1      26.577   0.941  53.796  1.00  0.00    -0.136 SA
HETATM    8  C13 UNL     1      28.201   0.863  53.570  1.00  0.00     0.020 C 
HETATM    9  C14 UNL     1      28.669  -0.518  53.755  1.00  0.00     0.035 C 
HETATM   10  C15 UNL     1      30.166  -0.546  53.578  1.00  0.00     0.017 C 
HETATM   11  C16 UNL     1      28.027  -1.463  52.765  1.00  0.00     0.038 C 
HETATM   12  C17 UNL     1      26.565  -1.562  52.911  1.00  0.00    -0.020 C 
HETATM   13  C18 UNL     1      25.730  -0.618  53.348  1.00  0.00     0.037 C 
BRANCH   8  14
HETATM   14  N4  UNL     1      29.075   1.910  53.255  1.00  0.00    -0.301 NA
HETATM   15  H17 UNL     1      29.941   1.664  52.698  1.00  0.00     0.124 HD
HETATM   16  H18 UNL     1      29.806   2.567  52.950  1.00  0.00     0.124 HD
ENDBRANCH   8  14
ENDBRANCH   6   7
ENDBRANCH   5   6
BRANCH   1  17
HETATM   17  N1  UNL     1      25.684   2.499  50.628  1.00  0.00    -0.404 N 
HETATM   18  C1  UNL     1      26.253   3.646  49.995  1.00  0.00     0.142 C 
HETATM   19  H4  UNL     1      26.350   1.908  51.141  1.00  0.00     0.154 HD
ENDBRANCH   1  17
BRANCH   3  20
HETATM   20  C5  UNL     1      21.357   0.807  52.206  1.00  0.00    -0.009 A 
HETATM   21  C6  UNL     1      20.454   0.869  51.151  1.00  0.00     0.016 A 
HETATM   22  C7  UNL     1      19.243   0.231  51.298  1.00  0.00     0.037 A 
HETATM   23  C8  UNL     1      18.903  -0.458  52.443  1.00  0.00     0.068 A 
HETATM   24  C10 UNL     1      19.785  -0.528  53.494  1.00  0.00     0.037 A 
HETATM   25  C11 UNL     1      21.012   0.116  53.349  1.00  0.00     0.016 A 
BRANCH  23  26
HETATM   26  O1  UNL     1      17.706  -1.116  52.647  1.00  0.00    -0.356 OA
HETATM   27  C9  UNL     1      17.642  -2.276  53.450  1.00  0.00     0.210 C 
ENDBRANCH  23  26
ENDBRANCH   3  20
TORSDOF 6
ENDMDL
MODEL 3
REMARK VINA RESULT:      -7.5      1.345      2.010
REMARK  6 active torsions:
REMARK  status: ('A' for Active; 'I' for Inactive)
REMARK    1  A    between atoms: N1_2  and  C2_3 
REMARK    2  A    between atoms: C4_5  and  C5_6 
REMARK    3  A    between atoms: C8_9  and  O1_10 
REMARK    4  A    between atoms: N3_15  and  C12_16 
REMARK    5  A    between atoms: C12_16  and  S1_17 
REMARK    6  A    between atoms: C13_18  and  N4_19 
ROOT
HETATM    1  C2  UNL     1      23.795   2.302  50.538  1.00  0.00     0.203 C 
HETATM    2  C3  UNL     1      24.054   3.559  49.788  1.00  0.00     0.109 C 
HETATM    3  C4  UNL     1      25.482   3.830  50.034  1.00  0.00     0.068 C 
HETATM    4  N2  UNL     1      25.909   3.072  50.987  1.00  0.00    -0.178 NA
HETATM    5  N3  UNL     1      24.906   2.256  51.470  1.00  0.00    -0.273 N 
ENDROOT
BRANCH   5   6
HETATM    6  C12 UNL     1      25.149   1.570  52.719  1.00  0.00     0.220 C 
BRANCH   6   7
HETATM    7  S1  UNL     1      26.914   1.122  52.841  1.00  0.00    -0.136 SA
HETATM    8  C13 UNL     1      27.385  -0.432  53.083  1.00  0.00     0.020 C 
HETATM    9  C14 UNL     1      28.852  -0.510  53.133  1.00  0.00     0.035 C 
HETATM   10  C15 UNL     1      29.250  -1.953  53.318  1.00  0.00     0.017 C 
HETATM   11  C16 UNL     1      29.419   0.318  54.263  1.00  0.00     0.038 C 
HETATM   12  C17 UNL     1      29.146   1.758  54.129  1.00  0.00    -0.020 C 
HETATM   13  C18 UNL     1      28.097   2.332  53.538  1.00  0.00     0.037 C 
BRANCH   8  14
HETATM   14  N4  UNL     1      26.573  -1.563  53.224  1.00  0.00    -0.301 NA
HETATM   15  H17 UNL     1      26.782  -2.388  52.595  1.00  0.00     0.124 HD
HETATM   16  H18 UNL     1      26.066  -2.459  53.211  1.00  0.00     0.124 HD
ENDBRANCH   8  14
ENDBRANCH   6   7
ENDBRANCH   5   6
BRANCH   1  17
HETATM   17  N1  UNL     1      22.582   2.301  51.303  1.00  0.00    -0.404 N 
HETATM   18  C1  UNL     1      22.160   3.593  51.744  1.00  0.00     0.142 C 
HETATM   19  H4  UNL     1      21.834   1.697  50.943  1.00  0.00     0.154 HD
ENDBRANCH   1  17
BRANCH   3  20
HETATM   20  C5  UNL     1      26.274   4.825  49.285  1.00  0.00    -0.009 A 
HETATM   21  C6  UNL     1      25.728   6.048  48.912  1.00  0.00     0.016 A 
HETATM   22  C7  UNL     1      26.525   6.926  48.214  1.00  0.00     0.037 A 
HETATM   23  C8  UNL     1      27.831   6.635  47.879  1.00  0.00     0.068 A 
HETATM   24  C10 UNL     1      28.385   5.431  48.241  1.00  0.00     0.037 A 
HETATM   25  C11 UNL     1      27.580   4.539  48.947  1.00  0.00     0.016 A 
BRANCH  23  26
HETATM   26  O1  UNL     1      28.678   7.475  47.182  1.00  0.00    -0.356 OA
HETATM   27  C9  UNL     1      30.072   7.250  47.165  1.00  0.00     0.210 C 
ENDBRANCH  23  26
ENDBRANCH   3  20
TORSDOF 6
ENDMDL
MODEL 4
REMARK VINA RESULT:      -7.3      3.860      8.031
REMARK  6 active torsions:
REMARK  status: ('A' for Active; 'I' for Inactive)
REMARK    1  A    between atoms: N1_2  and  C2_3 
REMARK    2  A    between atoms: C4_5  and  C5_6 
REMARK    3  A    between atoms: C8_9  and  O1_10 
REMARK    4  A    between atoms: N3_15  and  C12_16 
REMARK    5  A    between atoms: C12_16  and  S1_17 
REMARK    6  A    between atoms: C13_18  and  N4_19 
ROOT
HETATM    1  C2  UNL     1      26.187  -0.231  53.464  1.00  0.00     0.203 C 
HETATM    2  C3  UNL     1      24.871  -0.498  54.101  1.00  0.00     0.109 C 
HETATM    3  C4  UNL     1      23.894   0.031  53.131  1.00  0.00     0.068 C 
HETATM    4  N2  UNL     1      24.505   0.748  52.249  1.00  0.00    -0.178 NA
HETATM    5  N3  UNL     1      25.864   0.794  52.489  1.00  0.00    -0.273 N 
ENDROOT
BRANCH   5   6
HETATM    6  C12 UNL     1      26.635   1.783  51.770  1.00  0.00     0.220 C 
BRANCH   6   7
HETATM    7  S1  UNL     1      25.516   3.043  51.069  1.00  0.00    -0.136 SA
HETATM    8  C13 UNL     1      26.055   4.156  49.989  1.00  0.00     0.020 C 
HETATM    9  C14 UNL     1      24.951   5.038  49.583  1.00  0.00     0.035 C 
HETATM   10  C15 UNL     1      25.472   6.022  48.565  1.00  0.00     0.017 C 
HETATM   11  C16 UNL     1      24.374   5.791  50.760  1.00  0.00     0.038 C 
HETATM   12  C17 UNL     1      23.771   4.914  51.778  1.00  0.00    -0.020 C 
HETATM   13  C18 UNL     1      24.122   3.663  52.079  1.00  0.00     0.037 C 
BRANCH   8  14
HETATM   14  N4  UNL     1      27.350   4.301  49.479  1.00  0.00    -0.301 NA
HETATM   15  H17 UNL     1      28.075   3.598  49.798  1.00  0.00     0.124 HD
HETATM   16  H18 UNL     1      28.339   4.278  49.193  1.00  0.00     0.124 HD
ENDBRANCH   8  14
ENDBRANCH   6   7
ENDBRANCH   5   6
BRANCH   1  17
HETATM   17  N1  UNL     1      27.182   0.305  54.348  1.00  0.00    -0.404 N 
HETATM   18  C1  UNL     1      28.483  -0.261  54.186  1.00  0.00     0.142 C 
HETATM   19  H4  UNL     1      27.162   1.324  54.469  1.00  0.00     0.154 HD
ENDBRANCH   1  17
BRANCH   3  20
HETATM   20  C5  UNL     1      22.445  -0.238  53.190  1.00  0.00    -0.009 A 
HETATM   21  C6  UNL     1      21.554   0.420  52.350  1.00  0.00     0.016 A 
HETATM   22  C7  UNL     1      20.216   0.119  52.461  1.00  0.00     0.037 A 
HETATM   23  C8  UNL     1      19.738  -0.803  53.368  1.00  0.00     0.068 A 
HETATM   24  C10 UNL     1      20.605  -1.462  54.205  1.00  0.00     0.037 A 
HETATM   25  C11 UNL     1      21.961  -1.160  54.095  1.00  0.00     0.016 A 
BRANCH  23  26
HETATM   26  O1  UNL     1      18.409  -1.147  53.525  1.00  0.00    -0.356 OA
HETATM   27  C9  UNL     1      18.022  -2.495  53.694  1.00  0.00     0.210 C 
ENDBRANCH  23  26
ENDBRANCH   3  20
TORSDOF 6
ENDMDL
MODEL 5
REMARK VINA RESULT:      -7.2      3.315      6.665
REMARK  6 active torsions:
REMARK  status: ('A' for Active; 'I' for Inactive)
REMARK    1  A    between atoms: N1_2  and  C2_3 
REMARK    2  A    between atoms: C4_5  and  C5_6 
REMARK    3  A    between atoms: C8_9  and  O1_10 
REMARK    4  A    between atoms: N3_15  and  C12_16 
REMARK    5  A    between atoms: C12_16  and  S1_17 
REMARK    6  A    between atoms: C13_18  and  N4_19 
ROOT
HETATM    1  C2  UNL     1      21.217   1.922  52.214  1.00  0.00     0.203 C 
HETATM    2  C3  UNL     1      22.195   0.807  52.112  1.00  0.00     0.109 C 
HETATM    3  C4  UNL     1      23.491   1.447  52.405  1.00  0.00     0.068 C 
HETATM    4  N2  UNL     1      23.358   2.730  52.374  1.00  0.00    -0.178 NA
HETATM    5  N3  UNL     1      22.059   3.095  52.081  1.00  0.00    -0.273 N 
ENDROOT
BRANCH   5   6
HETATM    6  C12 UNL     1      21.819   4.476  51.726  1.00  0.00     0.220 C 
BRANCH   6   7
HETATM    7  S1  UNL     1      23.053   5.018  50.495  1.00  0.00    -0.136 SA
HETATM    8  C13 UNL     1      24.150   6.188  50.845  1.00  0.00     0.020 C 
HETATM    9  C14 UNL     1      25.023   6.421  49.686  1.00  0.00     0.035 C 
HETATM   10  C15 UNL     1      26.040   7.472  50.054  1.00  0.00     0.017 C 
HETATM   11  C16 UNL     1      24.239   6.881  48.478  1.00  0.00     0.038 C 
HETATM   12  C17 UNL     1      23.268   5.885  47.995  1.00  0.00    -0.020 C 
HETATM   13  C18 UNL     1      22.624   4.966  48.717  1.00  0.00     0.037 C 
BRANCH   8  14
HETATM   14  N4  UNL     1      24.298   6.895  52.044  1.00  0.00    -0.301 NA
HETATM   15  H17 UNL     1      23.418   7.286  52.485  1.00  0.00     0.124 HD
HETATM   16  H18 UNL     1      24.247   7.434  52.919  1.00  0.00     0.124 HD
ENDBRANCH   8  14
ENDBRANCH   6   7
ENDBRANCH   5   6
BRANCH   1  17
HETATM   17  N1  UNL     1      20.243   1.961  51.163  1.00  0.00    -0.404 N 
HETATM   18  C1  UNL     1      18.887   1.914  51.610  1.00  0.00     0.142 C 
HETATM   19  H4  UNL     1      20.431   2.635  50.411  1.00  0.00     0.154 HD
ENDBRANCH   1  17
BRANCH   3  20
HETATM   20  C5  UNL     1      24.734   0.702  52.685  1.00  0.00    -0.009 A 
HETATM   21  C6  UNL     1      25.877   0.891  51.916  1.00  0.00     0.016 A 
HETATM   22  C7  UNL     1      26.999   0.161  52.235  1.00  0.00     0.037 A 
HETATM   23  C8  UNL     1      27.025  -0.739  53.279  1.00  0.00     0.068 A 
HETATM   24  C10 UNL     1      25.903  -0.937  54.048  1.00  0.00     0.037 A 
HETATM   25  C11 UNL     1      24.765  -0.199  53.728  1.00  0.00     0.016 A 
BRANCH  23  26
HETATM   26  O1  UNL     1      28.119  -1.498  53.646  1.00  0.00    -0.356 OA
HETATM   27  C9  UNL     1      29.426  -0.964  53.589  1.00  0.00     0.210 C 
ENDBRANCH  23  26
ENDBRANCH   3  20
TORSDOF 6
ENDMDL
MODEL 6
REMARK VINA RESULT:      -7.1      2.076      3.192
REMARK  6 active torsions:
REMARK  status: ('A' for Active; 'I' for Inactive)
REMARK    1  A    between atoms: N1_2  and  C2_3 
REMARK    2  A    between atoms: C4_5  and  C5_6 
REMARK    3  A    between atoms: C8_9  and  O1_10 
REMARK    4  A    between atoms: N3_15  and  C12_16 
REMARK    5  A    between atoms: C12_16  and  S1_17 
REMARK    6  A    between atoms: C13_18  and  N4_19 
ROOT
HETATM    1  C2  UNL     1      22.721   3.234  49.557  1.00  0.00     0.203 C 
HETATM    2  C3  UNL     1      23.503   4.189  48.727  1.00  0.00     0.109 C 
HETATM    3  C4  UNL     1      24.692   4.480  49.550  1.00  0.00     0.068 C 
HETATM    4  N2  UNL     1      24.507   4.043  50.749  1.00  0.00    -0.178 NA
HETATM    5  N3  UNL     1      23.269   3.447  50.884  1.00  0.00    -0.273 N 
ENDROOT
BRANCH   5   6
HETATM    6  C12 UNL     1      22.802   3.174  52.224  1.00  0.00     0.220 C 
BRANCH   6   7
HETATM    7  S1  UNL     1      23.092   1.419  52.631  1.00  0.00    -0.136 SA
HETATM    8  C13 UNL     1      21.951   0.521  53.397  1.00  0.00     0.020 C 
HETATM    9  C14 UNL     1      22.439  -0.852  53.592  1.00  0.00     0.035 C 
HETATM   10  C15 UNL     1      21.354  -1.657  54.263  1.00  0.00     0.017 C 
HETATM   11  C16 UNL     1      23.689  -0.887  54.440  1.00  0.00     0.038 C 
HETATM   12  C17 UNL     1      24.832  -0.188  53.829  1.00  0.00    -0.020 C 
HETATM   13  C18 UNL     1      24.793   0.856  53.000  1.00  0.00     0.037 C 
BRANCH   8  14
HETATM   14  N4  UNL     1      20.682   0.928  53.824  1.00  0.00    -0.301 NA
HETATM   15  H17 UNL     1      20.467   1.964  53.779  1.00  0.00     0.124 HD
HETATM   16  H18 UNL     1      19.798   1.377  54.102  1.00  0.00     0.124 HD
ENDBRANCH   8  14
ENDBRANCH   6   7
ENDBRANCH   5   6
BRANCH   1  17
HETATM   17  N1  UNL     1      21.314   3.506  49.616  1.00  0.00    -0.404 N 
HETATM   18  C1  UNL     1      20.965   4.872  49.384  1.00  0.00     0.142 C 
HETATM   19  H4  UNL     1      20.712   2.817  49.150  1.00  0.00     0.154 HD
ENDBRANCH   1  17
BRANCH   3  20
HETATM   20  C5  UNL     1      25.894   5.171  49.045  1.00  0.00    -0.009 A 
HETATM   21  C6  UNL     1      25.846   6.498  48.637  1.00  0.00     0.016 A 
HETATM   22  C7  UNL     1      27.007   7.077  48.177  1.00  0.00     0.037 A 
HETATM   23  C8  UNL     1      28.200   6.389  48.109  1.00  0.00     0.068 A 
HETATM   24  C10 UNL     1      28.264   5.076  48.508  1.00  0.00     0.037 A 
HETATM   25  C11 UNL     1      27.090   4.487  48.975  1.00  0.00     0.016 A 
BRANCH  23  26
HETATM   26  O1  UNL     1      29.395   6.916  47.658  1.00  0.00    -0.356 OA
HETATM   27  C9  UNL     1      30.092   7.886  48.412  1.00  0.00     0.210 C 
ENDBRANCH  23  26
ENDBRANCH   3  20
TORSDOF 6
ENDMDL
MODEL 7
REMARK VINA RESULT:      -7.0      3.471      7.072
REMARK  6 active torsions:
REMARK  status: ('A' for Active; 'I' for Inactive)
REMARK    1  A    between atoms: N1_2  and  C2_3 
REMARK    2  A    between atoms: C4_5  and  C5_6 
REMARK    3  A    between atoms: C8_9  and  O1_10 
REMARK    4  A    between atoms: N3_15  and  C12_16 
REMARK    5  A    between atoms: C12_16  and  S1_17 
REMARK    6  A    between atoms: C13_18  and  N4_19 
ROOT
HETATM    1  C2  UNL     1      24.067   6.272  51.240  1.00  0.00     0.203 C 
HETATM    2  C3  UNL     1      23.837   5.050  52.055  1.00  0.00     0.109 C 
HETATM    3  C4  UNL     1      24.531   3.988  51.303  1.00  0.00     0.068 C 
HETATM    4  N2  UNL     1      24.838   4.420  50.127  1.00  0.00    -0.178 NA
HETATM    5  N3  UNL     1      24.426   5.726  49.945  1.00  0.00    -0.273 N 
ENDROOT
BRANCH   5   6
HETATM    6  C12 UNL     1      24.436   6.246  48.596  1.00  0.00     0.220 C 
BRANCH   6   7
HETATM    7  S1  UNL     1      26.097   6.888  48.197  1.00  0.00    -0.136 SA
HETATM    8  C13 UNL     1      27.445   5.990  48.464  1.00  0.00     0.020 C 
HETATM    9  C14 UNL     1      28.639   6.739  48.048  1.00  0.00     0.035 C 
HETATM   10  C15 UNL     1      29.853   5.873  48.271  1.00  0.00     0.017 C 
HETATM   11  C16 UNL     1      28.790   8.027  48.824  1.00  0.00     0.038 C 
HETATM   12  C17 UNL     1      27.685   8.975  48.610  1.00  0.00    -0.020 C 
HETATM   13  C18 UNL     1      26.415   8.685  48.323  1.00  0.00     0.037 C 
BRANCH   8  14
HETATM   14  N4  UNL     1      27.524   4.698  48.996  1.00  0.00    -0.301 NA
HETATM   15  H17 UNL     1      26.750   4.398  49.653  1.00  0.00     0.124 HD
HETATM   16  H18 UNL     1      27.446   3.784  49.463  1.00  0.00     0.124 HD
ENDBRANCH   8  14
ENDBRANCH   6   7
ENDBRANCH   5   6
BRANCH   1  17
HETATM   17  N1  UNL     1      22.908   7.097  51.060  1.00  0.00    -0.404 N 
HETATM   18  C1  UNL     1      21.670   6.384  51.043  1.00  0.00     0.142 C 
HETATM   19  H4  UNL     1      22.900   7.971  51.599  1.00  0.00     0.154 HD
ENDBRANCH   1  17
BRANCH   3  20
HETATM   20  C5  UNL     1      24.814   2.645  51.843  1.00  0.00    -0.009 A 
HETATM   21  C6  UNL     1      23.933   2.020  52.719  1.00  0.00     0.016 A 
HETATM   22  C7  UNL     1      24.263   0.767  53.183  1.00  0.00     0.037 A 
HETATM   23  C8  UNL     1      25.424   0.121  52.812  1.00  0.00     0.068 A 
HETATM   24  C10 UNL     1      26.304   0.726  51.948  1.00  0.00     0.037 A 
HETATM   25  C11 UNL     1      25.973   1.995  51.475  1.00  0.00     0.016 A 
BRANCH  23  26
HETATM   26  O1  UNL     1      25.807  -1.133  53.244  1.00  0.00    -0.356 OA
HETATM   27  C9  UNL     1      26.930  -1.783  52.686  1.00  0.00     0.210 C 
ENDBRANCH  23  26
ENDBRANCH   3  20
TORSDOF 6
ENDMDL
MODEL 8
REMARK VINA RESULT:      -7.0      3.183      4.175
REMARK  6 active torsions:
REMARK  status: ('A' for Active; 'I' for Inactive)
REMARK    1  A    between atoms: N1_2  and  C2_3 
REMARK    2  A    between atoms: C4_5  and  C5_6 
REMARK    3  A    between atoms: C8_9  and  O1_10 
REMARK    4  A    between atoms: N3_15  and  C12_16 
REMARK    5  A    between atoms: C12_16  and  S1_17 
REMARK    6  A    between atoms: C13_18  and  N4_19 
ROOT
HETATM    1  C2  UNL     1      23.640   0.605  52.313  1.00  0.00     0.203 C 
HETATM    2  C3  UNL     1      22.677   1.086  51.288  1.00  0.00     0.109 C 
HETATM    3  C4  UNL     1      23.376   2.218  50.652  1.00  0.00     0.068 C 
HETATM    4  N2  UNL     1      24.404   2.546  51.359  1.00  0.00    -0.178 NA
HETATM    5  N3  UNL     1      24.524   1.743  52.476  1.00  0.00    -0.273 N 
ENDROOT
BRANCH   5   6
HETATM    6  C12 UNL     1      25.444   2.168  53.507  1.00  0.00     0.220 C 
BRANCH   6   7
HETATM    7  S1  UNL     1      27.056   1.345  53.272  1.00  0.00    -0.136 SA
HETATM    8  C13 UNL     1      27.211  -0.283  53.415  1.00  0.00     0.020 C 
HETATM    9  C14 UNL     1      28.605  -0.678  53.168  1.00  0.00     0.035 C 
HETATM   10  C15 UNL     1      28.704  -2.180  53.271  1.00  0.00     0.017 C 
HETATM   11  C16 UNL     1      29.551  -0.043  54.161  1.00  0.00     0.038 C 
HETATM   12  C17 UNL     1      29.581   1.427  54.084  1.00  0.00    -0.020 C 
HETATM   13  C18 UNL     1      28.589   2.239  53.716  1.00  0.00     0.037 C 
BRANCH   8  14
HETATM   14  N4  UNL     1      26.213  -1.217  53.716  1.00  0.00    -0.301 NA
HETATM   15  H17 UNL     1      26.413  -1.901  54.499  1.00  0.00     0.124 HD
HETATM   16  H18 UNL     1      25.581  -1.957  54.051  1.00  0.00     0.124 HD
ENDBRANCH   8  14
ENDBRANCH   6   7
ENDBRANCH   5   6
BRANCH   1  17
HETATM   17  N1  UNL     1      23.057   0.318  53.592  1.00  0.00    -0.404 N 
HETATM   18  C1  UNL     1      22.268  -0.873  53.629  1.00  0.00     0.142 C 
HETATM   19  H4  UNL     1      23.675   0.456  54.400  1.00  0.00     0.154 HD
ENDBRANCH   1  17
BRANCH   3  20
HETATM   20  C5  UNL     1      22.938   2.857  49.396  1.00  0.00    -0.009 A 
HETATM   21  C6  UNL     1      22.215   2.151  48.441  1.00  0.00     0.016 A 
HETATM   22  C7  UNL     1      21.840   2.811  47.294  1.00  0.00     0.037 A 
HETATM   23  C8  UNL     1      22.156   4.134  47.064  1.00  0.00     0.068 A 
HETATM   24  C10 UNL     1      22.870   4.845  47.998  1.00  0.00     0.037 A 
HETATM   25  C11 UNL     1      23.251   4.179  49.161  1.00  0.00     0.016 A 
BRANCH  23  26
HETATM   26  O1  UNL     1      21.808   4.848  45.934  1.00  0.00    -0.356 OA
HETATM   27  C9  UNL     1      21.332   4.192  44.777  1.00  0.00     0.210 C 
ENDBRANCH  23  26
ENDBRANCH   3  20
TORSDOF 6
ENDMDL
MODEL 9
REMARK VINA RESULT:      -6.8      3.911      6.818
REMARK  6 active torsions:
REMARK  status: ('A' for Active; 'I' for Inactive)
REMARK    1  A    between atoms: N1_2  and  C2_3 
REMARK    2  A    between atoms: C4_5  and  C5_6 
REMARK    3  A    between atoms: C8_9  and  O1_10 
REMARK    4  A    between atoms: N3_15  and  C12_16 
REMARK    5  A    between atoms: C12_16  and  S1_17 
REMARK    6  A    between atoms: C13_18  and  N4_19 
ROOT
HETATM    1  C2  UNL     1      21.540   0.752  53.192  1.00  0.00     0.203 C 
HETATM    2  C3  UNL     1      22.800  -0.037  53.218  1.00  0.00     0.109 C 
HETATM    3  C4  UNL     1      23.852   0.969  52.980  1.00  0.00     0.068 C 
HETATM    4  N2  UNL     1      23.314   2.071  52.581  1.00  0.00    -0.178 NA
HETATM    5  N3  UNL     1      21.940   1.964  52.502  1.00  0.00    -0.273 N 
ENDROOT
BRANCH   5   6
HETATM    6  C12 UNL     1      21.229   3.007  51.799  1.00  0.00     0.220 C 
BRANCH   6   7
HETATM    7  S1  UNL     1      21.973   3.255  50.151  1.00  0.00    -0.136 SA
HETATM    8  C13 UNL     1      21.686   4.618  49.282  1.00  0.00     0.020 C 
HETATM    9  C14 UNL     1      22.412   4.562  48.005  1.00  0.00     0.035 C 
HETATM   10  C15 UNL     1      22.157   5.843  47.250  1.00  0.00     0.017 C 
HETATM   11  C16 UNL     1      21.972   3.386  47.163  1.00  0.00     0.038 C 
HETATM   12  C17 UNL     1      22.250   2.081  47.786  1.00  0.00    -0.020 C 
HETATM   13  C18 UNL     1      22.299   1.801  49.089  1.00  0.00     0.037 C 
BRANCH   8  14
HETATM   14  N4  UNL     1      20.891   5.713  49.640  1.00  0.00    -0.301 NA
HETATM   15  H17 UNL     1      20.169   6.035  48.936  1.00  0.00     0.124 HD
HETATM   16  H18 UNL     1      20.237   6.499  49.759  1.00  0.00     0.124 HD
ENDBRANCH   8  14
ENDBRANCH   6   7
ENDBRANCH   5   6
BRANCH   1  17
HETATM   17  N1  UNL     1      20.475   0.153  52.442  1.00  0.00    -0.404 N 
HETATM   18  C1  UNL     1      19.458  -0.455  53.241  1.00  0.00     0.142 C 
HETATM   19  H4  UNL     1      20.133   0.702  51.645  1.00  0.00     0.154 HD
ENDBRANCH   1  17
BRANCH   3  20
HETATM   20  C5  UNL     1      25.292   0.718  53.179  1.00  0.00    -0.009 A 
HETATM   21  C6  UNL     1      25.832  -0.553  53.021  1.00  0.00     0.016 A 
HETATM   22  C7  UNL     1      27.184  -0.712  53.222  1.00  0.00     0.037 A 
HETATM   23  C8  UNL     1      28.009   0.337  53.573  1.00  0.00     0.068 A 
HETATM   24  C10 UNL     1      27.490   1.599  53.733  1.00  0.00     0.037 A 
HETATM   25  C11 UNL     1      26.121   1.764  53.529  1.00  0.00     0.016 A 
BRANCH  23  26
HETATM   26  O1  UNL     1      29.369   0.238  53.788  1.00  0.00    -0.356 OA
HETATM   27  C9  UNL     1      30.035  -1.003  53.679  1.00  0.00     0.210 C 
ENDBRANCH  23  26
ENDBRANCH   3  20
TORSDOF 6
ENDMDL
