MODEL 1
REMARK VINA RESULT:      -8.7      0.000      0.000
REMARK  3 active torsions:
REMARK  status: ('A' for Active; 'I' for Inactive)
REMARK    1  A    between atoms: C1_2  and  O2_3 
REMARK    2  A    between atoms: C1_2  and  C2_4 
REMARK    3  A    between atoms: C12_17  and  N4_18 
ROOT
HETATM    1  C2  UNL     1      27.470   1.522  53.748  1.00  0.00     0.038 A 
HETATM    2  C3  UNL     1      27.272   0.419  54.586  1.00  0.00     0.021 A 
HETATM    3  C4  UNL     1      26.118  -0.325  54.446  1.00  0.00     0.039 A 
HETATM    4  C5  UNL     1      25.172   0.006  53.500  1.00  0.00     0.086 A 
HETATM    5  C6  UNL     1      25.335   1.102  52.644  1.00  0.00    -0.006 A 
HETATM    6  C7  UNL     1      26.513   1.840  52.805  1.00  0.00     0.029 A 
HETATM    7  C8  UNL     1      24.562   1.722  51.563  1.00  0.00     0.161 C 
HETATM    8  N1  UNL     1      23.154   1.420  51.577  1.00  0.00    -0.379 N 
HETATM    9  C9  UNL     1      22.314   0.636  52.408  1.00  0.00     0.128 A 
HETATM   10  C10 UNL     1      22.736  -0.374  53.249  1.00  0.00     0.202 A 
HETATM   11  N2  UNL     1      21.766  -1.013  53.967  1.00  0.00    -0.215 NA
HETATM   12  C11 UNL     1      20.482  -0.638  53.824  1.00  0.00     0.238 A 
HETATM   13  N3  UNL     1      20.109   0.355  52.991  1.00  0.00    -0.222 NA
HETATM   14  C12 UNL     1      21.010   1.026  52.255  1.00  0.00     0.158 A 
HETATM   15  O3  UNL     1      24.045  -0.841  53.470  1.00  0.00    -0.289 OA
HETATM   16  H7  UNL     1      22.647   1.889  50.796  1.00  0.00     0.160 HD
ENDROOT
BRANCH  14  17
HETATM   17  N4  UNL     1      20.567   2.064  51.393  1.00  0.00    -0.360 N 
HETATM   18  C13 UNL     1      20.125   2.055  49.994  1.00  0.00     0.153 C 
HETATM   19  C14 UNL     1      21.104   2.950  49.280  1.00  0.00     0.007 C 
HETATM   20  C15 UNL     1      21.242   4.135  49.873  1.00  0.00    -0.012 C 
HETATM   21 BR1  UNL     1      22.438   5.407  49.121  1.00  0.00    -0.056 Br
HETATM   22  C16 UNL     1      20.467   4.467  51.119  1.00  0.00     0.066 C 
HETATM   23  C17 UNL     1      20.589   3.318  52.111  1.00  0.00     0.130 C 
ENDBRANCH  14  17
BRANCH   1  24
HETATM   24  C1  UNL     1      28.685   2.312  53.888  1.00  0.00     0.176 C 
HETATM   25  O1  UNL     1      29.333   2.180  54.975  1.00  0.00    -0.646 OA
BRANCH  24  26
HETATM   26  O2  UNL     1      29.062   3.149  52.853  1.00  0.00    -0.773 OA
HETATM   27  H1  UNL     1      30.067   3.183  52.657  1.00  0.00     0.167 HD
ENDBRANCH  24  26
ENDBRANCH   1  24
TORSDOF 3
ENDMDL
MODEL 2
REMARK VINA RESULT:      -8.3      2.797      3.550
REMARK  3 active torsions:
REMARK  status: ('A' for Active; 'I' for Inactive)
REMARK    1  A    between atoms: C1_2  and  O2_3 
REMARK    2  A    between atoms: C1_2  and  C2_4 
REMARK    3  A    between atoms: C12_17  and  N4_18 
ROOT
HETATM    1  C2  UNL     1      27.433   0.363  53.250  1.00  0.00     0.038 A 
HETATM    2  C3  UNL     1      26.384  -0.368  53.816  1.00  0.00     0.021 A 
HETATM    3  C4  UNL     1      25.092  -0.108  53.404  1.00  0.00     0.039 A 
HETATM    4  C5  UNL     1      24.833   0.855  52.452  1.00  0.00     0.086 A 
HETATM    5  C6  UNL     1      25.857   1.606  51.863  1.00  0.00    -0.006 A 
HETATM    6  C7  UNL     1      27.157   1.323  52.297  1.00  0.00     0.029 A 
HETATM    7  C8  UNL     1      25.942   2.670  50.857  1.00  0.00     0.161 C 
HETATM    8  N1  UNL     1      24.723   3.412  50.659  1.00  0.00    -0.379 N 
HETATM    9  C9  UNL     1      23.421   3.352  51.216  1.00  0.00     0.128 A 
HETATM   10  C10 UNL     1      22.879   2.264  51.870  1.00  0.00     0.202 A 
HETATM   11  N2  UNL     1      21.603   2.406  52.334  1.00  0.00    -0.215 NA
HETATM   12  C11 UNL     1      20.953   3.568  52.135  1.00  0.00     0.238 A 
HETATM   13  N3  UNL     1      21.518   4.609  51.491  1.00  0.00    -0.222 NA
HETATM   14  C12 UNL     1      22.770   4.538  51.009  1.00  0.00     0.158 A 
HETATM   15  O3  UNL     1      23.470   1.013  52.128  1.00  0.00    -0.289 OA
HETATM   16  H7  UNL     1      24.836   4.161  49.942  1.00  0.00     0.160 HD
ENDROOT
BRANCH  14  17
HETATM   17  N4  UNL     1      23.319   5.664  50.339  1.00  0.00    -0.360 N 
HETATM   18  C13 UNL     1      23.156   6.164  48.969  1.00  0.00     0.153 C 
HETATM   19  C14 UNL     1      24.542   6.123  48.381  1.00  0.00     0.007 C 
HETATM   20  C15 UNL     1      25.445   6.728  49.153  1.00  0.00    -0.012 C 
HETATM   21 BR1  UNL     1      27.257   6.780  48.582  1.00  0.00    -0.056 Br
HETATM   22  C16 UNL     1      25.041   7.360  50.457  1.00  0.00     0.066 C 
HETATM   23  C17 UNL     1      24.181   6.383  51.248  1.00  0.00     0.130 C 
ENDBRANCH  14  17
BRANCH   1  24
HETATM   24  C1  UNL     1      28.798   0.095  53.679  1.00  0.00     0.176 C 
HETATM   25  O1  UNL     1      29.021  -1.041  54.208  1.00  0.00    -0.646 OA
BRANCH  24  26
HETATM   26  O2  UNL     1      29.762   1.070  53.493  1.00  0.00    -0.773 OA
HETATM   27  H1  UNL     1      29.431   1.945  53.076  1.00  0.00     0.167 HD
ENDBRANCH  24  26
ENDBRANCH   1  24
TORSDOF 3
ENDMDL
MODEL 3
REMARK VINA RESULT:      -8.0      2.634      3.987
REMARK  3 active torsions:
REMARK  status: ('A' for Active; 'I' for Inactive)
REMARK    1  A    between atoms: C1_2  and  O2_3 
REMARK    2  A    between atoms: C1_2  and  C2_4 
REMARK    3  A    between atoms: C12_17  and  N4_18 
ROOT
HETATM    1  C2  UNL     1      23.942  -0.518  54.118  1.00  0.00     0.038 A 
HETATM    2  C3  UNL     1      22.678  -0.969  54.510  1.00  0.00     0.021 A 
HETATM    3  C4  UNL     1      21.569  -0.534  53.813  1.00  0.00     0.039 A 
HETATM    4  C5  UNL     1      21.698   0.332  52.748  1.00  0.00     0.086 A 
HETATM    5  C6  UNL     1      22.946   0.805  52.327  1.00  0.00    -0.006 A 
HETATM    6  C7  UNL     1      24.055   0.348  53.049  1.00  0.00     0.029 A 
HETATM    7  C8  UNL     1      23.436   1.700  51.274  1.00  0.00     0.161 C 
HETATM    8  N1  UNL     1      22.455   2.620  50.758  1.00  0.00    -0.379 N 
HETATM    9  C9  UNL     1      21.086   2.868  51.030  1.00  0.00     0.128 A 
HETATM   10  C10 UNL     1      20.219   1.987  51.645  1.00  0.00     0.202 A 
HETATM   11  N2  UNL     1      18.934   2.416  51.814  1.00  0.00    -0.215 NA
HETATM   12  C11 UNL     1      18.584   3.642  51.382  1.00  0.00     0.238 A 
HETATM   13  N3  UNL     1      19.461   4.474  50.784  1.00  0.00    -0.222 NA
HETATM   14  C12 UNL     1      20.740   4.117  50.587  1.00  0.00     0.158 A 
HETATM   15  O3  UNL     1      20.483   0.693  52.130  1.00  0.00    -0.289 OA
HETATM   16  H7  UNL     1      22.852   3.240  50.020  1.00  0.00     0.160 HD
ENDROOT
BRANCH  14  17
HETATM   17  N4  UNL     1      21.625   5.030  49.954  1.00  0.00    -0.360 N 
HETATM   18  C13 UNL     1      21.896   5.311  48.539  1.00  0.00     0.153 C 
HETATM   19  C14 UNL     1      23.355   4.987  48.359  1.00  0.00     0.007 C 
HETATM   20  C15 UNL     1      24.129   5.587  49.264  1.00  0.00    -0.012 C 
HETATM   21 BR1  UNL     1      26.007   5.300  49.204  1.00  0.00    -0.056 Br
HETATM   22  C16 UNL     1      23.530   6.477  50.319  1.00  0.00     0.066 C 
HETATM   23  C17 UNL     1      22.345   5.770  50.964  1.00  0.00     0.130 C 
ENDBRANCH  14  17
BRANCH   1  24
HETATM   24  C1  UNL     1      25.117  -0.973  54.849  1.00  0.00     0.176 C 
HETATM   25  O1  UNL     1      26.230  -0.923  54.234  1.00  0.00    -0.646 OA
BRANCH  24  26
HETATM   26  O2  UNL     1      24.963  -1.429  56.146  1.00  0.00    -0.773 OA
HETATM   27  H1  UNL     1      25.042  -2.442  56.271  1.00  0.00     0.167 HD
ENDBRANCH  24  26
ENDBRANCH   1  24
TORSDOF 3
ENDMDL
MODEL 4
REMARK VINA RESULT:      -8.0      2.685      3.619
REMARK  3 active torsions:
REMARK  status: ('A' for Active; 'I' for Inactive)
REMARK    1  A    between atoms: C1_2  and  O2_3 
REMARK    2  A    between atoms: C1_2  and  C2_4 
REMARK    3  A    between atoms: C12_17  and  N4_18 
ROOT
HETATM    1  C2  UNL     1      27.473   0.244  53.208  1.00  0.00     0.038 A 
HETATM    2  C3  UNL     1      26.402  -0.466  53.761  1.00  0.00     0.021 A 
HETATM    3  C4  UNL     1      25.121  -0.172  53.341  1.00  0.00     0.039 A 
HETATM    4  C5  UNL     1      24.892   0.805  52.394  1.00  0.00     0.086 A 
HETATM    5  C6  UNL     1      25.939   1.535  51.819  1.00  0.00    -0.006 A 
HETATM    6  C7  UNL     1      27.229   1.217  52.260  1.00  0.00     0.029 A 
HETATM    7  C8  UNL     1      26.058   2.603  50.822  1.00  0.00     0.161 C 
HETATM    8  N1  UNL     1      24.859   3.377  50.621  1.00  0.00    -0.379 N 
HETATM    9  C9  UNL     1      23.552   3.345  51.167  1.00  0.00     0.128 A 
HETATM   10  C10 UNL     1      22.978   2.266  51.809  1.00  0.00     0.202 A 
HETATM   11  N2  UNL     1      21.702   2.436  52.264  1.00  0.00    -0.215 NA
HETATM   12  C11 UNL     1      21.083   3.614  52.070  1.00  0.00     0.238 A 
HETATM   13  N3  UNL     1      21.678   4.647  51.437  1.00  0.00    -0.222 NA
HETATM   14  C12 UNL     1      22.931   4.548  50.965  1.00  0.00     0.158 A 
HETATM   15  O3  UNL     1      23.536   0.999  52.062  1.00  0.00    -0.289 OA
HETATM   16  H7  UNL     1      24.996   4.129  49.910  1.00  0.00     0.160 HD
ENDROOT
BRANCH  14  17
HETATM   17  N4  UNL     1      23.513   5.665  50.306  1.00  0.00    -0.360 N 
HETATM   18  C13 UNL     1      24.315   6.788  50.805  1.00  0.00     0.153 C 
HETATM   19  C14 UNL     1      23.502   8.011  50.476  1.00  0.00     0.007 C 
HETATM   20  C15 UNL     1      23.121   8.047  49.199  1.00  0.00    -0.012 C 
HETATM   21 BR1  UNL     1      22.082   9.517  48.588  1.00  0.00    -0.056 Br
HETATM   22  C16 UNL     1      23.505   6.943  48.251  1.00  0.00     0.066 C 
HETATM   23  C17 UNL     1      23.206   5.597  48.896  1.00  0.00     0.130 C 
ENDBRANCH  14  17
BRANCH   1  24
HETATM   24  C1  UNL     1      28.829  -0.062  53.645  1.00  0.00     0.176 C 
HETATM   25  O1  UNL     1      29.031  -1.226  54.117  1.00  0.00    -0.646 OA
BRANCH  24  26
HETATM   26  O2  UNL     1      29.805   0.911  53.527  1.00  0.00    -0.773 OA
HETATM   27  H1  UNL     1      29.709   1.713  54.158  1.00  0.00     0.167 HD
ENDBRANCH  24  26
ENDBRANCH   1  24
TORSDOF 3
ENDMDL
MODEL 5
REMARK VINA RESULT:      -7.9      3.854      7.248
REMARK  3 active torsions:
REMARK  status: ('A' for Active; 'I' for Inactive)
REMARK    1  A    between atoms: C1_2  and  O2_3 
REMARK    2  A    between atoms: C1_2  and  C2_4 
REMARK    3  A    between atoms: C12_17  and  N4_18 
ROOT
HETATM    1  C2  UNL     1      18.551   0.313  51.040  1.00  0.00     0.038 A 
HETATM    2  C3  UNL     1      18.015  -0.482  52.058  1.00  0.00     0.021 A 
HETATM    3  C4  UNL     1      18.756  -0.687  53.204  1.00  0.00     0.039 A 
HETATM    4  C5  UNL     1      20.006  -0.122  53.350  1.00  0.00     0.086 A 
HETATM    5  C6  UNL     1      20.574   0.680  52.352  1.00  0.00    -0.006 A 
HETATM    6  C7  UNL     1      19.803   0.873  51.201  1.00  0.00     0.029 A 
HETATM    7  C8  UNL     1      21.832   1.414  52.177  1.00  0.00     0.161 C 
HETATM    8  N1  UNL     1      22.919   0.956  53.005  1.00  0.00    -0.379 N 
HETATM    9  C9  UNL     1      23.063  -0.059  53.984  1.00  0.00     0.128 A 
HETATM   10  C10 UNL     1      22.030  -0.660  54.674  1.00  0.00     0.202 A 
HETATM   11  N2  UNL     1      22.379  -1.620  55.580  1.00  0.00    -0.215 NA
HETATM   12  C11 UNL     1      23.679  -1.924  55.752  1.00  0.00     0.238 A 
HETATM   13  N3  UNL     1      24.661  -1.314  55.057  1.00  0.00    -0.222 NA
HETATM   14  C12 UNL     1      24.388  -0.362  54.150  1.00  0.00     0.158 A 
HETATM   15  O3  UNL     1      20.648  -0.416  54.570  1.00  0.00    -0.289 OA
HETATM   16  H7  UNL     1      23.791   1.502  52.839  1.00  0.00     0.160 HD
ENDROOT
BRANCH  14  17
HETATM   17  N4  UNL     1      25.458   0.250  53.444  1.00  0.00    -0.360 N 
HETATM   18  C13 UNL     1      26.000   0.026  52.099  1.00  0.00     0.153 C 
HETATM   19  C14 UNL     1      27.428  -0.394  52.328  1.00  0.00     0.007 C 
HETATM   20  C15 UNL     1      28.088   0.446  53.124  1.00  0.00    -0.012 C 
HETATM   21 BR1  UNL     1      29.909   0.086  53.536  1.00  0.00    -0.056 Br
HETATM   22  C16 UNL     1      27.408   1.662  53.692  1.00  0.00     0.066 C 
HETATM   23  C17 UNL     1      26.062   1.260  54.281  1.00  0.00     0.130 C 
ENDBRANCH  14  17
BRANCH   1  24
HETATM   24  C1  UNL     1      17.775   0.535  49.828  1.00  0.00     0.176 C 
HETATM   25  O1  UNL     1      17.841   1.694  49.307  1.00  0.00    -0.646 OA
BRANCH  24  26
HETATM   26  O2  UNL     1      17.021  -0.506  49.316  1.00  0.00    -0.773 OA
HETATM   27  H1  UNL     1      16.343  -0.921  49.964  1.00  0.00     0.167 HD
ENDBRANCH  24  26
ENDBRANCH   1  24
TORSDOF 3
ENDMDL
MODEL 6
REMARK VINA RESULT:      -7.8      2.740      5.981
REMARK  3 active torsions:
REMARK  status: ('A' for Active; 'I' for Inactive)
REMARK    1  A    between atoms: C1_2  and  O2_3 
REMARK    2  A    between atoms: C1_2  and  C2_4 
REMARK    3  A    between atoms: C12_17  and  N4_18 
ROOT
HETATM    1  C2  UNL     1      19.695  -0.570  53.237  1.00  0.00     0.038 A 
HETATM    2  C3  UNL     1      20.595  -1.455  53.840  1.00  0.00     0.021 A 
HETATM    3  C4  UNL     1      21.914  -1.072  53.978  1.00  0.00     0.039 A 
HETATM    4  C5  UNL     1      22.344   0.159  53.531  1.00  0.00     0.086 A 
HETATM    5  C6  UNL     1      21.472   1.070  52.923  1.00  0.00    -0.006 A 
HETATM    6  C7  UNL     1      20.141   0.659  52.795  1.00  0.00     0.029 A 
HETATM    7  C8  UNL     1      21.582   2.416  52.351  1.00  0.00     0.161 C 
HETATM    8  N1  UNL     1      22.915   2.797  51.955  1.00  0.00    -0.379 N 
HETATM    9  C9  UNL     1      24.183   2.165  51.998  1.00  0.00     0.128 A 
HETATM   10  C10 UNL     1      24.520   1.099  52.806  1.00  0.00     0.202 A 
HETATM   11  N2  UNL     1      25.799   0.633  52.698  1.00  0.00    -0.215 NA
HETATM   12  C11 UNL     1      26.646   1.222  51.833  1.00  0.00     0.238 A 
HETATM   13  N3  UNL     1      26.278   2.264  51.060  1.00  0.00    -0.222 NA
HETATM   14  C12 UNL     1      25.036   2.771  51.115  1.00  0.00     0.158 A 
HETATM   15  O3  UNL     1      23.715   0.416  53.737  1.00  0.00    -0.289 OA
HETATM   16  H7  UNL     1      22.940   3.757  51.547  1.00  0.00     0.160 HD
ENDROOT
BRANCH  14  17
HETATM   17  N4  UNL     1      24.698   3.869  50.278  1.00  0.00    -0.360 N 
HETATM   18  C13 UNL     1      25.005   5.301  50.368  1.00  0.00     0.153 C 
HETATM   19  C14 UNL     1      23.661   5.973  50.466  1.00  0.00     0.007 C 
HETATM   20  C15 UNL     1      22.822   5.584  49.507  1.00  0.00    -0.012 C 
HETATM   21 BR1  UNL     1      21.070   6.320  49.462  1.00  0.00    -0.056 Br
HETATM   22  C16 UNL     1      23.248   4.577  48.474  1.00  0.00     0.066 C 
HETATM   23  C17 UNL     1      23.909   3.392  49.166  1.00  0.00     0.130 C 
ENDBRANCH  14  17
BRANCH   1  24
HETATM   24  C1  UNL     1      18.301  -0.967  53.088  1.00  0.00     0.176 C 
HETATM   25  O1  UNL     1      17.805  -0.891  51.919  1.00  0.00    -0.646 OA
BRANCH  24  26
HETATM   26  O2  UNL     1      17.605  -1.396  54.204  1.00  0.00    -0.773 OA
HETATM   27  H1  UNL     1      18.072  -1.242  55.102  1.00  0.00     0.167 HD
ENDBRANCH  24  26
ENDBRANCH   1  24
TORSDOF 3
ENDMDL
MODEL 7
REMARK VINA RESULT:      -7.8      2.882      5.372
REMARK  3 active torsions:
REMARK  status: ('A' for Active; 'I' for Inactive)
REMARK    1  A    between atoms: C1_2  and  O2_3 
REMARK    2  A    between atoms: C1_2  and  C2_4 
REMARK    3  A    between atoms: C12_17  and  N4_18 
ROOT
HETATM    1  C2  UNL     1      22.336  -0.256  53.843  1.00  0.00     0.038 A 
HETATM    2  C3  UNL     1      23.668  -0.662  53.965  1.00  0.00     0.021 A 
HETATM    3  C4  UNL     1      24.666   0.181  53.518  1.00  0.00     0.039 A 
HETATM    4  C5  UNL     1      24.361   1.404  52.959  1.00  0.00     0.086 A 
HETATM    5  C6  UNL     1      23.039   1.844  52.821  1.00  0.00    -0.006 A 
HETATM    6  C7  UNL     1      22.047   0.972  53.282  1.00  0.00     0.029 A 
HETATM    7  C8  UNL     1      22.374   3.040  52.294  1.00  0.00     0.161 C 
HETATM    8  N1  UNL     1      23.161   3.808  51.363  1.00  0.00    -0.379 N 
HETATM    9  C9  UNL     1      24.467   3.683  50.826  1.00  0.00     0.128 A 
HETATM   10  C10 UNL     1      25.492   2.938  51.375  1.00  0.00     0.202 A 
HETATM   11  N2  UNL     1      26.680   2.949  50.704  1.00  0.00    -0.215 NA
HETATM   12  C11 UNL     1      26.793   3.666  49.570  1.00  0.00     0.238 A 
HETATM   13  N3  UNL     1      25.767   4.381  49.064  1.00  0.00    -0.222 NA
HETATM   14  C12 UNL     1      24.571   4.415  49.674  1.00  0.00     0.158 A 
HETATM   15  O3  UNL     1      25.478   2.160  52.548  1.00  0.00    -0.289 OA
HETATM   16  H7  UNL     1      22.644   4.642  51.010  1.00  0.00     0.160 HD
ENDROOT
BRANCH  14  17
HETATM   17  N4  UNL     1      23.522   5.183  49.100  1.00  0.00    -0.360 N 
HETATM   18  C13 UNL     1      23.105   6.576  49.300  1.00  0.00     0.153 C 
HETATM   19  C14 UNL     1      21.693   6.479  49.816  1.00  0.00     0.007 C 
HETATM   20  C15 UNL     1      20.919   5.709  49.051  1.00  0.00    -0.012 C 
HETATM   21 BR1  UNL     1      19.099   5.461  49.538  1.00  0.00    -0.056 Br
HETATM   22  C16 UNL     1      21.473   5.044  47.820  1.00  0.00     0.066 C 
HETATM   23  C17 UNL     1      22.790   4.362  48.164  1.00  0.00     0.130 C 
ENDBRANCH  14  17
BRANCH   1  24
HETATM   24  C1  UNL     1      21.278  -1.140  54.312  1.00  0.00     0.176 C 
HETATM   25  O1  UNL     1      21.631  -2.124  55.037  1.00  0.00    -0.646 OA
BRANCH  24  26
HETATM   26  O2  UNL     1      19.970  -0.868  53.952  1.00  0.00    -0.773 OA
HETATM   27  H1  UNL     1      19.489  -0.171  54.528  1.00  0.00     0.167 HD
ENDBRANCH  24  26
ENDBRANCH   1  24
TORSDOF 3
ENDMDL
MODEL 8
REMARK VINA RESULT:      -7.6      5.363      6.945
REMARK  3 active torsions:
REMARK  status: ('A' for Active; 'I' for Inactive)
REMARK    1  A    between atoms: C1_2  and  O2_3 
REMARK    2  A    between atoms: C1_2  and  C2_4 
REMARK    3  A    between atoms: C12_17  and  N4_18 
ROOT
HETATM    1  C2  UNL     1      26.274   1.378  52.155  1.00  0.00     0.038 A 
HETATM    2  C3  UNL     1      25.027   1.619  52.739  1.00  0.00     0.021 A 
HETATM    3  C4  UNL     1      24.271   2.679  52.281  1.00  0.00     0.039 A 
HETATM    4  C5  UNL     1      24.731   3.491  51.266  1.00  0.00     0.086 A 
HETATM    5  C6  UNL     1      25.974   3.280  50.657  1.00  0.00    -0.006 A 
HETATM    6  C7  UNL     1      26.721   2.198  51.139  1.00  0.00     0.029 A 
HETATM    7  C8  UNL     1      26.750   3.920  49.591  1.00  0.00     0.161 C 
HETATM    8  N1  UNL     1      26.388   5.288  49.319  1.00  0.00    -0.379 N 
HETATM    9  C9  UNL     1      25.426   6.185  49.846  1.00  0.00     0.128 A 
HETATM   10  C10 UNL     1      24.296   5.824  50.552  1.00  0.00     0.202 A 
HETATM   11  N2  UNL     1      23.491   6.842  50.976  1.00  0.00    -0.215 NA
HETATM   12  C11 UNL     1      23.828   8.113  50.691  1.00  0.00     0.238 A 
HETATM   13  N3  UNL     1      24.942   8.426  49.998  1.00  0.00    -0.222 NA
HETATM   14  C12 UNL     1      25.779   7.475  49.552  1.00  0.00     0.158 A 
HETATM   15  O3  UNL     1      23.855   4.533  50.900  1.00  0.00    -0.289 OA
HETATM   16  H7  UNL     1      26.972   5.702  48.560  1.00  0.00     0.160 HD
ENDROOT
BRANCH  14  17
HETATM   17  N4  UNL     1      26.940   7.857  48.828  1.00  0.00    -0.360 N 
HETATM   18  C13 UNL     1      27.386   7.556  47.462  1.00  0.00     0.153 C 
HETATM   19  C14 UNL     1      28.692   6.829  47.641  1.00  0.00     0.007 C 
HETATM   20  C15 UNL     1      29.540   7.483  48.434  1.00  0.00    -0.012 C 
HETATM   21 BR1  UNL     1      31.247   6.723  48.784  1.00  0.00    -0.056 Br
HETATM   22  C16 UNL     1      29.156   8.803  49.047  1.00  0.00     0.066 C 
HETATM   23  C17 UNL     1      27.770   8.688  49.668  1.00  0.00     0.130 C 
ENDBRANCH  14  17
BRANCH   1  24
HETATM   24  C1  UNL     1      27.078   0.261  52.632  1.00  0.00     0.176 C 
HETATM   25  O1  UNL     1      28.045   0.541  53.411  1.00  0.00    -0.646 OA
BRANCH  24  26
HETATM   26  O2  UNL     1      26.755  -1.020  52.221  1.00  0.00    -0.773 OA
HETATM   27  H1  UNL     1      27.531  -1.572  51.844  1.00  0.00     0.167 HD
ENDBRANCH  24  26
ENDBRANCH   1  24
TORSDOF 3
ENDMDL
MODEL 9
REMARK VINA RESULT:      -7.6      3.143      4.769
REMARK  3 active torsions:
REMARK  status: ('A' for Active; 'I' for Inactive)
REMARK    1  A    between atoms: C1_2  and  O2_3 
REMARK    2  A    between atoms: C1_2  and  C2_4 
REMARK    3  A    between atoms: C12_17  and  N4_18 
ROOT
HETATM    1  C2  UNL     1      24.736  -0.091  53.982  1.00  0.00     0.038 A 
HETATM    2  C3  UNL     1      23.425  -0.549  53.818  1.00  0.00     0.021 A 
HETATM    3  C4  UNL     1      22.648  -0.001  52.817  1.00  0.00     0.039 A 
HETATM    4  C5  UNL     1      23.149   0.983  51.991  1.00  0.00     0.086 A 
HETATM    5  C6  UNL     1      24.457   1.466  52.125  1.00  0.00    -0.006 A 
HETATM    6  C7  UNL     1      25.224   0.893  53.146  1.00  0.00     0.029 A 
HETATM    7  C8  UNL     1      25.288   2.466  51.448  1.00  0.00     0.161 C 
HETATM    8  N1  UNL     1      24.553   3.470  50.722  1.00  0.00    -0.379 N 
HETATM    9  C9  UNL     1      23.177   3.723  50.492  1.00  0.00     0.128 A 
HETATM   10  C10 UNL     1      22.159   2.801  50.629  1.00  0.00     0.202 A 
HETATM   11  N2  UNL     1      20.896   3.244  50.359  1.00  0.00    -0.215 NA
HETATM   12  C11 UNL     1      20.710   4.523  49.982  1.00  0.00     0.238 A 
HETATM   13  N3  UNL     1      21.732   5.395  49.859  1.00  0.00    -0.222 NA
HETATM   14  C12 UNL     1      22.999   5.026  50.110  1.00  0.00     0.158 A 
HETATM   15  O3  UNL     1      22.246   1.451  51.015  1.00  0.00    -0.289 OA
HETATM   16  H7  UNL     1      25.186   4.162  50.265  1.00  0.00     0.160 HD
ENDROOT
BRANCH  14  17
HETATM   17  N4  UNL     1      24.040   5.982  49.967  1.00  0.00    -0.360 N 
HETATM   18  C13 UNL     1      24.601   6.968  50.899  1.00  0.00     0.153 C 
HETATM   19  C14 UNL     1      24.353   8.298  50.240  1.00  0.00     0.007 C 
HETATM   20  C15 UNL     1      24.781   8.334  48.978  1.00  0.00    -0.012 C 
HETATM   21 BR1  UNL     1      24.556   9.932  47.974  1.00  0.00    -0.056 Br
HETATM   22  C16 UNL     1      25.432   7.130  48.353  1.00  0.00     0.066 C 
HETATM   23  C17 UNL     1      24.584   5.895  48.632  1.00  0.00     0.130 C 
ENDBRANCH  14  17
BRANCH   1  24
HETATM   24  C1  UNL     1      25.562  -0.665  55.035  1.00  0.00     0.176 C 
HETATM   25  O1  UNL     1      26.819  -0.491  54.938  1.00  0.00    -0.646 OA
BRANCH  24  26
HETATM   26  O2  UNL     1      24.949  -1.357  56.065  1.00  0.00    -0.773 OA
HETATM   27  H1  UNL     1      25.047  -0.941  56.996  1.00  0.00     0.167 HD
ENDBRANCH  24  26
ENDBRANCH   1  24
TORSDOF 3
ENDMDL
