MODEL 1
REMARK VINA RESULT:      -9.9      0.000      0.000
REMARK  1 active torsions:
REMARK  status: ('A' for Active; 'I' for Inactive)
REMARK    1  A    between atoms: C4_4  and  C5_5 
ROOT
HETATM    1  C5  UNL     1      23.707  -0.821  54.494  1.00  0.00     0.096 C 
HETATM    2  N1  UNL     1      23.755  -1.088  55.787  1.00  0.00    -0.177 NA
HETATM    3  N2  UNL     1      25.078  -1.162  56.227  1.00  0.00    -0.295 N 
HETATM    4  C6  UNL     1      25.560  -0.110  55.395  1.00  0.00     0.228 C 
HETATM    5  C7  UNL     1      27.028   0.065  55.313  1.00  0.00     0.247 C 
HETATM    6  O1  UNL     1      27.215   1.241  54.933  1.00  0.00    -0.271 OA
HETATM    7  N3  UNL     1      28.488  -0.086  55.360  1.00  0.00    -0.351 N 
HETATM    8  C8  UNL     1      29.300   0.495  54.173  1.00  0.00     0.115 C 
HETATM    9  C9  UNL     1      29.027   1.869  53.854  1.00  0.00     0.037 C 
HETATM   10  C10 UNL     1      28.608  -0.444  53.096  1.00  0.00    -0.010 A 
HETATM   11  C11 UNL     1      29.212  -1.680  53.103  1.00  0.00     0.030 A 
HETATM   12  C12 UNL     1      28.441  -2.806  52.728  1.00  0.00     0.118 A 
HETATM   13  N4  UNL     1      27.138  -2.493  52.402  1.00  0.00    -0.259 NA
HETATM   14  C13 UNL     1      26.895  -1.153  52.507  1.00  0.00     0.079 A 
HETATM   15  C14 UNL     1      27.381   0.071  52.792  1.00  0.00     0.071 A 
HETATM   16 CL1  UNL     1      26.075   1.170  52.458  1.00  0.00    -0.081 Cl
HETATM   17  C15 UNL     1      25.397  -1.283  52.774  1.00  0.00     0.045 C 
HETATM   18  C16 UNL     1      25.136  -0.767  54.055  1.00  0.00     0.009 C 
HETATM   19  H5  UNL     1      25.340  -1.865  56.956  1.00  0.00     0.183 HD
HETATM   20  H7  UNL     1      28.682  -0.592  56.244  1.00  0.00     0.163 HD
ENDROOT
BRANCH   1  21
HETATM   21  C4  UNL     1      22.366  -0.699  53.832  1.00  0.00    -0.002 A 
HETATM   22  C3  UNL     1      22.203  -0.060  52.641  1.00  0.00     0.040 A 
HETATM   23  C2  UNL     1      20.992   0.055  51.969  1.00  0.00     0.031 A 
HETATM   24  C1  UNL     1      20.897   0.769  50.674  1.00  0.00     0.070 C 
HETATM   25  N5  UNL     1      19.915  -0.514  52.556  1.00  0.00    -0.266 NA
HETATM   26  C18 UNL     1      20.078  -1.154  53.746  1.00  0.00     0.118 A 
HETATM   27  C17 UNL     1      21.269  -1.266  54.406  1.00  0.00     0.033 A 
ENDBRANCH   1  21
TORSDOF 1
ENDMDL
MODEL 2
REMARK VINA RESULT:      -8.8      3.879      6.533
REMARK  1 active torsions:
REMARK  status: ('A' for Active; 'I' for Inactive)
REMARK    1  A    between atoms: C4_4  and  C5_5 
ROOT
HETATM    1  C5  UNL     1      26.526   1.206  53.162  1.00  0.00     0.096 C 
HETATM    2  N1  UNL     1      26.704   1.832  54.312  1.00  0.00    -0.177 NA
HETATM    3  N2  UNL     1      26.113   3.096  54.284  1.00  0.00    -0.295 N 
HETATM    4  C6  UNL     1      24.980   2.702  53.514  1.00  0.00     0.228 C 
HETATM    5  C7  UNL     1      24.113   3.782  52.989  1.00  0.00     0.247 C 
HETATM    6  O1  UNL     1      23.005   3.254  52.756  1.00  0.00    -0.271 OA
HETATM    7  N3  UNL     1      23.532   5.053  52.537  1.00  0.00    -0.351 N 
HETATM    8  C8  UNL     1      22.658   5.018  51.256  1.00  0.00     0.115 C 
HETATM    9  C9  UNL     1      21.600   4.046  51.259  1.00  0.00     0.037 C 
HETATM   10  C10 UNL     1      23.841   4.506  50.329  1.00  0.00    -0.010 A 
HETATM   11  C11 UNL     1      24.625   5.570  49.949  1.00  0.00     0.030 A 
HETATM   12  C12 UNL     1      25.993   5.332  49.674  1.00  0.00     0.118 A 
HETATM   13  N4  UNL     1      26.363   4.014  49.840  1.00  0.00    -0.259 NA
HETATM   14  C13 UNL     1      25.309   3.234  50.224  1.00  0.00     0.079 A 
HETATM   15  C14 UNL     1      23.998   3.163  50.522  1.00  0.00     0.071 A 
HETATM   16 CL1  UNL     1      23.683   1.476  50.803  1.00  0.00    -0.081 Cl
HETATM   17  C15 UNL     1      26.147   2.175  50.938  1.00  0.00     0.045 C 
HETATM   18  C16 UNL     1      25.793   2.183  52.299  1.00  0.00     0.009 C 
HETATM   19  H5  UNL     1      26.582   3.895  54.770  1.00  0.00     0.183 HD
HETATM   20  H7  UNL     1      23.858   5.761  53.220  1.00  0.00     0.163 HD
ENDROOT
BRANCH   1  21
HETATM   21  C4  UNL     1      27.089  -0.174  52.997  1.00  0.00    -0.002 A 
HETATM   22  C3  UNL     1      28.346  -0.496  53.408  1.00  0.00     0.040 A 
HETATM   23  C2  UNL     1      28.906  -1.765  53.308  1.00  0.00     0.031 A 
HETATM   24  C1  UNL     1      30.285  -2.034  53.779  1.00  0.00     0.070 C 
HETATM   25  N5  UNL     1      28.132  -2.729  52.764  1.00  0.00    -0.266 NA
HETATM   26  C18 UNL     1      26.875  -2.408  52.354  1.00  0.00     0.118 A 
HETATM   27  C17 UNL     1      26.325  -1.161  52.451  1.00  0.00     0.033 A 
ENDBRANCH   1  21
TORSDOF 1
ENDMDL
MODEL 3
REMARK VINA RESULT:      -8.7      5.197      7.317
REMARK  1 active torsions:
REMARK  status: ('A' for Active; 'I' for Inactive)
REMARK    1  A    between atoms: C4_4  and  C5_5 
ROOT
HETATM    1  C5  UNL     1      24.576   3.041  52.801  1.00  0.00     0.096 C 
HETATM    2  N1  UNL     1      24.207   3.896  53.738  1.00  0.00    -0.177 NA
HETATM    3  N2  UNL     1      23.771   5.095  53.168  1.00  0.00    -0.295 N 
HETATM    4  C6  UNL     1      23.134   4.491  52.046  1.00  0.00     0.228 C 
HETATM    5  C7  UNL     1      22.688   5.392  50.959  1.00  0.00     0.247 C 
HETATM    6  O1  UNL     1      21.805   4.768  50.332  1.00  0.00    -0.271 OA
HETATM    7  N3  UNL     1      22.466   6.511  50.033  1.00  0.00    -0.351 N 
HETATM    8  C8  UNL     1      22.320   6.167  48.527  1.00  0.00     0.115 C 
HETATM    9  C9  UNL     1      21.344   5.160  48.217  1.00  0.00     0.037 C 
HETATM   10  C10 UNL     1      23.776   5.542  48.416  1.00  0.00    -0.010 A 
HETATM   11  C11 UNL     1      24.700   6.548  48.254  1.00  0.00     0.030 A 
HETATM   12  C12 UNL     1      26.016   6.333  48.731  1.00  0.00     0.118 A 
HETATM   13  N4  UNL     1      26.189   5.099  49.321  1.00  0.00    -0.259 NA
HETATM   14  C13 UNL     1      25.042   4.358  49.297  1.00  0.00     0.079 A 
HETATM   15  C14 UNL     1      23.749   4.278  48.931  1.00  0.00     0.071 A 
HETATM   16 CL1  UNL     1      23.250   2.669  49.362  1.00  0.00    -0.081 Cl
HETATM   17  C15 UNL     1      25.373   3.513  50.527  1.00  0.00     0.045 C 
HETATM   18  C16 UNL     1      24.405   3.780  51.511  1.00  0.00     0.009 C 
HETATM   19  H5  UNL     1      23.987   6.000  53.646  1.00  0.00     0.183 HD
HETATM   20  H7  UNL     1      22.456   7.359  50.627  1.00  0.00     0.163 HD
ENDROOT
BRANCH   1  21
HETATM   21  C4  UNL     1      25.076   1.689  53.215  1.00  0.00    -0.002 A 
HETATM   22  C3  UNL     1      26.303   1.512  53.776  1.00  0.00     0.040 A 
HETATM   23  C2  UNL     1      26.803   0.288  54.207  1.00  0.00     0.031 A 
HETATM   24  C1  UNL     1      28.153   0.179  54.809  1.00  0.00     0.070 C 
HETATM   25  N5  UNL     1      25.998  -0.786  54.048  1.00  0.00    -0.266 NA
HETATM   26  C18 UNL     1      24.771  -0.610  53.488  1.00  0.00     0.118 A 
HETATM   27  C17 UNL     1      24.280   0.593  53.064  1.00  0.00     0.033 A 
ENDBRANCH   1  21
TORSDOF 1
ENDMDL
MODEL 4
REMARK VINA RESULT:      -8.7      4.395      7.395
REMARK  1 active torsions:
REMARK  status: ('A' for Active; 'I' for Inactive)
REMARK    1  A    between atoms: C4_4  and  C5_5 
ROOT
HETATM    1  C5  UNL     1      25.867   2.309  51.322  1.00  0.00     0.096 C 
HETATM    2  N1  UNL     1      26.857   2.847  50.632  1.00  0.00    -0.177 NA
HETATM    3  N2  UNL     1      26.370   3.781  49.716  1.00  0.00    -0.295 N 
HETATM    4  C6  UNL     1      25.341   4.284  50.564  1.00  0.00     0.228 C 
HETATM    5  C7  UNL     1      24.339   5.183  49.948  1.00  0.00     0.247 C 
HETATM    6  O1  UNL     1      23.835   5.835  50.887  1.00  0.00    -0.271 OA
HETATM    7  N3  UNL     1      23.467   5.939  49.038  1.00  0.00    -0.351 N 
HETATM    8  C8  UNL     1      21.993   6.143  49.475  1.00  0.00     0.115 C 
HETATM    9  C9  UNL     1      21.810   6.691  50.790  1.00  0.00     0.037 C 
HETATM   10  C10 UNL     1      21.670   4.589  49.502  1.00  0.00    -0.010 A 
HETATM   11  C11 UNL     1      21.393   4.151  48.229  1.00  0.00     0.030 A 
HETATM   12  C12 UNL     1      21.677   2.802  47.906  1.00  0.00     0.118 A 
HETATM   13  N4  UNL     1      22.221   2.091  48.954  1.00  0.00    -0.259 NA
HETATM   14  C13 UNL     1      22.350   2.859  50.077  1.00  0.00     0.079 A 
HETATM   15  C14 UNL     1      22.168   4.060  50.659  1.00  0.00     0.071 A 
HETATM   16 CL1  UNL     1      22.645   3.842  52.317  1.00  0.00    -0.081 Cl
HETATM   17  C15 UNL     1      23.510   2.068  50.679  1.00  0.00     0.045 C 
HETATM   18  C16 UNL     1      24.624   2.922  50.760  1.00  0.00     0.009 C 
HETATM   19  H5  UNL     1      26.823   3.867  48.777  1.00  0.00     0.183 HD
HETATM   20  H7  UNL     1      24.068   6.193  48.232  1.00  0.00     0.163 HD
ENDROOT
BRANCH   1  21
HETATM   21  C4  UNL     1      26.190   1.279  52.363  1.00  0.00    -0.002 A 
HETATM   22  C3  UNL     1      26.546   0.006  52.036  1.00  0.00     0.040 A 
HETATM   23  C2  UNL     1      26.885  -0.978  52.958  1.00  0.00     0.031 A 
HETATM   24  C1  UNL     1      27.261  -2.343  52.520  1.00  0.00     0.070 C 
HETATM   25  N5  UNL     1      26.854  -0.626  54.262  1.00  0.00    -0.266 NA
HETATM   26  C18 UNL     1      26.500   0.647  54.590  1.00  0.00     0.118 A 
HETATM   27  C17 UNL     1      26.165   1.614  53.684  1.00  0.00     0.033 A 
ENDBRANCH   1  21
TORSDOF 1
ENDMDL
MODEL 5
REMARK VINA RESULT:      -8.4      8.295      9.693
REMARK  1 active torsions:
REMARK  status: ('A' for Active; 'I' for Inactive)
REMARK    1  A    between atoms: C4_4  and  C5_5 
ROOT
HETATM    1  C5  UNL     1      25.780   7.019  49.212  1.00  0.00     0.096 C 
HETATM    2  N1  UNL     1      25.592   7.561  50.403  1.00  0.00    -0.177 NA
HETATM    3  N2  UNL     1      26.760   8.181  50.852  1.00  0.00    -0.295 N 
HETATM    4  C6  UNL     1      27.159   8.668  49.573  1.00  0.00     0.228 C 
HETATM    5  C7  UNL     1      28.525   9.230  49.463  1.00  0.00     0.247 C 
HETATM    6  O1  UNL     1      28.514   9.970  48.456  1.00  0.00    -0.271 OA
HETATM    7  N3  UNL     1      29.930   9.614  49.652  1.00  0.00    -0.351 N 
HETATM    8  C8  UNL     1      30.832   9.650  48.391  1.00  0.00     0.115 C 
HETATM    9  C9  UNL     1      30.325  10.425  47.293  1.00  0.00     0.037 C 
HETATM   10  C10 UNL     1      30.643   8.105  48.077  1.00  0.00    -0.010 A 
HETATM   11  C11 UNL     1      31.501   7.365  48.857  1.00  0.00     0.030 A 
HETATM   12  C12 UNL     1      31.121   6.048  49.210  1.00  0.00     0.118 A 
HETATM   13  N4  UNL     1      29.891   5.681  48.708  1.00  0.00    -0.259 NA
HETATM   14  C13 UNL     1      29.324   6.680  47.968  1.00  0.00     0.079 A 
HETATM   15  C14 UNL     1      29.432   7.927  47.472  1.00  0.00     0.071 A 
HETATM   16 CL1  UNL     1      28.017   8.151  46.487  1.00  0.00    -0.081 Cl
HETATM   17  C15 UNL     1      27.877   6.246  48.197  1.00  0.00     0.045 C 
HETATM   18  C16 UNL     1      27.218   7.276  48.891  1.00  0.00     0.009 C 
HETATM   19  H5  UNL     1      27.006   8.142  51.868  1.00  0.00     0.183 HD
HETATM   20  H7  UNL     1      30.030   9.790  50.669  1.00  0.00     0.163 HD
ENDROOT
BRANCH   1  21
HETATM   21  C4  UNL     1      24.635   6.305  48.557  1.00  0.00    -0.002 A 
HETATM   22  C3  UNL     1      24.285   5.035  48.899  1.00  0.00     0.040 A 
HETATM   23  C2  UNL     1      23.215   4.338  48.347  1.00  0.00     0.031 A 
HETATM   24  C1  UNL     1      22.899   2.954  48.774  1.00  0.00     0.070 C 
HETATM   25  N5  UNL     1      22.487   4.985  47.410  1.00  0.00    -0.266 NA
HETATM   26  C18 UNL     1      22.836   6.255  47.069  1.00  0.00     0.118 A 
HETATM   27  C17 UNL     1      23.888   6.939  47.610  1.00  0.00     0.033 A 
ENDBRANCH   1  21
TORSDOF 1
ENDMDL
MODEL 6
REMARK VINA RESULT:      -8.1      3.622      7.650
REMARK  1 active torsions:
REMARK  status: ('A' for Active; 'I' for Inactive)
REMARK    1  A    between atoms: C4_4  and  C5_5 
ROOT
HETATM    1  C5  UNL     1      23.473   2.081  52.476  1.00  0.00     0.096 C 
HETATM    2  N1  UNL     1      23.810   3.340  52.698  1.00  0.00    -0.177 NA
HETATM    3  N2  UNL     1      22.903   4.209  52.088  1.00  0.00    -0.295 N 
HETATM    4  C6  UNL     1      21.751   3.412  52.348  1.00  0.00     0.228 C 
HETATM    5  C7  UNL     1      20.494   3.802  51.668  1.00  0.00     0.247 C 
HETATM    6  O1  UNL     1      19.567   3.299  52.339  1.00  0.00    -0.271 OA
HETATM    7  N3  UNL     1      19.464   4.369  50.787  1.00  0.00    -0.351 N 
HETATM    8  C8  UNL     1      18.287   3.444  50.384  1.00  0.00     0.115 C 
HETATM    9  C9  UNL     1      17.606   2.804  51.475  1.00  0.00     0.037 C 
HETATM   10  C10 UNL     1      19.222   2.388  49.655  1.00  0.00    -0.010 A 
HETATM   11  C11 UNL     1      19.513   2.827  48.384  1.00  0.00     0.030 A 
HETATM   12  C12 UNL     1      20.738   2.425  47.799  1.00  0.00     0.118 A 
HETATM   13  N4  UNL     1      21.501   1.625  48.622  1.00  0.00    -0.259 NA
HETATM   14  C13 UNL     1      20.886   1.393  49.820  1.00  0.00     0.079 A 
HETATM   15  C14 UNL     1      19.807   1.595  50.600  1.00  0.00     0.071 A 
HETATM   16 CL1  UNL     1      20.090   0.642  52.027  1.00  0.00    -0.081 Cl
HETATM   17  C15 UNL     1      22.168   1.153  50.615  1.00  0.00     0.045 C 
HETATM   18  C16 UNL     1      22.263   2.152  51.600  1.00  0.00     0.009 C 
HETATM   19  H5  UNL     1      23.250   5.099  51.662  1.00  0.00     0.183 HD
HETATM   20  H7  UNL     1      19.768   5.343  50.604  1.00  0.00     0.163 HD
ENDROOT
BRANCH   1  21
HETATM   21  C4  UNL     1      24.327   0.993  53.055  1.00  0.00    -0.002 A 
HETATM   22  C3  UNL     1      25.679   0.973  52.895  1.00  0.00     0.040 A 
HETATM   23  C2  UNL     1      26.521   0.007  53.435  1.00  0.00     0.031 A 
HETATM   24  C1  UNL     1      27.985   0.055  53.215  1.00  0.00     0.070 C 
HETATM   25  N5  UNL     1      25.937  -0.968  54.166  1.00  0.00    -0.266 NA
HETATM   26  C18 UNL     1      24.586  -0.947  54.327  1.00  0.00     0.118 A 
HETATM   27  C17 UNL     1      23.758   0.001  53.795  1.00  0.00     0.033 A 
ENDBRANCH   1  21
TORSDOF 1
ENDMDL
MODEL 7
REMARK VINA RESULT:      -8.1      6.100      8.548
REMARK  1 active torsions:
REMARK  status: ('A' for Active; 'I' for Inactive)
REMARK    1  A    between atoms: C4_4  and  C5_5 
ROOT
HETATM    1  C5  UNL     1      24.815   6.673  50.447  1.00  0.00     0.096 C 
HETATM    2  N1  UNL     1      23.883   7.389  51.051  1.00  0.00    -0.177 NA
HETATM    3  N2  UNL     1      22.827   6.576  51.466  1.00  0.00    -0.295 N 
HETATM    4  C6  UNL     1      23.642   5.466  51.833  1.00  0.00     0.228 C 
HETATM    5  C7  UNL     1      22.949   4.193  52.137  1.00  0.00     0.247 C 
HETATM    6  O1  UNL     1      23.743   3.526  52.835  1.00  0.00    -0.271 OA
HETATM    7  N3  UNL     1      21.997   3.082  52.270  1.00  0.00    -0.351 N 
HETATM    8  C8  UNL     1      22.556   1.645  52.103  1.00  0.00     0.115 C 
HETATM    9  C9  UNL     1      23.694   1.328  52.921  1.00  0.00     0.037 C 
HETATM   10  C10 UNL     1      23.033   1.885  50.608  1.00  0.00    -0.010 A 
HETATM   11  C11 UNL     1      21.967   1.734  49.752  1.00  0.00     0.030 A 
HETATM   12  C12 UNL     1      21.975   2.460  48.536  1.00  0.00     0.118 A 
HETATM   13  N4  UNL     1      23.091   3.252  48.379  1.00  0.00    -0.259 NA
HETATM   14  C13 UNL     1      23.946   3.144  49.439  1.00  0.00     0.079 A 
HETATM   15  C14 UNL     1      24.211   2.575  50.630  1.00  0.00     0.071 A 
HETATM   16 CL1  UNL     1      25.790   3.155  51.073  1.00  0.00    -0.081 Cl
HETATM   17  C15 UNL     1      24.576   4.527  49.279  1.00  0.00     0.045 C 
HETATM   18  C16 UNL     1      24.281   5.276  50.432  1.00  0.00     0.009 C 
HETATM   19  H5  UNL     1      21.847   6.939  51.416  1.00  0.00     0.183 HD
HETATM   20  H7  UNL     1      21.081   3.529  52.457  1.00  0.00     0.163 HD
ENDROOT
BRANCH   1  21
HETATM   21  C4  UNL     1      26.038   7.370  49.929  1.00  0.00    -0.002 A 
HETATM   22  C3  UNL     1      26.886   6.779  49.044  1.00  0.00     0.040 A 
HETATM   23  C2  UNL     1      28.015   7.389  48.508  1.00  0.00     0.031 A 
HETATM   24  C1  UNL     1      28.891   6.676  47.549  1.00  0.00     0.070 C 
HETATM   25  N5  UNL     1      28.267   8.656  48.906  1.00  0.00    -0.266 NA
HETATM   26  C18 UNL     1      27.418   9.248  49.790  1.00  0.00     0.118 A 
HETATM   27  C17 UNL     1      26.310   8.647  50.317  1.00  0.00     0.033 A 
ENDBRANCH   1  21
TORSDOF 1
ENDMDL
MODEL 8
REMARK VINA RESULT:      -7.8      4.296      7.008
REMARK  1 active torsions:
REMARK  status: ('A' for Active; 'I' for Inactive)
REMARK    1  A    between atoms: C4_4  and  C5_5 
ROOT
HETATM    1  C5  UNL     1      24.368   1.982  52.103  1.00  0.00     0.096 C 
HETATM    2  N1  UNL     1      25.546   2.571  52.000  1.00  0.00    -0.177 NA
HETATM    3  N2  UNL     1      25.509   3.583  51.038  1.00  0.00    -0.295 N 
HETATM    4  C6  UNL     1      24.187   4.017  51.343  1.00  0.00     0.228 C 
HETATM    5  C7  UNL     1      23.556   4.971  50.401  1.00  0.00     0.247 C 
HETATM    6  O1  UNL     1      22.650   5.543  51.044  1.00  0.00    -0.271 OA
HETATM    7  N3  UNL     1      23.183   5.806  49.252  1.00  0.00    -0.351 N 
HETATM    8  C8  UNL     1      21.669   5.980  48.964  1.00  0.00     0.115 C 
HETATM    9  C9  UNL     1      20.876   6.416  50.079  1.00  0.00     0.037 C 
HETATM   10  C10 UNL     1      21.425   4.431  48.717  1.00  0.00    -0.010 A 
HETATM   11  C11 UNL     1      21.789   4.104  47.431  1.00  0.00     0.030 A 
HETATM   12  C12 UNL     1      22.237   2.785  47.175  1.00  0.00     0.118 A 
HETATM   13  N4  UNL     1      22.255   1.986  48.298  1.00  0.00    -0.259 NA
HETATM   14  C13 UNL     1      21.819   2.655  49.406  1.00  0.00     0.079 A 
HETATM   15  C14 UNL     1      21.345   3.803  49.927  1.00  0.00     0.071 A 
HETATM   16 CL1  UNL     1      21.002   3.442  51.593  1.00  0.00    -0.081 Cl
HETATM   17  C15 UNL     1      22.591   1.809  50.417  1.00  0.00     0.045 C 
HETATM   18  C16 UNL     1      23.509   2.647  51.075  1.00  0.00     0.009 C 
HETATM   19  H5  UNL     1      26.344   3.745  50.429  1.00  0.00     0.183 HD
HETATM   20  H7  UNL     1      24.081   6.124  48.843  1.00  0.00     0.163 HD
ENDROOT
BRANCH   1  21
HETATM   21  C4  UNL     1      24.204   0.865  53.091  1.00  0.00    -0.002 A 
HETATM   22  C3  UNL     1      22.983   0.356  53.411  1.00  0.00     0.040 A 
HETATM   23  C2  UNL     1      22.776  -0.697  54.296  1.00  0.00     0.031 A 
HETATM   24  C1  UNL     1      21.412  -1.194  54.592  1.00  0.00     0.070 C 
HETATM   25  N5  UNL     1      23.877  -1.237  54.864  1.00  0.00    -0.266 NA
HETATM   26  C18 UNL     1      25.098  -0.730  54.543  1.00  0.00     0.118 A 
HETATM   27  C17 UNL     1      25.301   0.306  53.676  1.00  0.00     0.033 A 
ENDBRANCH   1  21
TORSDOF 1
ENDMDL
MODEL 9
REMARK VINA RESULT:      -7.7     10.637     12.262
REMARK  1 active torsions:
REMARK  status: ('A' for Active; 'I' for Inactive)
REMARK    1  A    between atoms: C4_4  and  C5_5 
ROOT
HETATM    1  C5  UNL     1      29.940   7.802  47.768  1.00  0.00     0.096 C 
HETATM    2  N1  UNL     1      29.140   6.881  48.276  1.00  0.00    -0.177 NA
HETATM    3  N2  UNL     1      29.773   5.636  48.299  1.00  0.00    -0.295 N 
HETATM    4  C6  UNL     1      31.064   6.143  48.627  1.00  0.00     0.228 C 
HETATM    5  C7  UNL     1      32.201   5.199  48.540  1.00  0.00     0.247 C 
HETATM    6  O1  UNL     1      33.103   5.676  49.260  1.00  0.00    -0.271 OA
HETATM    7  N3  UNL     1      33.104   4.074  48.261  1.00  0.00    -0.351 N 
HETATM    8  C8  UNL     1      34.588   4.414  47.962  1.00  0.00     0.115 C 
HETATM    9  C9  UNL     1      35.237   5.248  48.936  1.00  0.00     0.037 C 
HETATM   10  C10 UNL     1      34.247   5.277  46.674  1.00  0.00    -0.010 A 
HETATM   11  C11 UNL     1      34.061   4.445  45.595  1.00  0.00     0.030 A 
HETATM   12  C12 UNL     1      33.193   4.870  44.561  1.00  0.00     0.118 A 
HETATM   13  N4  UNL     1      32.627   6.105  44.795  1.00  0.00    -0.259 NA
HETATM   14  C13 UNL     1      33.050   6.643  45.977  1.00  0.00     0.079 A 
HETATM   15  C14 UNL     1      33.818   6.510  47.075  1.00  0.00     0.071 A 
HETATM   16 CL1  UNL     1      33.634   8.004  47.946  1.00  0.00    -0.081 Cl
HETATM   17  C15 UNL     1      31.813   7.510  46.209  1.00  0.00     0.045 C 
HETATM   18  C16 UNL     1      31.185   7.068  47.386  1.00  0.00     0.009 C 
HETATM   19  H5  UNL     1      29.217   4.772  48.104  1.00  0.00     0.183 HD
HETATM   20  H7  UNL     1      32.512   3.226  48.323  1.00  0.00     0.163 HD
ENDROOT
BRANCH   1  21
HETATM   21  C4  UNL     1      29.439   9.212  47.661  1.00  0.00    -0.002 A 
HETATM   22  C3  UNL     1      30.011  10.237  48.351  1.00  0.00     0.040 A 
HETATM   23  C2  UNL     1      29.608  11.565  48.266  1.00  0.00     0.031 A 
HETATM   24  C1  UNL     1      30.283  12.624  49.052  1.00  0.00     0.070 C 
HETATM   25  N5  UNL     1      28.577  11.834  47.434  1.00  0.00    -0.266 NA
HETATM   26  C18 UNL     1      28.006  10.811  46.743  1.00  0.00     0.118 A 
HETATM   27  C17 UNL     1      28.401   9.505  46.828  1.00  0.00     0.033 A 
ENDBRANCH   1  21
TORSDOF 1
ENDMDL
