MODEL 1
REMARK VINA RESULT:      -7.4      0.000      0.000
REMARK  9 active torsions:
REMARK  status: ('A' for Active; 'I' for Inactive)
REMARK    1  A    between atoms: O1_2  and  C2_3 
REMARK    2  A    between atoms: C8_11  and  O2_12 
REMARK    3  A    between atoms: O2_12  and  C9_13 
REMARK    4  A    between atoms: C9_13  and  C10_14 
REMARK    5  A    between atoms: N3_15  and  C11_16 
REMARK    6  A    between atoms: C11_16  and  C12_17 
REMARK    7  A    between atoms: C12_17  and  C13_18 
REMARK    8  A    between atoms: C13_18  and  N4_19 
REMARK    9  A    between atoms: N4_19  and  C14_20 
ROOT
HETATM    1  C10 UNL     1      21.142   4.085  51.240  1.00  0.00     0.110 C 
HETATM    2  N3  UNL     1      22.247   4.593  50.846  1.00  0.00    -0.303 NA
ENDROOT
BRANCH   1   3
HETATM    3  C9  UNL     1      20.538   3.040  52.111  1.00  0.00     0.222 C 
BRANCH   3   4
HETATM    4  O2  UNL     1      20.748   1.739  51.582  1.00  0.00    -0.344 OA
BRANCH   4   5
HETATM    5  C8  UNL     1      21.118   0.687  52.442  1.00  0.00     0.101 C 
HETATM    6  C2  UNL     1      20.059  -0.210  52.962  1.00  0.00     0.103 C 
HETATM    7  C3  UNL     1      20.271  -1.212  53.840  1.00  0.00     0.069 C 
HETATM    8  C4  UNL     1      21.646  -1.170  54.270  1.00  0.00     0.067 A 
HETATM    9  N1  UNL     1      22.170  -1.669  55.356  1.00  0.00    -0.244 NA
HETATM   10  C6  UNL     1      22.744  -0.542  53.559  1.00  0.00     0.186 A 
HETATM   11  C5  UNL     1      23.581  -1.372  55.395  1.00  0.00     0.228 A 
HETATM   12  N2  UNL     1      23.908  -0.691  54.323  1.00  0.00    -0.267 NA
HETATM   13  C7  UNL     1      22.434   0.583  52.724  1.00  0.00     0.046 C 
BRANCH   6  14
HETATM   14  O1  UNL     1      18.775   0.006  52.427  1.00  0.00    -0.353 OA
HETATM   15  C1  UNL     1      17.796  -0.958  52.812  1.00  0.00     0.210 C 
ENDBRANCH   6  14
ENDBRANCH   4   5
ENDBRANCH   3   4
ENDBRANCH   1   3
BRANCH   2  16
HETATM   16  C11 UNL     1      23.499   4.122  51.291  1.00  0.00     0.149 C 
BRANCH  16  17
HETATM   17  C12 UNL     1      24.074   3.057  50.406  1.00  0.00     0.041 C 
BRANCH  17  18
HETATM   18  C13 UNL     1      25.521   2.859  50.675  1.00  0.00     0.121 C 
BRANCH  18  19
HETATM   19  N4  UNL     1      25.921   2.990  52.057  1.00  0.00    -0.390 N 
HETATM   20  H17 UNL     1      25.705   3.693  52.813  1.00  0.00     0.159 HD
BRANCH  19  21
HETATM   21  C14 UNL     1      26.796   1.934  52.499  1.00  0.00     0.029 A 
HETATM   22  C15 UNL     1      28.013   2.187  53.112  1.00  0.00     0.032 A 
HETATM   23  C16 UNL     1      28.901   1.240  53.560  1.00  0.00     0.046 A 
HETATM   24  C17 UNL     1      28.557  -0.079  53.387  1.00  0.00     0.138 A 
HETATM   25  F1  UNL     1      29.397  -1.053  53.812  1.00  0.00    -0.204 F 
HETATM   26  C18 UNL     1      27.364  -0.420  52.787  1.00  0.00     0.074 A 
HETATM   27 CL1  UNL     1      26.927  -2.105  52.569  1.00  0.00    -0.081 Cl
HETATM   28  C19 UNL     1      26.531   0.590  52.367  1.00  0.00     0.056 A 
ENDBRANCH  19  21
ENDBRANCH  18  19
ENDBRANCH  17  18
ENDBRANCH  16  17
ENDBRANCH   2  16
TORSDOF 9
ENDMDL
MODEL 2
REMARK VINA RESULT:      -7.4      1.373      1.775
REMARK  9 active torsions:
REMARK  status: ('A' for Active; 'I' for Inactive)
REMARK    1  A    between atoms: O1_2  and  C2_3 
REMARK    2  A    between atoms: C8_11  and  O2_12 
REMARK    3  A    between atoms: O2_12  and  C9_13 
REMARK    4  A    between atoms: C9_13  and  C10_14 
REMARK    5  A    between atoms: N3_15  and  C11_16 
REMARK    6  A    between atoms: C11_16  and  C12_17 
REMARK    7  A    between atoms: C12_17  and  C13_18 
REMARK    8  A    between atoms: C13_18  and  N4_19 
REMARK    9  A    between atoms: N4_19  and  C14_20 
ROOT
HETATM    1  C10 UNL     1      23.543   5.487  51.469  1.00  0.00     0.110 C 
HETATM    2  N3  UNL     1      24.103   5.527  50.321  1.00  0.00    -0.303 NA
ENDROOT
BRANCH   1   3
HETATM    3  C9  UNL     1      23.058   4.578  52.543  1.00  0.00     0.222 C 
BRANCH   3   4
HETATM    4  O2  UNL     1      21.969   3.783  52.097  1.00  0.00    -0.344 OA
BRANCH   4   5
HETATM    5  C8  UNL     1      21.833   2.461  52.563  1.00  0.00     0.101 C 
HETATM    6  C2  UNL     1      20.470   1.910  52.749  1.00  0.00     0.103 C 
HETATM    7  C3  UNL     1      20.203   0.685  53.247  1.00  0.00     0.069 C 
HETATM    8  C4  UNL     1      21.438   0.079  53.676  1.00  0.00     0.067 A 
HETATM    9  N1  UNL     1      21.608  -0.885  54.539  1.00  0.00    -0.244 NA
HETATM   10  C6  UNL     1      22.767   0.436  53.221  1.00  0.00     0.186 A 
HETATM   11  C5  UNL     1      23.017  -1.163  54.684  1.00  0.00     0.228 A 
HETATM   12  N2  UNL     1      23.697  -0.361  53.901  1.00  0.00    -0.267 NA
HETATM   13  C7  UNL     1      22.982   1.793  52.803  1.00  0.00     0.046 C 
BRANCH   6  14
HETATM   14  O1  UNL     1      19.423   2.741  52.307  1.00  0.00    -0.353 OA
HETATM   15  C1  UNL     1      18.906   2.419  51.017  1.00  0.00     0.210 C 
ENDBRANCH   6  14
ENDBRANCH   4   5
ENDBRANCH   3   4
ENDBRANCH   1   3
BRANCH   2  16
HETATM   16  C11 UNL     1      24.496   4.364  49.628  1.00  0.00     0.149 C 
BRANCH  16  17
HETATM   17  C12 UNL     1      25.949   4.364  49.258  1.00  0.00     0.041 C 
BRANCH  17  18
HETATM   18  C13 UNL     1      26.712   3.391  50.079  1.00  0.00     0.121 C 
BRANCH  18  19
HETATM   19  N4  UNL     1      26.154   3.100  51.380  1.00  0.00    -0.390 N 
HETATM   20  H17 UNL     1      25.347   3.498  51.929  1.00  0.00     0.159 HD
BRANCH  19  21
HETATM   21  C14 UNL     1      26.840   2.037  52.070  1.00  0.00     0.029 A 
HETATM   22  C15 UNL     1      27.873   2.278  52.961  1.00  0.00     0.032 A 
HETATM   23  C16 UNL     1      28.576   1.324  53.655  1.00  0.00     0.046 A 
HETATM   24  C17 UNL     1      28.227   0.011  53.452  1.00  0.00     0.138 A 
HETATM   25  F1  UNL     1      28.888  -0.970  54.113  1.00  0.00    -0.204 F 
HETATM   26  C18 UNL     1      27.209  -0.318  52.583  1.00  0.00     0.074 A 
HETATM   27 CL1  UNL     1      26.765  -1.996  52.327  1.00  0.00    -0.081 Cl
HETATM   28  C19 UNL     1      26.556   0.698  51.927  1.00  0.00     0.056 A 
ENDBRANCH  19  21
ENDBRANCH  18  19
ENDBRANCH  17  18
ENDBRANCH  16  17
ENDBRANCH   2  16
TORSDOF 9
ENDMDL
MODEL 3
REMARK VINA RESULT:      -7.2      2.610      5.908
REMARK  9 active torsions:
REMARK  status: ('A' for Active; 'I' for Inactive)
REMARK    1  A    between atoms: O1_2  and  C2_3 
REMARK    2  A    between atoms: C8_11  and  O2_12 
REMARK    3  A    between atoms: O2_12  and  C9_13 
REMARK    4  A    between atoms: C9_13  and  C10_14 
REMARK    5  A    between atoms: N3_15  and  C11_16 
REMARK    6  A    between atoms: C11_16  and  C12_17 
REMARK    7  A    between atoms: C12_17  and  C13_18 
REMARK    8  A    between atoms: C13_18  and  N4_19 
REMARK    9  A    between atoms: N4_19  and  C14_20 
ROOT
HETATM    1  C10 UNL     1      21.811   1.154  49.681  1.00  0.00     0.110 C 
HETATM    2  N3  UNL     1      21.320   0.400  50.589  1.00  0.00    -0.303 NA
ENDROOT
BRANCH   1   3
HETATM    3  C9  UNL     1      22.482   2.458  49.429  1.00  0.00     0.222 C 
BRANCH   3   4
HETATM    4  O2  UNL     1      23.353   2.807  50.494  1.00  0.00    -0.344 OA
BRANCH   4   5
HETATM    5  C8  UNL     1      24.310   3.825  50.308  1.00  0.00     0.101 C 
HETATM    6  C2  UNL     1      23.974   5.202  50.741  1.00  0.00     0.103 C 
HETATM    7  C3  UNL     1      24.772   6.275  50.564  1.00  0.00     0.069 C 
HETATM    8  C4  UNL     1      25.916   5.877  49.782  1.00  0.00     0.067 A 
HETATM    9  N1  UNL     1      26.707   6.628  49.066  1.00  0.00    -0.244 NA
HETATM   10  C6  UNL     1      26.421   4.526  49.634  1.00  0.00     0.186 A 
HETATM   11  C5  UNL     1      27.710   5.810  48.430  1.00  0.00     0.228 A 
HETATM   12  N2  UNL     1      27.522   4.557  48.769  1.00  0.00    -0.267 NA
HETATM   13  C7  UNL     1      25.476   3.450  49.741  1.00  0.00     0.046 C 
BRANCH   6  14
HETATM   14  O1  UNL     1      22.753   5.332  51.430  1.00  0.00    -0.353 OA
HETATM   15  C1  UNL     1      21.714   5.973  50.692  1.00  0.00     0.210 C 
ENDBRANCH   6  14
ENDBRANCH   4   5
ENDBRANCH   3   4
ENDBRANCH   1   3
BRANCH   2  16
HETATM   16  C11 UNL     1      21.310   0.763  51.951  1.00  0.00     0.149 C 
BRANCH  16  17
HETATM   17  C12 UNL     1      21.668  -0.373  52.864  1.00  0.00     0.041 C 
BRANCH  17  18
HETATM   18  C13 UNL     1      23.054  -0.233  53.376  1.00  0.00     0.121 C 
BRANCH  18  19
HETATM   19  N4  UNL     1      23.866   0.761  52.714  1.00  0.00    -0.390 N 
HETATM   20  H17 UNL     1      23.643   1.628  52.158  1.00  0.00     0.159 HD
BRANCH  19  21
HETATM   21  C14 UNL     1      25.281   0.522  52.848  1.00  0.00     0.029 A 
HETATM   22  C15 UNL     1      25.832  -0.745  52.747  1.00  0.00     0.032 A 
HETATM   23  C16 UNL     1      27.164  -1.056  52.862  1.00  0.00     0.046 A 
HETATM   24  C17 UNL     1      28.035  -0.020  53.100  1.00  0.00     0.138 A 
HETATM   25  F1  UNL     1      29.361  -0.271  53.222  1.00  0.00    -0.204 F 
HETATM   26  C18 UNL     1      27.572   1.273  53.214  1.00  0.00     0.074 A 
HETATM   27 CL1  UNL     1      28.687   2.594  53.516  1.00  0.00    -0.081 Cl
HETATM   28  C19 UNL     1      26.222   1.498  53.085  1.00  0.00     0.056 A 
ENDBRANCH  19  21
ENDBRANCH  18  19
ENDBRANCH  17  18
ENDBRANCH  16  17
ENDBRANCH   2  16
TORSDOF 9
ENDMDL
MODEL 4
REMARK VINA RESULT:      -7.1      4.693      8.358
REMARK  9 active torsions:
REMARK  status: ('A' for Active; 'I' for Inactive)
REMARK    1  A    between atoms: O1_2  and  C2_3 
REMARK    2  A    between atoms: C8_11  and  O2_12 
REMARK    3  A    between atoms: O2_12  and  C9_13 
REMARK    4  A    between atoms: C9_13  and  C10_14 
REMARK    5  A    between atoms: N3_15  and  C11_16 
REMARK    6  A    between atoms: C11_16  and  C12_17 
REMARK    7  A    between atoms: C12_17  and  C13_18 
REMARK    8  A    between atoms: C13_18  and  N4_19 
REMARK    9  A    between atoms: N4_19  and  C14_20 
ROOT
HETATM    1  C10 UNL     1      25.376   3.492  49.576  1.00  0.00     0.110 C 
HETATM    2  N3  UNL     1      24.200   3.461  50.077  1.00  0.00    -0.303 NA
ENDROOT
BRANCH   1   3
HETATM    3  C9  UNL     1      26.770   3.965  49.797  1.00  0.00     0.222 C 
BRANCH   3   4
HETATM    4  O2  UNL     1      27.356   4.431  48.591  1.00  0.00    -0.344 OA
BRANCH   4   5
HETATM    5  C8  UNL     1      27.834   5.754  48.513  1.00  0.00     0.101 C 
HETATM    6  C2  UNL     1      29.271   5.974  48.227  1.00  0.00     0.103 C 
HETATM    7  C3  UNL     1      29.865   7.185  48.189  1.00  0.00     0.069 C 
HETATM    8  C4  UNL     1      28.909   8.184  48.595  1.00  0.00     0.067 A 
HETATM    9  N1  UNL     1      29.139   9.379  49.067  1.00  0.00    -0.244 NA
HETATM   10  C6  UNL     1      27.465   8.049  48.560  1.00  0.00     0.186 A 
HETATM   11  C5  UNL     1      27.887  10.032  49.365  1.00  0.00     0.228 A 
HETATM   12  N2  UNL     1      26.898   9.224  49.068  1.00  0.00    -0.267 NA
HETATM   13  C7  UNL     1      26.920   6.729  48.709  1.00  0.00     0.046 C 
BRANCH   6  14
HETATM   14  O1  UNL     1      30.006   4.812  47.927  1.00  0.00    -0.353 OA
HETATM   15  C1  UNL     1      31.383   5.036  47.627  1.00  0.00     0.210 C 
ENDBRANCH   6  14
ENDBRANCH   4   5
ENDBRANCH   3   4
ENDBRANCH   1   3
BRANCH   2  16
HETATM   16  C11 UNL     1      23.892   4.048  51.321  1.00  0.00     0.149 C 
BRANCH  16  17
HETATM   17  C12 UNL     1      23.247   3.090  52.278  1.00  0.00     0.041 C 
BRANCH  17  18
HETATM   18  C13 UNL     1      24.253   2.191  52.897  1.00  0.00     0.121 C 
BRANCH  18  19
HETATM   19  N4  UNL     1      25.579   2.747  53.044  1.00  0.00    -0.390 N 
HETATM   20  H17 UNL     1      25.951   3.731  53.108  1.00  0.00     0.159 HD
BRANCH  19  21
HETATM   21  C14 UNL     1      26.611   1.744  53.127  1.00  0.00     0.029 A 
HETATM   22  C15 UNL     1      27.911   2.048  53.497  1.00  0.00     0.032 A 
HETATM   23  C16 UNL     1      28.948   1.154  53.599  1.00  0.00     0.046 A 
HETATM   24  C17 UNL     1      28.678  -0.161  53.309  1.00  0.00     0.138 A 
HETATM   25  F1  UNL     1      29.666  -1.085  53.395  1.00  0.00    -0.204 F 
HETATM   26  C18 UNL     1      27.411  -0.551  52.933  1.00  0.00     0.074 A 
HETATM   27 CL1  UNL     1      27.069  -2.232  52.565  1.00  0.00    -0.081 Cl
HETATM   28  C19 UNL     1      26.429   0.407  52.856  1.00  0.00     0.056 A 
ENDBRANCH  19  21
ENDBRANCH  18  19
ENDBRANCH  17  18
ENDBRANCH  16  17
ENDBRANCH   2  16
TORSDOF 9
ENDMDL
MODEL 5
REMARK VINA RESULT:      -6.9      5.155      6.365
REMARK  9 active torsions:
REMARK  status: ('A' for Active; 'I' for Inactive)
REMARK    1  A    between atoms: O1_2  and  C2_3 
REMARK    2  A    between atoms: C8_11  and  O2_12 
REMARK    3  A    between atoms: O2_12  and  C9_13 
REMARK    4  A    between atoms: C9_13  and  C10_14 
REMARK    5  A    between atoms: N3_15  and  C11_16 
REMARK    6  A    between atoms: C11_16  and  C12_17 
REMARK    7  A    between atoms: C12_17  and  C13_18 
REMARK    8  A    between atoms: C13_18  and  N4_19 
REMARK    9  A    between atoms: N4_19  and  C14_20 
ROOT
HETATM    1  C10 UNL     1      26.794   3.763  49.361  1.00  0.00     0.110 C 
HETATM    2  N3  UNL     1      27.202   4.799  48.735  1.00  0.00    -0.303 NA
ENDROOT
BRANCH   1   3
HETATM    3  C9  UNL     1      25.838   3.275  50.393  1.00  0.00     0.222 C 
BRANCH   3   4
HETATM    4  O2  UNL     1      26.344   2.132  51.068  1.00  0.00    -0.344 OA
BRANCH   4   5
HETATM    5  C8  UNL     1      25.512   1.420  51.954  1.00  0.00     0.101 C 
HETATM    6  C2  UNL     1      26.117   0.369  52.805  1.00  0.00     0.103 C 
HETATM    7  C3  UNL     1      25.423  -0.425  53.647  1.00  0.00     0.069 C 
HETATM    8  C4  UNL     1      24.016  -0.165  53.476  1.00  0.00     0.067 A 
HETATM    9  N1  UNL     1      23.009  -0.939  53.775  1.00  0.00    -0.244 NA
HETATM   10  C6  UNL     1      23.432   1.040  52.919  1.00  0.00     0.186 A 
HETATM   11  C5  UNL     1      21.773  -0.289  53.412  1.00  0.00     0.228 A 
HETATM   12  N2  UNL     1      22.040   0.886  52.893  1.00  0.00    -0.267 NA
HETATM   13  C7  UNL     1      24.207   1.766  51.953  1.00  0.00     0.046 C 
BRANCH   6  14
HETATM   14  O1  UNL     1      27.520   0.274  52.734  1.00  0.00    -0.353 OA
HETATM   15  C1  UNL     1      28.057  -0.983  53.143  1.00  0.00     0.210 C 
ENDBRANCH   6  14
ENDBRANCH   4   5
ENDBRANCH   3   4
ENDBRANCH   1   3
BRANCH   2  16
HETATM   16  C11 UNL     1      26.668   6.083  48.966  1.00  0.00     0.149 C 
BRANCH  16  17
HETATM   17  C12 UNL     1      27.093   7.089  47.938  1.00  0.00     0.041 C 
BRANCH  17  18
HETATM   18  C13 UNL     1      28.566   7.073  47.749  1.00  0.00     0.121 C 
BRANCH  18  19
HETATM   19  N4  UNL     1      29.342   6.756  48.926  1.00  0.00    -0.390 N 
HETATM   20  H17 UNL     1      29.181   6.887  49.959  1.00  0.00     0.159 HD
BRANCH  19  21
HETATM   21  C14 UNL     1      30.600   6.121  48.624  1.00  0.00     0.029 A 
HETATM   22  C15 UNL     1      31.798   6.553  49.169  1.00  0.00     0.032 A 
HETATM   23  C16 UNL     1      33.034   6.004  48.933  1.00  0.00     0.046 A 
HETATM   24  C17 UNL     1      33.094   4.929  48.081  1.00  0.00     0.138 A 
HETATM   25  F1  UNL     1      34.290   4.349  47.814  1.00  0.00    -0.204 F 
HETATM   26  C18 UNL     1      31.950   4.433  47.495  1.00  0.00     0.074 A 
HETATM   27 CL1  UNL     1      32.029   3.058  46.408  1.00  0.00    -0.081 Cl
HETATM   28  C19 UNL     1      30.751   5.041  47.785  1.00  0.00     0.056 A 
ENDBRANCH  19  21
ENDBRANCH  18  19
ENDBRANCH  17  18
ENDBRANCH  16  17
ENDBRANCH   2  16
TORSDOF 9
ENDMDL
MODEL 6
REMARK VINA RESULT:      -6.9      6.290      9.860
REMARK  9 active torsions:
REMARK  status: ('A' for Active; 'I' for Inactive)
REMARK    1  A    between atoms: O1_2  and  C2_3 
REMARK    2  A    between atoms: C8_11  and  O2_12 
REMARK    3  A    between atoms: O2_12  and  C9_13 
REMARK    4  A    between atoms: C9_13  and  C10_14 
REMARK    5  A    between atoms: N3_15  and  C11_16 
REMARK    6  A    between atoms: C11_16  and  C12_17 
REMARK    7  A    between atoms: C12_17  and  C13_18 
REMARK    8  A    between atoms: C13_18  and  N4_19 
REMARK    9  A    between atoms: N4_19  and  C14_20 
ROOT
HETATM    1  C10 UNL     1      26.990   7.335  48.243  1.00  0.00     0.110 C 
HETATM    2  N3  UNL     1      26.298   6.375  48.728  1.00  0.00    -0.303 NA
ENDROOT
BRANCH   1   3
HETATM    3  C9  UNL     1      28.321   7.702  47.689  1.00  0.00     0.222 C 
BRANCH   3   4
HETATM    4  O2  UNL     1      29.265   7.938  48.723  1.00  0.00    -0.344 OA
BRANCH   4   5
HETATM    5  C8  UNL     1      30.537   7.336  48.657  1.00  0.00     0.101 C 
HETATM    6  C2  UNL     1      31.735   8.208  48.650  1.00  0.00     0.103 C 
HETATM    7  C3  UNL     1      33.003   7.762  48.527  1.00  0.00     0.069 C 
HETATM    8  C4  UNL     1      32.974   6.343  48.277  1.00  0.00     0.067 A 
HETATM    9  N1  UNL     1      33.894   5.600  47.725  1.00  0.00    -0.244 NA
HETATM   10  C6  UNL     1      31.884   5.442  48.598  1.00  0.00     0.186 A 
HETATM   11  C5  UNL     1      33.436   4.234  47.652  1.00  0.00     0.228 A 
HETATM   12  N2  UNL     1      32.232   4.156  48.166  1.00  0.00    -0.267 NA
HETATM   13  C7  UNL     1      30.556   5.987  48.607  1.00  0.00     0.046 C 
BRANCH   6  14
HETATM   14  O1  UNL     1      31.480   9.578  48.845  1.00  0.00    -0.353 OA
HETATM   15  C1  UNL     1      31.643  10.389  47.682  1.00  0.00     0.210 C 
ENDBRANCH   6  14
ENDBRANCH   4   5
ENDBRANCH   3   4
ENDBRANCH   1   3
BRANCH   2  16
HETATM   16  C11 UNL     1      26.815   5.073  48.885  1.00  0.00     0.149 C 
BRANCH  16  17
HETATM   17  C12 UNL     1      25.816   4.111  49.456  1.00  0.00     0.041 C 
BRANCH  17  18
HETATM   18  C13 UNL     1      26.491   3.007  50.184  1.00  0.00     0.121 C 
BRANCH  18  19
HETATM   19  N4  UNL     1      26.357   3.035  51.622  1.00  0.00    -0.390 N 
HETATM   20  H17 UNL     1      25.839   3.664  52.291  1.00  0.00     0.159 HD
BRANCH  19  21
HETATM   21  C14 UNL     1      27.076   1.975  52.282  1.00  0.00     0.029 A 
HETATM   22  C15 UNL     1      28.155   2.219  53.117  1.00  0.00     0.032 A 
HETATM   23  C16 UNL     1      28.891   1.269  53.780  1.00  0.00     0.046 A 
HETATM   24  C17 UNL     1      28.529  -0.044  53.604  1.00  0.00     0.138 A 
HETATM   25  F1  UNL     1      29.222  -1.023  54.237  1.00  0.00    -0.204 F 
HETATM   26  C18 UNL     1      27.467  -0.377  52.792  1.00  0.00     0.074 A 
HETATM   27 CL1  UNL     1      27.006  -2.056  52.571  1.00  0.00    -0.081 Cl
HETATM   28  C19 UNL     1      26.782   0.636  52.164  1.00  0.00     0.056 A 
ENDBRANCH  19  21
ENDBRANCH  18  19
ENDBRANCH  17  18
ENDBRANCH  16  17
ENDBRANCH   2  16
TORSDOF 9
ENDMDL
MODEL 7
REMARK VINA RESULT:      -6.9      4.055      5.841
REMARK  9 active torsions:
REMARK  status: ('A' for Active; 'I' for Inactive)
REMARK    1  A    between atoms: O1_2  and  C2_3 
REMARK    2  A    between atoms: C8_11  and  O2_12 
REMARK    3  A    between atoms: O2_12  and  C9_13 
REMARK    4  A    between atoms: C9_13  and  C10_14 
REMARK    5  A    between atoms: N3_15  and  C11_16 
REMARK    6  A    between atoms: C11_16  and  C12_17 
REMARK    7  A    between atoms: C12_17  and  C13_18 
REMARK    8  A    between atoms: C13_18  and  N4_19 
REMARK    9  A    between atoms: N4_19  and  C14_20 
ROOT
HETATM    1  C10 UNL     1      22.143   2.763  50.384  1.00  0.00     0.110 C 
HETATM    2  N3  UNL     1      21.641   3.835  50.865  1.00  0.00    -0.303 NA
ENDROOT
BRANCH   1   3
HETATM    3  C9  UNL     1      23.001   1.587  50.696  1.00  0.00     0.222 C 
BRANCH   3   4
HETATM    4  O2  UNL     1      23.185   1.437  52.096  1.00  0.00    -0.344 OA
BRANCH   4   5
HETATM    5  C8  UNL     1      24.471   1.171  52.606  1.00  0.00     0.101 C 
HETATM    6  C2  UNL     1      24.622   0.113  53.632  1.00  0.00     0.103 C 
HETATM    7  C3  UNL     1      25.784  -0.196  54.245  1.00  0.00     0.069 C 
HETATM    8  C4  UNL     1      26.792   0.748  53.832  1.00  0.00     0.067 A 
HETATM    9  N1  UNL     1      27.901   1.064  54.441  1.00  0.00    -0.244 NA
HETATM   10  C6  UNL     1      26.764   1.555  52.627  1.00  0.00     0.186 A 
HETATM   11  C5  UNL     1      28.601   2.074  53.684  1.00  0.00     0.228 A 
HETATM   12  N2  UNL     1      27.906   2.365  52.610  1.00  0.00    -0.267 NA
HETATM   13  C7  UNL     1      25.477   1.918  52.104  1.00  0.00     0.046 C 
BRANCH   6  14
HETATM   14  O1  UNL     1      23.456  -0.627  53.906  1.00  0.00    -0.353 OA
HETATM   15  C1  UNL     1      23.407  -1.207  55.209  1.00  0.00     0.210 C 
ENDBRANCH   6  14
ENDBRANCH   4   5
ENDBRANCH   3   4
ENDBRANCH   1   3
BRANCH   2  16
HETATM   16  C11 UNL     1      21.866   4.248  52.195  1.00  0.00     0.149 C 
BRANCH  16  17
HETATM   17  C12 UNL     1      23.164   4.979  52.370  1.00  0.00     0.041 C 
BRANCH  17  18
HETATM   18  C13 UNL     1      23.290   6.090  51.394  1.00  0.00     0.121 C 
BRANCH  18  19
HETATM   19  N4  UNL     1      24.427   6.961  51.583  1.00  0.00    -0.390 N 
HETATM   20  H17 UNL     1      24.693   7.656  52.329  1.00  0.00     0.159 HD
BRANCH  19  21
HETATM   21  C14 UNL     1      25.409   6.852  50.533  1.00  0.00     0.029 A 
HETATM   22  C15 UNL     1      25.658   5.659  49.873  1.00  0.00     0.032 A 
HETATM   23  C16 UNL     1      26.574   5.473  48.867  1.00  0.00     0.046 A 
HETATM   24  C17 UNL     1      27.310   6.564  48.475  1.00  0.00     0.138 A 
HETATM   25  F1  UNL     1      28.227   6.435  47.485  1.00  0.00    -0.204 F 
HETATM   26  C18 UNL     1      27.125   7.789  49.077  1.00  0.00     0.074 A 
HETATM   27 CL1  UNL     1      28.067   9.181  48.573  1.00  0.00    -0.081 Cl
HETATM   28  C19 UNL     1      26.188   7.890  50.078  1.00  0.00     0.056 A 
ENDBRANCH  19  21
ENDBRANCH  18  19
ENDBRANCH  17  18
ENDBRANCH  16  17
ENDBRANCH   2  16
TORSDOF 9
ENDMDL
MODEL 8
REMARK VINA RESULT:      -6.8      3.502      5.906
REMARK  9 active torsions:
REMARK  status: ('A' for Active; 'I' for Inactive)
REMARK    1  A    between atoms: O1_2  and  C2_3 
REMARK    2  A    between atoms: C8_11  and  O2_12 
REMARK    3  A    between atoms: O2_12  and  C9_13 
REMARK    4  A    between atoms: C9_13  and  C10_14 
REMARK    5  A    between atoms: N3_15  and  C11_16 
REMARK    6  A    between atoms: C11_16  and  C12_17 
REMARK    7  A    between atoms: C12_17  and  C13_18 
REMARK    8  A    between atoms: C13_18  and  N4_19 
REMARK    9  A    between atoms: N4_19  and  C14_20 
ROOT
HETATM    1  C10 UNL     1      25.286   4.475  49.458  1.00  0.00     0.110 C 
HETATM    2  N3  UNL     1      24.736   5.628  49.450  1.00  0.00    -0.303 NA
ENDROOT
BRANCH   1   3
HETATM    3  C9  UNL     1      26.076   3.520  50.282  1.00  0.00     0.222 C 
BRANCH   3   4
HETATM    4  O2  UNL     1      25.266   2.889  51.263  1.00  0.00    -0.344 OA
BRANCH   4   5
HETATM    5  C8  UNL     1      25.825   1.905  52.103  1.00  0.00     0.101 C 
HETATM    6  C2  UNL     1      24.918   0.936  52.761  1.00  0.00     0.103 C 
HETATM    7  C3  UNL     1      25.318  -0.012  53.634  1.00  0.00     0.069 C 
HETATM    8  C4  UNL     1      26.722   0.170  53.905  1.00  0.00     0.067 A 
HETATM    9  N1  UNL     1      27.405  -0.242  54.937  1.00  0.00    -0.244 NA
HETATM   10  C6  UNL     1      27.671   0.867  53.060  1.00  0.00     0.186 A 
HETATM   11  C5  UNL     1      28.779   0.181  54.810  1.00  0.00     0.228 A 
HETATM   12  N2  UNL     1      28.921   0.851  53.692  1.00  0.00    -0.267 NA
HETATM   13  C7  UNL     1      27.168   1.930  52.236  1.00  0.00     0.046 C 
BRANCH   6  14
HETATM   14  O1  UNL     1      23.568   1.017  52.369  1.00  0.00    -0.353 OA
HETATM   15  C1  UNL     1      22.737  -0.032  52.864  1.00  0.00     0.210 C 
ENDBRANCH   6  14
ENDBRANCH   4   5
ENDBRANCH   3   4
ENDBRANCH   1   3
BRANCH   2  16
HETATM   16  C11 UNL     1      24.781   6.496  50.561  1.00  0.00     0.149 C 
BRANCH  16  17
HETATM   17  C12 UNL     1      23.482   7.207  50.802  1.00  0.00     0.041 C 
BRANCH  17  18
HETATM   18  C13 UNL     1      22.366   6.242  50.971  1.00  0.00     0.121 C 
BRANCH  18  19
HETATM   19  N4  UNL     1      22.663   5.080  51.776  1.00  0.00    -0.390 N 
HETATM   20  H17 UNL     1      23.354   4.889  52.548  1.00  0.00     0.159 HD
BRANCH  19  21
HETATM   21  C14 UNL     1      21.834   3.943  51.463  1.00  0.00     0.029 A 
HETATM   22  C15 UNL     1      20.847   3.487  52.322  1.00  0.00     0.032 A 
HETATM   23  C16 UNL     1      20.018   2.415  52.098  1.00  0.00     0.046 A 
HETATM   24  C17 UNL     1      20.178   1.730  50.919  1.00  0.00     0.138 A 
HETATM   25  F1  UNL     1      19.385   0.665  50.648  1.00  0.00    -0.204 F 
HETATM   26  C18 UNL     1      21.135   2.117  50.006  1.00  0.00     0.074 A 
HETATM   27 CL1  UNL     1      21.336   1.241  48.499  1.00  0.00    -0.081 Cl
HETATM   28  C19 UNL     1      21.924   3.202  50.307  1.00  0.00     0.056 A 
ENDBRANCH  19  21
ENDBRANCH  18  19
ENDBRANCH  17  18
ENDBRANCH  16  17
ENDBRANCH   2  16
TORSDOF 9
ENDMDL
MODEL 9
REMARK VINA RESULT:      -6.8      3.318      6.082
REMARK  9 active torsions:
REMARK  status: ('A' for Active; 'I' for Inactive)
REMARK    1  A    between atoms: O1_2  and  C2_3 
REMARK    2  A    between atoms: C8_11  and  O2_12 
REMARK    3  A    between atoms: O2_12  and  C9_13 
REMARK    4  A    between atoms: C9_13  and  C10_14 
REMARK    5  A    between atoms: N3_15  and  C11_16 
REMARK    6  A    between atoms: C11_16  and  C12_17 
REMARK    7  A    between atoms: C12_17  and  C13_18 
REMARK    8  A    between atoms: C13_18  and  N4_19 
REMARK    9  A    between atoms: N4_19  and  C14_20 
ROOT
HETATM    1  C10 UNL     1      22.227   5.098  51.425  1.00  0.00     0.110 C 
HETATM    2  N3  UNL     1      21.662   4.991  50.284  1.00  0.00    -0.303 NA
ENDROOT
BRANCH   1   3
HETATM    3  C9  UNL     1      23.422   4.704  52.221  1.00  0.00     0.222 C 
BRANCH   3   4
HETATM    4  O2  UNL     1      23.499   3.295  52.377  1.00  0.00    -0.344 OA
BRANCH   4   5
HETATM    5  C8  UNL     1      24.756   2.679  52.545  1.00  0.00     0.101 C 
HETATM    6  C2  UNL     1      25.587   2.424  51.346  1.00  0.00     0.103 C 
HETATM    7  C3  UNL     1      26.777   1.787  51.363  1.00  0.00     0.069 C 
HETATM    8  C4  UNL     1      27.022   1.298  52.697  1.00  0.00     0.067 A 
HETATM    9  N1  UNL     1      27.814   0.331  53.070  1.00  0.00    -0.244 NA
HETATM   10  C6  UNL     1      26.414   1.798  53.915  1.00  0.00     0.186 A 
HETATM   11  C5  UNL     1      27.734   0.162  54.501  1.00  0.00     0.228 A 
HETATM   12  N2  UNL     1      26.888   1.036  54.991  1.00  0.00    -0.267 NA
HETATM   13  C7  UNL     1      25.101   2.370  53.813  1.00  0.00     0.046 C 
BRANCH   6  14
HETATM   14  O1  UNL     1      25.082   2.953  50.143  1.00  0.00    -0.353 OA
HETATM   15  C1  UNL     1      25.994   3.780  49.423  1.00  0.00     0.210 C 
ENDBRANCH   6  14
ENDBRANCH   4   5
ENDBRANCH   3   4
ENDBRANCH   1   3
BRANCH   2  16
HETATM   16  C11 UNL     1      22.227   4.254  49.224  1.00  0.00     0.149 C 
BRANCH  16  17
HETATM   17  C12 UNL     1      21.230   3.384  48.517  1.00  0.00     0.041 C 
BRANCH  17  18
HETATM   18  C13 UNL     1      21.416   1.955  48.874  1.00  0.00     0.121 C 
BRANCH  18  19
HETATM   19  N4  UNL     1      22.060   1.708  50.143  1.00  0.00    -0.390 N 
HETATM   20  H17 UNL     1      23.007   1.954  50.537  1.00  0.00     0.159 HD
BRANCH  19  21
HETATM   21  C14 UNL     1      21.232   0.979  51.070  1.00  0.00     0.029 A 
HETATM   22  C15 UNL     1      19.874   0.797  50.866  1.00  0.00     0.032 A 
HETATM   23  C16 UNL     1      19.018   0.118  51.698  1.00  0.00     0.046 A 
HETATM   24  C17 UNL     1      19.552  -0.433  52.837  1.00  0.00     0.138 A 
HETATM   25  F1  UNL     1      18.752  -1.114  53.693  1.00  0.00    -0.204 F 
HETATM   26  C18 UNL     1      20.895  -0.300  53.119  1.00  0.00     0.074 A 
HETATM   27 CL1  UNL     1      21.574  -1.006  54.574  1.00  0.00    -0.081 Cl
HETATM   28  C19 UNL     1      21.682   0.395  52.232  1.00  0.00     0.056 A 
ENDBRANCH  19  21
ENDBRANCH  18  19
ENDBRANCH  17  18
ENDBRANCH  16  17
ENDBRANCH   2  16
TORSDOF 9
ENDMDL
