MODEL 1
REMARK VINA RESULT:      -7.8      0.000      0.000
REMARK  2 active torsions:
REMARK  status: ('A' for Active; 'I' for Inactive)
REMARK    1  A    between atoms: N1_8  and  C8_9 
REMARK    2  A    between atoms: C11_12  and  O1_13 
ROOT
HETATM    1  C1  UNL     1      21.437   1.190  48.851  1.00  0.00     0.061 C 
HETATM    2  C2  UNL     1      21.776   2.457  49.034  1.00  0.00     0.023 C 
HETATM    3  C3  UNL     1      22.762   3.064  48.141  1.00  0.00     0.106 A 
HETATM    4  C4  UNL     1      21.898   3.489  46.969  1.00  0.00    -0.010 A 
HETATM    5  C5  UNL     1      21.909   4.786  46.692  1.00  0.00    -0.001 A 
HETATM    6  C6  UNL     1      22.832   5.347  47.712  1.00  0.00     0.026 A 
HETATM    7  C7  UNL     1      23.316   4.379  48.527  1.00  0.00     0.027 A 
HETATM    8  N1  UNL     1      24.220   5.079  49.443  1.00  0.00    -0.332 N 
HETATM    9  C16 UNL     1      24.056   5.311  50.887  1.00  0.00     0.253 C 
HETATM   10  N2  UNL     1      22.698   5.821  51.195  1.00  0.00    -0.360 N 
HETATM   11  C17 UNL     1      21.582   4.893  51.095  1.00  0.00     0.122 C 
HETATM   12  N3  UNL     1      21.539   4.393  52.255  1.00  0.00    -0.225 NA
HETATM   13  C18 UNL     1      21.080   3.024  52.451  1.00  0.00     0.257 C 
HETATM   14  N4  UNL     1      20.713   2.321  51.377  1.00  0.00    -0.165 NA
HETATM   15  N5  UNL     1      21.044   2.943  50.138  1.00  0.00    -0.269 N 
HETATM   16  C19 UNL     1      20.512   4.319  50.201  1.00  0.00     0.229 C 
HETATM   17  H18 UNL     1      22.259   6.723  51.487  1.00  0.00     0.162 HD
ENDROOT
BRANCH   8  18
HETATM   18  C8  UNL     1      25.475   5.607  48.954  1.00  0.00     0.042 A 
HETATM   19  C9  UNL     1      25.853   6.821  48.440  1.00  0.00     0.033 A 
HETATM   20  C10 UNL     1      27.137   7.099  48.056  1.00  0.00     0.039 A 
HETATM   21  C11 UNL     1      28.138   6.160  48.165  1.00  0.00     0.068 A 
HETATM   22  C13 UNL     1      27.758   4.942  48.681  1.00  0.00     0.045 A 
HETATM   23  C14 UNL     1      26.449   4.631  49.082  1.00  0.00    -0.032 A 
HETATM   24  C15 UNL     1      26.259   3.231  49.611  1.00  0.00     0.050 C 
BRANCH  21  25
HETATM   25  O1  UNL     1      29.432   6.450  47.774  1.00  0.00    -0.356 OA
HETATM   26  C12 UNL     1      30.456   5.495  47.931  1.00  0.00     0.210 C 
ENDBRANCH  21  25
ENDBRANCH   8  18
TORSDOF 2
ENDMDL
MODEL 2
REMARK VINA RESULT:      -7.3      4.929      6.771
REMARK  2 active torsions:
REMARK  status: ('A' for Active; 'I' for Inactive)
REMARK    1  A    between atoms: N1_8  and  C8_9 
REMARK    2  A    between atoms: C11_12  and  O1_13 
ROOT
HETATM    1  C1  UNL     1      26.946  -2.445  52.238  1.00  0.00     0.061 C 
HETATM    2  C2  UNL     1      26.720  -1.224  52.696  1.00  0.00     0.023 C 
HETATM    3  C3  UNL     1      25.512  -0.519  52.271  1.00  0.00     0.106 A 
HETATM    4  C4  UNL     1      24.481  -1.051  53.249  1.00  0.00    -0.010 A 
HETATM    5  C5  UNL     1      23.884  -0.138  54.002  1.00  0.00    -0.001 A 
HETATM    6  C6  UNL     1      24.504   1.136  53.555  1.00  0.00     0.026 A 
HETATM    7  C7  UNL     1      25.420   0.925  52.579  1.00  0.00     0.027 A 
HETATM    8  N1  UNL     1      25.910   2.260  52.231  1.00  0.00    -0.332 N 
HETATM    9  C16 UNL     1      27.246   2.831  52.465  1.00  0.00     0.253 C 
HETATM   10  N2  UNL     1      27.694   2.589  53.856  1.00  0.00    -0.360 N 
HETATM   11  C17 UNL     1      28.076   1.234  54.224  1.00  0.00     0.122 C 
HETATM   12  N3  UNL     1      29.308   1.212  53.940  1.00  0.00    -0.225 NA
HETATM   13  C18 UNL     1      29.943  -0.027  53.510  1.00  0.00     0.257 C 
HETATM   14  N4  UNL     1      29.190  -1.126  53.424  1.00  0.00    -0.165 NA
HETATM   15  N5  UNL     1      27.790  -0.879  53.547  1.00  0.00    -0.269 N 
HETATM   16  C19 UNL     1      27.609  -0.087  54.780  1.00  0.00     0.229 C 
HETATM   17  H18 UNL     1      27.830   3.143  54.732  1.00  0.00     0.162 HD
ENDROOT
BRANCH   8  18
HETATM   18  C8  UNL     1      25.046   3.186  51.531  1.00  0.00     0.042 A 
HETATM   19  C9  UNL     1      23.977   3.955  51.915  1.00  0.00     0.033 A 
HETATM   20  C10 UNL     1      23.316   4.792  51.056  1.00  0.00     0.039 A 
HETATM   21  C11 UNL     1      23.693   4.910  49.737  1.00  0.00     0.068 A 
HETATM   22  C13 UNL     1      24.765   4.139  49.353  1.00  0.00     0.045 A 
HETATM   23  C14 UNL     1      25.460   3.273  50.212  1.00  0.00    -0.032 A 
HETATM   24  C15 UNL     1      26.600   2.518  49.573  1.00  0.00     0.050 C 
BRANCH  21  25
HETATM   25  O1  UNL     1      23.018   5.758  48.878  1.00  0.00    -0.356 OA
HETATM   26  C12 UNL     1      22.599   5.304  47.611  1.00  0.00     0.210 C 
ENDBRANCH  21  25
ENDBRANCH   8  18
TORSDOF 2
ENDMDL
MODEL 3
REMARK VINA RESULT:      -7.3      3.713      5.442
REMARK  2 active torsions:
REMARK  status: ('A' for Active; 'I' for Inactive)
REMARK    1  A    between atoms: N1_8  and  C8_9 
REMARK    2  A    between atoms: C11_12  and  O1_13 
ROOT
HETATM    1  C1  UNL     1      18.782   4.006  51.356  1.00  0.00     0.061 C 
HETATM    2  C2  UNL     1      19.803   3.290  50.913  1.00  0.00     0.023 C 
HETATM    3  C3  UNL     1      20.560   2.472  51.860  1.00  0.00     0.106 A 
HETATM    4  C4  UNL     1      19.726   1.207  51.914  1.00  0.00    -0.010 A 
HETATM    5  C5  UNL     1      20.352   0.094  51.557  1.00  0.00    -0.001 A 
HETATM    6  C6  UNL     1      21.722   0.563  51.224  1.00  0.00     0.026 A 
HETATM    7  C7  UNL     1      21.843   1.901  51.396  1.00  0.00     0.027 A 
HETATM    8  N1  UNL     1      23.238   2.196  51.062  1.00  0.00    -0.332 N 
HETATM    9  C16 UNL     1      23.760   2.950  49.910  1.00  0.00     0.253 C 
HETATM   10  N2  UNL     1      23.130   2.498  48.647  1.00  0.00    -0.360 N 
HETATM   11  C17 UNL     1      21.742   2.861  48.408  1.00  0.00     0.122 C 
HETATM   12  N3  UNL     1      21.848   3.979  47.828  1.00  0.00    -0.225 NA
HETATM   13  C18 UNL     1      20.816   4.995  47.989  1.00  0.00     0.257 C 
HETATM   14  N4  UNL     1      19.767   4.712  48.765  1.00  0.00    -0.165 NA
HETATM   15  N5  UNL     1      19.917   3.514  49.526  1.00  0.00    -0.269 N 
HETATM   16  C19 UNL     1      20.300   2.454  48.572  1.00  0.00     0.229 C 
HETATM   17  H18 UNL     1      23.404   1.949  47.800  1.00  0.00     0.162 HD
ENDROOT
BRANCH   8  18
HETATM   18  C8  UNL     1      24.299   1.761  51.944  1.00  0.00     0.042 A 
HETATM   19  C9  UNL     1      25.081   0.635  51.997  1.00  0.00     0.033 A 
HETATM   20  C10 UNL     1      26.061   0.454  52.936  1.00  0.00     0.039 A 
HETATM   21  C11 UNL     1      26.320   1.406  53.896  1.00  0.00     0.068 A 
HETATM   22  C13 UNL     1      25.535   2.535  53.841  1.00  0.00     0.045 A 
HETATM   23  C14 UNL     1      24.524   2.746  52.890  1.00  0.00    -0.032 A 
HETATM   24  C15 UNL     1      23.784   4.054  53.025  1.00  0.00     0.050 C 
BRANCH  21  25
HETATM   25  O1  UNL     1      27.312   1.213  54.840  1.00  0.00    -0.356 OA
HETATM   26  C12 UNL     1      28.222   0.146  54.710  1.00  0.00     0.210 C 
ENDBRANCH  21  25
ENDBRANCH   8  18
TORSDOF 2
ENDMDL
MODEL 4
REMARK VINA RESULT:      -7.1      3.576      6.197
REMARK  2 active torsions:
REMARK  status: ('A' for Active; 'I' for Inactive)
REMARK    1  A    between atoms: N1_8  and  C8_9 
REMARK    2  A    between atoms: C11_12  and  O1_13 
ROOT
HETATM    1  C1  UNL     1      20.304   5.996  48.164  1.00  0.00     0.061 C 
HETATM    2  C2  UNL     1      21.368   5.399  48.678  1.00  0.00     0.023 C 
HETATM    3  C3  UNL     1      21.284   3.982  49.032  1.00  0.00     0.106 A 
HETATM    4  C4  UNL     1      21.578   3.312  47.704  1.00  0.00    -0.010 A 
HETATM    5  C5  UNL     1      22.632   2.508  47.691  1.00  0.00    -0.001 A 
HETATM    6  C6  UNL     1      23.142   2.587  49.085  1.00  0.00     0.026 A 
HETATM    7  C7  UNL     1      22.384   3.415  49.842  1.00  0.00     0.027 A 
HETATM    8  N1  UNL     1      22.989   3.362  51.175  1.00  0.00    -0.332 N 
HETATM    9  C16 UNL     1      23.712   4.425  51.891  1.00  0.00     0.253 C 
HETATM   10  N2  UNL     1      24.722   5.067  51.016  1.00  0.00    -0.360 N 
HETATM   11  C17 UNL     1      24.248   5.939  49.954  1.00  0.00     0.122 C 
HETATM   12  N3  UNL     1      24.191   7.064  50.529  1.00  0.00    -0.225 NA
HETATM   13  C18 UNL     1      23.199   8.051  50.124  1.00  0.00     0.257 C 
HETATM   14  N4  UNL     1      22.358   7.732  49.138  1.00  0.00    -0.165 NA
HETATM   15  N5  UNL     1      22.399   6.356  48.764  1.00  0.00    -0.269 N 
HETATM   16  C19 UNL     1      23.817   6.030  48.512  1.00  0.00     0.229 C 
HETATM   17  H18 UNL     1      25.763   5.085  50.921  1.00  0.00     0.162 HD
ENDROOT
BRANCH   8  18
HETATM   18  C8  UNL     1      22.874   2.160  51.972  1.00  0.00     0.042 A 
HETATM   19  C9  UNL     1      23.734   1.131  52.260  1.00  0.00     0.033 A 
HETATM   20  C10 UNL     1      23.397   0.087  53.079  1.00  0.00     0.039 A 
HETATM   21  C11 UNL     1      22.155   0.009  53.669  1.00  0.00     0.068 A 
HETATM   22  C13 UNL     1      21.293   1.042  53.380  1.00  0.00     0.045 A 
HETATM   23  C14 UNL     1      21.613   2.123  52.544  1.00  0.00    -0.032 A 
HETATM   24  C15 UNL     1      20.510   3.137  52.362  1.00  0.00     0.050 C 
BRANCH  21  25
HETATM   25  O1  UNL     1      21.825  -1.050  54.494  1.00  0.00    -0.356 OA
HETATM   26  C12 UNL     1      22.779  -1.589  55.380  1.00  0.00     0.210 C 
ENDBRANCH  21  25
ENDBRANCH   8  18
TORSDOF 2
ENDMDL
MODEL 5
REMARK VINA RESULT:      -7.0      3.667      5.509
REMARK  2 active torsions:
REMARK  status: ('A' for Active; 'I' for Inactive)
REMARK    1  A    between atoms: N1_8  and  C8_9 
REMARK    2  A    between atoms: C11_12  and  O1_13 
ROOT
HETATM    1  C1  UNL     1      23.228   5.051  48.795  1.00  0.00     0.061 C 
HETATM    2  C2  UNL     1      23.045   4.259  49.840  1.00  0.00     0.023 C 
HETATM    3  C3  UNL     1      24.079   4.197  50.872  1.00  0.00     0.106 A 
HETATM    4  C4  UNL     1      23.723   5.388  51.741  1.00  0.00    -0.010 A 
HETATM    5  C5  UNL     1      23.451   5.110  53.009  1.00  0.00    -0.001 A 
HETATM    6  C6  UNL     1      23.620   3.635  53.080  1.00  0.00     0.026 A 
HETATM    7  C7  UNL     1      23.975   3.119  51.879  1.00  0.00     0.027 A 
HETATM    8  N1  UNL     1      24.129   1.683  52.120  1.00  0.00    -0.332 N 
HETATM    9  C16 UNL     1      23.294   0.579  51.620  1.00  0.00     0.253 C 
HETATM   10  N2  UNL     1      21.854   0.867  51.817  1.00  0.00    -0.360 N 
HETATM   11  C17 UNL     1      21.238   1.877  50.970  1.00  0.00     0.122 C 
HETATM   12  N3  UNL     1      20.854   1.201  49.974  1.00  0.00    -0.225 NA
HETATM   13  C18 UNL     1      20.803   1.803  48.648  1.00  0.00     0.257 C 
HETATM   14  N4  UNL     1      21.174   3.079  48.520  1.00  0.00    -0.165 NA
HETATM   15  N5  UNL     1      21.798   3.620  49.683  1.00  0.00    -0.269 N 
HETATM   16  C19 UNL     1      20.895   3.337  50.816  1.00  0.00     0.229 C 
HETATM   17  H18 UNL     1      21.076   0.538  52.434  1.00  0.00     0.162 HD
ENDROOT
BRANCH   8  18
HETATM   18  C8  UNL     1      25.241   1.199  52.910  1.00  0.00     0.042 A 
HETATM   19  C9  UNL     1      25.340   0.635  54.156  1.00  0.00     0.033 A 
HETATM   20  C10 UNL     1      26.530   0.227  54.696  1.00  0.00     0.039 A 
HETATM   21  C11 UNL     1      27.715   0.362  54.007  1.00  0.00     0.068 A 
HETATM   22  C13 UNL     1      27.614   0.928  52.757  1.00  0.00     0.045 A 
HETATM   23  C14 UNL     1      26.407   1.355  52.180  1.00  0.00    -0.032 A 
HETATM   24  C15 UNL     1      26.535   1.954  50.801  1.00  0.00     0.050 C 
BRANCH  21  25
HETATM   25  O1  UNL     1      28.911  -0.053  54.561  1.00  0.00    -0.356 OA
HETATM   26  C12 UNL     1      29.796  -0.864  53.822  1.00  0.00     0.210 C 
ENDBRANCH  21  25
ENDBRANCH   8  18
TORSDOF 2
ENDMDL
MODEL 6
REMARK VINA RESULT:      -6.9      1.872      3.668
REMARK  2 active torsions:
REMARK  status: ('A' for Active; 'I' for Inactive)
REMARK    1  A    between atoms: N1_8  and  C8_9 
REMARK    2  A    between atoms: C11_12  and  O1_13 
ROOT
HETATM    1  C1  UNL     1      20.440   2.474  52.754  1.00  0.00     0.061 C 
HETATM    2  C2  UNL     1      21.306   2.518  51.754  1.00  0.00     0.023 C 
HETATM    3  C3  UNL     1      22.603   3.159  51.966  1.00  0.00     0.106 A 
HETATM    4  C4  UNL     1      23.409   2.032  52.584  1.00  0.00    -0.010 A 
HETATM    5  C5  UNL     1      24.499   1.678  51.917  1.00  0.00    -0.001 A 
HETATM    6  C6  UNL     1      24.499   2.594  50.747  1.00  0.00     0.026 A 
HETATM    7  C7  UNL     1      23.434   3.431  50.773  1.00  0.00     0.027 A 
HETATM    8  N1  UNL     1      23.593   4.277  49.588  1.00  0.00    -0.332 N 
HETATM    9  C16 UNL     1      22.766   4.307  48.371  1.00  0.00     0.253 C 
HETATM   10  N2  UNL     1      22.522   2.938  47.858  1.00  0.00    -0.360 N 
HETATM   11  C17 UNL     1      21.609   2.083  48.602  1.00  0.00     0.122 C 
HETATM   12  N3  UNL     1      20.491   2.360  48.082  1.00  0.00    -0.225 NA
HETATM   13  C18 UNL     1      19.271   2.291  48.875  1.00  0.00     0.257 C 
HETATM   14  N4  UNL     1      19.371   1.932  50.157  1.00  0.00    -0.165 NA
HETATM   15  N5  UNL     1      20.711   1.887  50.642  1.00  0.00    -0.269 N 
HETATM   16  C19 UNL     1      21.475   1.052  49.693  1.00  0.00     0.229 C 
HETATM   17  H18 UNL     1      22.833   2.346  47.054  1.00  0.00     0.162 HD
ENDROOT
BRANCH   8  18
HETATM   18  C8  UNL     1      24.651   5.263  49.543  1.00  0.00     0.042 A 
HETATM   19  C9  UNL     1      25.894   5.289  48.963  1.00  0.00     0.033 A 
HETATM   20  C10 UNL     1      26.728   6.372  49.042  1.00  0.00     0.039 A 
HETATM   21  C11 UNL     1      26.361   7.514  49.718  1.00  0.00     0.068 A 
HETATM   22  C13 UNL     1      25.114   7.486  50.298  1.00  0.00     0.045 A 
HETATM   23  C14 UNL     1      24.240   6.390  50.234  1.00  0.00    -0.032 A 
HETATM   24  C15 UNL     1      22.925   6.579  50.951  1.00  0.00     0.050 C 
BRANCH  21  25
HETATM   25  O1  UNL     1      27.211   8.601  49.791  1.00  0.00    -0.356 OA
HETATM   26  C12 UNL     1      28.380   8.648  49.005  1.00  0.00     0.210 C 
ENDBRANCH  21  25
ENDBRANCH   8  18
TORSDOF 2
ENDMDL
MODEL 7
REMARK VINA RESULT:      -6.7      5.019      8.738
REMARK  2 active torsions:
REMARK  status: ('A' for Active; 'I' for Inactive)
REMARK    1  A    between atoms: N1_8  and  C8_9 
REMARK    2  A    between atoms: C11_12  and  O1_13 
ROOT
HETATM    1  C1  UNL     1      27.303  12.631  46.269  1.00  0.00     0.061 C 
HETATM    2  C2  UNL     1      28.053  11.581  46.564  1.00  0.00     0.023 C 
HETATM    3  C3  UNL     1      27.516  10.240  46.342  1.00  0.00     0.106 A 
HETATM    4  C4  UNL     1      27.828  10.020  44.874  1.00  0.00    -0.010 A 
HETATM    5  C5  UNL     1      28.600   8.977  44.603  1.00  0.00    -0.001 A 
HETATM    6  C6  UNL     1      28.870   8.393  45.943  1.00  0.00     0.026 A 
HETATM    7  C7  UNL     1      28.259   9.101  46.923  1.00  0.00     0.027 A 
HETATM    8  N1  UNL     1      28.592   8.391  48.160  1.00  0.00    -0.332 N 
HETATM    9  C16 UNL     1      29.455   8.840  49.265  1.00  0.00     0.253 C 
HETATM   10  N2  UNL     1      30.736   9.383  48.756  1.00  0.00    -0.360 N 
HETATM   11  C17 UNL     1      30.713  10.676  48.089  1.00  0.00     0.122 C 
HETATM   12  N3  UNL     1      30.880  11.481  49.050  1.00  0.00    -0.225 NA
HETATM   13  C18 UNL     1      30.288  12.811  49.009  1.00  0.00     0.257 C 
HETATM   14  N4  UNL     1      29.569  13.150  47.936  1.00  0.00    -0.165 NA
HETATM   15  N5  UNL     1      29.283  12.058  47.063  1.00  0.00    -0.269 N 
HETATM   16  C19 UNL     1      30.573  11.400  46.775  1.00  0.00     0.229 C 
HETATM   17  H18 UNL     1      31.741   9.094  48.726  1.00  0.00     0.162 HD
ENDROOT
BRANCH   8  18
HETATM   18  C8  UNL     1      28.011   7.093  48.426  1.00  0.00     0.042 A 
HETATM   19  C9  UNL     1      28.457   5.807  48.263  1.00  0.00     0.033 A 
HETATM   20  C10 UNL     1      27.716   4.712  48.617  1.00  0.00     0.039 A 
HETATM   21  C11 UNL     1      26.460   4.842  49.166  1.00  0.00     0.068 A 
HETATM   22  C13 UNL     1      26.013   6.133  49.330  1.00  0.00     0.045 A 
HETATM   23  C14 UNL     1      26.752   7.273  48.975  1.00  0.00    -0.032 A 
HETATM   24  C15 UNL     1      26.061   8.588  49.237  1.00  0.00     0.050 C 
BRANCH  21  25
HETATM   25  O1  UNL     1      25.719   3.729  49.520  1.00  0.00    -0.356 OA
HETATM   26  C12 UNL     1      26.002   3.034  50.712  1.00  0.00     0.210 C 
ENDBRANCH  21  25
ENDBRANCH   8  18
TORSDOF 2
ENDMDL
MODEL 8
REMARK VINA RESULT:      -6.4      1.871      3.405
REMARK  2 active torsions:
REMARK  status: ('A' for Active; 'I' for Inactive)
REMARK    1  A    between atoms: N1_8  and  C8_9 
REMARK    2  A    between atoms: C11_12  and  O1_13 
ROOT
HETATM    1  C1  UNL     1      21.678   4.036  52.485  1.00  0.00     0.061 C 
HETATM    2  C2  UNL     1      22.345   4.155  51.348  1.00  0.00     0.023 C 
HETATM    3  C3  UNL     1      23.768   4.487  51.392  1.00  0.00     0.106 A 
HETATM    4  C4  UNL     1      24.400   3.123  51.593  1.00  0.00    -0.010 A 
HETATM    5  C5  UNL     1      25.252   2.744  50.650  1.00  0.00    -0.001 A 
HETATM    6  C6  UNL     1      25.252   3.890  49.705  1.00  0.00     0.026 A 
HETATM    7  C7  UNL     1      24.419   4.874  50.121  1.00  0.00     0.027 A 
HETATM    8  N1  UNL     1      24.553   5.929  49.114  1.00  0.00    -0.332 N 
HETATM    9  C16 UNL     1      23.555   6.387  48.134  1.00  0.00     0.253 C 
HETATM   10  N2  UNL     1      22.929   5.240  47.435  1.00  0.00    -0.360 N 
HETATM   11  C17 UNL     1      21.993   4.414  48.182  1.00  0.00     0.122 C 
HETATM   12  N3  UNL     1      20.891   4.999  47.980  1.00  0.00    -0.225 NA
HETATM   13  C18 UNL     1      19.842   4.967  48.991  1.00  0.00     0.257 C 
HETATM   14  N4  UNL     1      20.081   4.309  50.128  1.00  0.00    -0.165 NA
HETATM   15  N5  UNL     1      21.442   3.914  50.292  1.00  0.00    -0.269 N 
HETATM   16  C19 UNL     1      21.825   3.199  49.059  1.00  0.00     0.229 C 
HETATM   17  H18 UNL     1      22.957   4.805  46.485  1.00  0.00     0.162 HD
ENDROOT
BRANCH   8  18
HETATM   18  C8  UNL     1      25.779   6.694  49.029  1.00  0.00     0.042 A 
HETATM   19  C9  UNL     1      26.920   6.568  48.279  1.00  0.00     0.033 A 
HETATM   20  C10 UNL     1      27.964   7.451  48.360  1.00  0.00     0.039 A 
HETATM   21  C11 UNL     1      27.926   8.532  49.213  1.00  0.00     0.068 A 
HETATM   22  C13 UNL     1      26.780   8.656  49.964  1.00  0.00     0.045 A 
HETATM   23  C14 UNL     1      25.696   7.766  49.902  1.00  0.00    -0.032 A 
HETATM   24  C15 UNL     1      24.546   8.094  50.822  1.00  0.00     0.050 C 
BRANCH  21  25
HETATM   25  O1  UNL     1      28.985   9.417  49.287  1.00  0.00    -0.356 OA
HETATM   26  C12 UNL     1      30.312   8.947  49.237  1.00  0.00     0.210 C 
ENDBRANCH  21  25
ENDBRANCH   8  18
TORSDOF 2
ENDMDL
MODEL 9
REMARK VINA RESULT:      -6.3      4.029      7.925
REMARK  2 active torsions:
REMARK  status: ('A' for Active; 'I' for Inactive)
REMARK    1  A    between atoms: N1_8  and  C8_9 
REMARK    2  A    between atoms: C11_12  and  O1_13 
ROOT
HETATM    1  C1  UNL     1      28.965  10.118  45.229  1.00  0.00     0.061 C 
HETATM    2  C2  UNL     1      28.812   9.537  46.409  1.00  0.00     0.023 C 
HETATM    3  C3  UNL     1      28.351   8.150  46.462  1.00  0.00     0.106 A 
HETATM    4  C4  UNL     1      29.649   7.385  46.280  1.00  0.00    -0.010 A 
HETATM    5  C5  UNL     1      29.971   6.563  47.269  1.00  0.00    -0.001 A 
HETATM    6  C6  UNL     1      28.850   6.727  48.231  1.00  0.00     0.026 A 
HETATM    7  C7  UNL     1      27.936   7.618  47.779  1.00  0.00     0.027 A 
HETATM    8  N1  UNL     1      26.896   7.644  48.810  1.00  0.00    -0.332 N 
HETATM    9  C16 UNL     1      26.552   8.740  49.731  1.00  0.00     0.253 C 
HETATM   10  N2  UNL     1      27.766   9.301  50.369  1.00  0.00    -0.360 N 
HETATM   11  C17 UNL     1      28.657  10.109  49.550  1.00  0.00     0.122 C 
HETATM   12  N3  UNL     1      28.178  11.271  49.690  1.00  0.00    -0.225 NA
HETATM   13  C18 UNL     1      28.281  12.246  48.613  1.00  0.00     0.257 C 
HETATM   14  N4  UNL     1      28.889  11.877  47.483  1.00  0.00    -0.165 NA
HETATM   15  N5  UNL     1      29.156  10.479  47.400  1.00  0.00    -0.269 N 
HETATM   16  C19 UNL     1      29.862  10.110  48.644  1.00  0.00     0.229 C 
HETATM   17  H18 UNL     1      28.218   9.293  51.312  1.00  0.00     0.162 HD
ENDROOT
BRANCH   8  18
HETATM   18  C8  UNL     1      26.026   6.501  48.986  1.00  0.00     0.042 A 
HETATM   19  C9  UNL     1      26.109   5.359  49.741  1.00  0.00     0.033 A 
HETATM   20  C10 UNL     1      25.124   4.408  49.760  1.00  0.00     0.039 A 
HETATM   21  C11 UNL     1      23.977   4.547  49.010  1.00  0.00     0.068 A 
HETATM   22  C13 UNL     1      23.896   5.693  48.254  1.00  0.00     0.045 A 
HETATM   23  C14 UNL     1      24.890   6.683  48.216  1.00  0.00    -0.032 A 
HETATM   24  C15 UNL     1      24.592   7.853  47.310  1.00  0.00     0.050 C 
BRANCH  21  25
HETATM   25  O1  UNL     1      22.989   3.580  49.036  1.00  0.00    -0.356 OA
HETATM   26  C12 UNL     1      23.075   2.496  49.932  1.00  0.00     0.210 C 
ENDBRANCH  21  25
ENDBRANCH   8  18
TORSDOF 2
ENDMDL
