MODEL 1
REMARK VINA RESULT:      -8.9      0.000      0.000
REMARK  6 active torsions:
REMARK  status: ('A' for Active; 'I' for Inactive)
REMARK    1  A    between atoms: O1_1  and  C1_2 
REMARK    2  A    between atoms: C1_2  and  C2_3 
REMARK    3  A    between atoms: C2_3  and  N1_4 
REMARK    4  A    between atoms: C4_6  and  C5_7 
REMARK    5  A    between atoms: C8_11  and  P1_12 
REMARK    6  A    between atoms: P1_12  and  C9_13 
ROOT
HETATM    1  C5  UNL     1      25.274   5.217  49.398  1.00  0.00     0.088 A 
HETATM    2  C6  UNL     1      24.181   5.377  48.582  1.00  0.00     0.148 A 
HETATM    3  N2  UNL     1      22.975   4.960  49.009  1.00  0.00    -0.268 NA
HETATM    4  C7  UNL     1      22.802   4.390  50.209  1.00  0.00     0.148 A 
HETATM    5  C8  UNL     1      23.891   4.223  51.039  1.00  0.00     0.077 A 
HETATM    6  N5  UNL     1      25.099   4.643  50.609  1.00  0.00    -0.245 NA
ENDROOT
BRANCH   5   7
HETATM    7  P1  UNL     1      23.870   3.471  52.714  1.00  0.00    -0.045 P 
HETATM    8  H9  UNL     1      24.199   4.454  53.716  1.00  0.00     0.066 HD
BRANCH   7   9
HETATM    9  C9  UNL     1      25.081   2.060  52.834  1.00  0.00     0.165 C 
HETATM   10  C10 UNL     1      24.347   0.874  53.319  1.00  0.00     0.061 C 
HETATM   11  C11 UNL     1      24.859  -0.436  52.937  1.00  0.00    -0.023 C 
HETATM   12  C12 UNL     1      26.049  -1.057  52.872  1.00  0.00     0.010 C 
HETATM   13  C13 UNL     1      27.360  -0.483  53.227  1.00  0.00    -0.006 A 
HETATM   14  C14 UNL     1      28.187  -1.595  53.035  1.00  0.00     0.014 A 
HETATM   15  C18 UNL     1      27.873   0.732  53.646  1.00  0.00     0.089 A 
HETATM   16  C15 UNL     1      29.547  -1.515  53.257  1.00  0.00     0.001 A 
HETATM   17  C16 UNL     1      30.067  -0.291  53.680  1.00  0.00     0.002 A 
HETATM   18  C17 UNL     1      29.241   0.798  53.866  1.00  0.00     0.034 A 
HETATM   19  N3  UNL     1      27.306   2.008  53.925  1.00  0.00    -0.154 NA
HETATM   20  N4  UNL     1      26.191   2.524  53.593  1.00  0.00    -0.182 NA
ENDBRANCH   7   9
ENDBRANCH   5   7
BRANCH   1  21
HETATM   21  C4  UNL     1      26.601   5.653  48.978  1.00  0.00     0.030 A 
HETATM   22  C3  UNL     1      27.628   4.788  48.628  1.00  0.00     0.127 A 
HETATM   23  N1  UNL     1      28.636   5.653  48.321  1.00  0.00    -0.278 N 
HETATM   24  N6  UNL     1      28.283   6.917  48.463  1.00  0.00    -0.184 NA
HETATM   25  C19 UNL     1      27.005   6.966  48.876  1.00  0.00     0.154 A 
BRANCH  23  26
HETATM   26  C2  UNL     1      29.959   5.248  47.884  1.00  0.00     0.176 C 
BRANCH  26  27
HETATM   27  C1  UNL     1      31.028   5.970  48.696  1.00  0.00     0.185 C 
BRANCH  27  28
HETATM   28  O1  UNL     1      30.891   5.581  50.023  1.00  0.00    -0.399 OA
HETATM   29  H1  UNL     1      30.395   6.287  50.522  1.00  0.00     0.209 HD
ENDBRANCH  27  28
ENDBRANCH  26  27
ENDBRANCH  23  26
ENDBRANCH   1  21
TORSDOF 6
ENDMDL
MODEL 2
REMARK VINA RESULT:      -8.6      2.866      7.147
REMARK  6 active torsions:
REMARK  status: ('A' for Active; 'I' for Inactive)
REMARK    1  A    between atoms: O1_1  and  C1_2 
REMARK    2  A    between atoms: C1_2  and  C2_3 
REMARK    3  A    between atoms: C2_3  and  N1_4 
REMARK    4  A    between atoms: C4_6  and  C5_7 
REMARK    5  A    between atoms: C8_11  and  P1_12 
REMARK    6  A    between atoms: P1_12  and  C9_13 
ROOT
HETATM    1  C5  UNL     1      24.137  -0.498  54.207  1.00  0.00     0.088 A 
HETATM    2  C6  UNL     1      23.606  -1.319  55.171  1.00  0.00     0.148 A 
HETATM    3  N2  UNL     1      22.275  -1.332  55.364  1.00  0.00    -0.268 NA
HETATM    4  C7  UNL     1      21.444  -0.567  54.643  1.00  0.00     0.148 A 
HETATM    5  C8  UNL     1      21.963   0.263  53.672  1.00  0.00     0.077 A 
HETATM    6  N5  UNL     1      23.298   0.273  53.481  1.00  0.00    -0.245 NA
ENDROOT
BRANCH   5   7
HETATM    7  P1  UNL     1      21.003   1.384  52.580  1.00  0.00    -0.045 P 
HETATM    8  H9  UNL     1      20.434   0.653  51.475  1.00  0.00     0.066 HD
BRANCH   7   9
HETATM    9  C9  UNL     1      22.076   2.751  51.908  1.00  0.00     0.165 C 
HETATM   10  C10 UNL     1      21.203   3.902  51.602  1.00  0.00     0.061 C 
HETATM   11  C11 UNL     1      21.800   5.231  51.653  1.00  0.00    -0.023 C 
HETATM   12  C12 UNL     1      22.928   5.830  51.236  1.00  0.00     0.010 C 
HETATM   13  C13 UNL     1      24.037   5.197  50.498  1.00  0.00    -0.006 A 
HETATM   14  C14 UNL     1      24.864   6.304  50.281  1.00  0.00     0.014 A 
HETATM   15  C18 UNL     1      24.385   3.938  50.042  1.00  0.00     0.089 A 
HETATM   16  C15 UNL     1      26.059   6.175  49.602  1.00  0.00     0.001 A 
HETATM   17  C16 UNL     1      26.413   4.906  49.141  1.00  0.00     0.002 A 
HETATM   18  C17 UNL     1      25.588   3.822  49.362  1.00  0.00     0.034 A 
HETATM   19  N3  UNL     1      23.773   2.654  50.104  1.00  0.00    -0.154 NA
HETATM   20  N4  UNL     1      22.853   2.195  50.854  1.00  0.00    -0.182 NA
ENDBRANCH   7   9
ENDBRANCH   5   7
BRANCH   1  21
HETATM   21  C4  UNL     1      25.575  -0.450  53.964  1.00  0.00     0.030 A 
HETATM   22  C3  UNL     1      26.490   0.125  54.833  1.00  0.00     0.127 A 
HETATM   23  N1  UNL     1      27.670  -0.076  54.179  1.00  0.00    -0.278 N 
HETATM   24  N6  UNL     1      27.511  -0.704  53.028  1.00  0.00    -0.184 NA
HETATM   25  C19 UNL     1      26.205  -0.961  52.851  1.00  0.00     0.154 A 
BRANCH  23  26
HETATM   26  C2  UNL     1      28.965   0.347  54.674  1.00  0.00     0.176 C 
BRANCH  26  27
HETATM   27  C1  UNL     1      29.208   1.813  54.338  1.00  0.00     0.185 C 
BRANCH  27  28
HETATM   28  O1  UNL     1      29.028   1.972  52.969  1.00  0.00    -0.399 OA
HETATM   29  H1  UNL     1      29.477   1.222  52.490  1.00  0.00     0.209 HD
ENDBRANCH  27  28
ENDBRANCH  26  27
ENDBRANCH  23  26
ENDBRANCH   1  21
TORSDOF 6
ENDMDL
MODEL 3
REMARK VINA RESULT:      -8.3      2.253      7.004
REMARK  6 active torsions:
REMARK  status: ('A' for Active; 'I' for Inactive)
REMARK    1  A    between atoms: O1_1  and  C1_2 
REMARK    2  A    between atoms: C1_2  and  C2_3 
REMARK    3  A    between atoms: C2_3  and  N1_4 
REMARK    4  A    between atoms: C4_6  and  C5_7 
REMARK    5  A    between atoms: C8_11  and  P1_12 
REMARK    6  A    between atoms: P1_12  and  C9_13 
ROOT
HETATM    1  C5  UNL     1      23.833   1.076  52.894  1.00  0.00     0.088 A 
HETATM    2  C6  UNL     1      22.887   0.262  52.323  1.00  0.00     0.148 A 
HETATM    3  N2  UNL     1      21.813   0.815  51.731  1.00  0.00    -0.268 NA
HETATM    4  C7  UNL     1      21.633   2.142  51.679  1.00  0.00     0.148 A 
HETATM    5  C8  UNL     1      22.575   2.973  52.249  1.00  0.00     0.077 A 
HETATM    6  N5  UNL     1      23.651   2.415  52.841  1.00  0.00    -0.245 NA
ENDROOT
BRANCH   5   7
HETATM    7  P1  UNL     1      22.519   4.807  52.286  1.00  0.00    -0.045 P 
HETATM    8  H9  UNL     1      21.260   5.287  51.772  1.00  0.00     0.066 HD
BRANCH   7   9
HETATM    9  C9  UNL     1      23.902   5.544  51.277  1.00  0.00     0.165 C 
HETATM   10  C10 UNL     1      23.370   6.734  50.583  1.00  0.00     0.061 C 
HETATM   11  C11 UNL     1      24.313   7.794  50.248  1.00  0.00    -0.023 C 
HETATM   12  C12 UNL     1      25.546   7.898  49.724  1.00  0.00     0.010 C 
HETATM   13  C13 UNL     1      26.406   6.786  49.277  1.00  0.00    -0.006 A 
HETATM   14  C14 UNL     1      27.498   7.497  48.768  1.00  0.00     0.014 A 
HETATM   15  C18 UNL     1      26.374   5.403  49.255  1.00  0.00     0.089 A 
HETATM   16  C15 UNL     1      28.583   6.839  48.225  1.00  0.00     0.001 A 
HETATM   17  C16 UNL     1      28.553   5.443  48.202  1.00  0.00     0.002 A 
HETATM   18  C17 UNL     1      27.470   4.754  48.707  1.00  0.00     0.034 A 
HETATM   19  N3  UNL     1      25.433   4.424  49.682  1.00  0.00    -0.154 NA
HETATM   20  N4  UNL     1      24.452   4.494  50.490  1.00  0.00    -0.182 NA
ENDBRANCH   7   9
ENDBRANCH   5   7
BRANCH   1  21
HETATM   21  C4  UNL     1      25.014   0.521  53.548  1.00  0.00     0.030 A 
HETATM   22  C3  UNL     1      26.199   1.217  53.729  1.00  0.00     0.127 A 
HETATM   23  N1  UNL     1      26.975   0.296  54.368  1.00  0.00    -0.278 N 
HETATM   24  N6  UNL     1      26.347  -0.849  54.565  1.00  0.00    -0.184 NA
HETATM   25  C19 UNL     1      25.105  -0.753  54.063  1.00  0.00     0.154 A 
BRANCH  23  26
HETATM   26  C2  UNL     1      28.342   0.529  54.794  1.00  0.00     0.176 C 
BRANCH  26  27
HETATM   27  C1  UNL     1      28.986   1.613  53.938  1.00  0.00     0.185 C 
BRANCH  27  28
HETATM   28  O1  UNL     1      29.753   2.416  54.774  1.00  0.00    -0.399 OA
HETATM   29  H1  UNL     1      30.631   1.976  54.936  1.00  0.00     0.209 HD
ENDBRANCH  27  28
ENDBRANCH  26  27
ENDBRANCH  23  26
ENDBRANCH   1  21
TORSDOF 6
ENDMDL
MODEL 4
REMARK VINA RESULT:      -8.1      3.552      7.286
REMARK  6 active torsions:
REMARK  status: ('A' for Active; 'I' for Inactive)
REMARK    1  A    between atoms: O1_1  and  C1_2 
REMARK    2  A    between atoms: C1_2  and  C2_3 
REMARK    3  A    between atoms: C2_3  and  N1_4 
REMARK    4  A    between atoms: C4_6  and  C5_7 
REMARK    5  A    between atoms: C8_11  and  P1_12 
REMARK    6  A    between atoms: P1_12  and  C9_13 
ROOT
HETATM    1  C5  UNL     1      23.366  -0.511  54.064  1.00  0.00     0.088 A 
HETATM    2  C6  UNL     1      22.826  -1.351  55.005  1.00  0.00     0.148 A 
HETATM    3  N2  UNL     1      21.502  -1.593  54.990  1.00  0.00    -0.268 NA
HETATM    4  C7  UNL     1      20.688  -1.038  54.082  1.00  0.00     0.148 A 
HETATM    5  C8  UNL     1      21.217  -0.192  53.129  1.00  0.00     0.077 A 
HETATM    6  N5  UNL     1      22.544   0.048  53.147  1.00  0.00    -0.245 NA
ENDROOT
BRANCH   5   7
HETATM    7  P1  UNL     1      20.281   0.665  51.803  1.00  0.00    -0.045 P 
HETATM    8  H9  UNL     1      19.851  -0.274  50.797  1.00  0.00     0.066 HD
BRANCH   7   9
HETATM    9  C9  UNL     1      21.317   1.985  50.992  1.00  0.00     0.165 C 
HETATM   10  C10 UNL     1      22.117   1.342  49.930  1.00  0.00     0.061 C 
HETATM   11  C11 UNL     1      22.518   2.167  48.798  1.00  0.00    -0.023 C 
HETATM   12  C12 UNL     1      23.023   3.395  48.593  1.00  0.00     0.010 C 
HETATM   13  C13 UNL     1      23.358   4.391  49.628  1.00  0.00    -0.006 A 
HETATM   14  C14 UNL     1      23.900   5.409  48.837  1.00  0.00     0.014 A 
HETATM   15  C18 UNL     1      23.268   4.517  51.003  1.00  0.00     0.089 A 
HETATM   16  C15 UNL     1      24.364   6.578  49.405  1.00  0.00     0.001 A 
HETATM   17  C16 UNL     1      24.273   6.709  50.793  1.00  0.00     0.002 A 
HETATM   18  C17 UNL     1      23.737   5.697  51.561  1.00  0.00     0.034 A 
HETATM   19  N3  UNL     1      22.782   3.682  52.049  1.00  0.00    -0.154 NA
HETATM   20  N4  UNL     1      22.003   2.675  52.030  1.00  0.00    -0.182 NA
ENDBRANCH   7   9
ENDBRANCH   5   7
BRANCH   1  21
HETATM   21  C4  UNL     1      24.796  -0.220  54.042  1.00  0.00     0.030 A 
HETATM   22  C3  UNL     1      25.439   0.433  53.001  1.00  0.00     0.127 A 
HETATM   23  N1  UNL     1      26.730   0.464  53.438  1.00  0.00    -0.278 N 
HETATM   24  N6  UNL     1      26.879  -0.106  54.620  1.00  0.00    -0.184 NA
HETATM   25  C19 UNL     1      25.684  -0.552  55.040  1.00  0.00     0.154 A 
BRANCH  23  26
HETATM   26  C2  UNL     1      27.831   1.053  52.702  1.00  0.00     0.176 C 
BRANCH  26  27
HETATM   27  C1  UNL     1      28.497   2.146  53.530  1.00  0.00     0.185 C 
BRANCH  27  28
HETATM   28  O1  UNL     1      27.497   2.846  54.194  1.00  0.00    -0.399 OA
HETATM   29  H1  UNL     1      27.897   3.635  54.652  1.00  0.00     0.209 HD
ENDBRANCH  27  28
ENDBRANCH  26  27
ENDBRANCH  23  26
ENDBRANCH   1  21
TORSDOF 6
ENDMDL
MODEL 5
REMARK VINA RESULT:      -8.0      5.313      9.456
REMARK  6 active torsions:
REMARK  status: ('A' for Active; 'I' for Inactive)
REMARK    1  A    between atoms: O1_1  and  C1_2 
REMARK    2  A    between atoms: C1_2  and  C2_3 
REMARK    3  A    between atoms: C2_3  and  N1_4 
REMARK    4  A    between atoms: C4_6  and  C5_7 
REMARK    5  A    between atoms: C8_11  and  P1_12 
REMARK    6  A    between atoms: P1_12  and  C9_13 
ROOT
HETATM    1  C5  UNL     1      23.948  -0.365  54.057  1.00  0.00     0.088 A 
HETATM    2  C6  UNL     1      23.221  -1.171  54.897  1.00  0.00     0.148 A 
HETATM    3  N2  UNL     1      21.884  -1.027  54.953  1.00  0.00    -0.268 NA
HETATM    4  C7  UNL     1      21.235  -0.117  54.215  1.00  0.00     0.148 A 
HETATM    5  C8  UNL     1      21.952   0.700  53.367  1.00  0.00     0.077 A 
HETATM    6  N5  UNL     1      23.292   0.552  53.312  1.00  0.00    -0.245 NA
ENDROOT
BRANCH   5   7
HETATM    7  P1  UNL     1      21.259   2.002  52.274  1.00  0.00    -0.045 P 
HETATM    8  H9  UNL     1      21.559   3.313  52.794  1.00  0.00     0.066 HD
BRANCH   7   9
HETATM    9  C9  UNL     1      19.411   1.829  52.108  1.00  0.00     0.165 C 
HETATM   10  C10 UNL     1      19.144   0.828  51.055  1.00  0.00     0.061 C 
HETATM   11  C11 UNL     1      17.895   0.081  51.140  1.00  0.00    -0.023 C 
HETATM   12  C12 UNL     1      16.599   0.336  51.386  1.00  0.00     0.010 C 
HETATM   13  C13 UNL     1      16.005   1.653  51.683  1.00  0.00    -0.006 A 
HETATM   14  C14 UNL     1      14.652   1.310  51.765  1.00  0.00     0.014 A 
HETATM   15  C18 UNL     1      16.429   2.956  51.869  1.00  0.00     0.089 A 
HETATM   16  C15 UNL     1      13.692   2.264  52.037  1.00  0.00     0.001 A 
HETATM   17  C16 UNL     1      14.118   3.580  52.225  1.00  0.00     0.002 A 
HETATM   18  C17 UNL     1      15.456   3.906  52.141  1.00  0.00     0.034 A 
HETATM   19  N3  UNL     1      17.699   3.601  51.848  1.00  0.00    -0.154 NA
HETATM   20  N4  UNL     1      18.880   3.139  51.945  1.00  0.00    -0.182 NA
ENDBRANCH   7   9
ENDBRANCH   5   7
BRANCH   1  21
HETATM   21  C4  UNL     1      25.400  -0.485  53.963  1.00  0.00     0.030 A 
HETATM   22  C3  UNL     1      26.291   0.287  54.694  1.00  0.00     0.127 A 
HETATM   23  N1  UNL     1      27.496  -0.187  54.265  1.00  0.00    -0.278 N 
HETATM   24  N6  UNL     1      27.373  -1.147  53.366  1.00  0.00    -0.184 NA
HETATM   25  C19 UNL     1      26.067  -1.369  53.144  1.00  0.00     0.154 A 
BRANCH  23  26
HETATM   26  C2  UNL     1      28.780   0.296  54.733  1.00  0.00     0.176 C 
BRANCH  26  27
HETATM   27  C1  UNL     1      29.147   1.595  54.025  1.00  0.00     0.185 C 
BRANCH  27  28
HETATM   28  O1  UNL     1      29.816   2.403  54.937  1.00  0.00    -0.399 OA
HETATM   29  H1  UNL     1      29.544   2.149  55.861  1.00  0.00     0.209 HD
ENDBRANCH  27  28
ENDBRANCH  26  27
ENDBRANCH  23  26
ENDBRANCH   1  21
TORSDOF 6
ENDMDL
MODEL 6
REMARK VINA RESULT:      -7.9      2.938      4.413
REMARK  6 active torsions:
REMARK  status: ('A' for Active; 'I' for Inactive)
REMARK    1  A    between atoms: O1_1  and  C1_2 
REMARK    2  A    between atoms: C1_2  and  C2_3 
REMARK    3  A    between atoms: C2_3  and  N1_4 
REMARK    4  A    between atoms: C4_6  and  C5_7 
REMARK    5  A    between atoms: C8_11  and  P1_12 
REMARK    6  A    between atoms: P1_12  and  C9_13 
ROOT
HETATM    1  C5  UNL     1      25.487   7.288  50.170  1.00  0.00     0.088 A 
HETATM    2  C6  UNL     1      24.261   7.629  50.684  1.00  0.00     0.148 A 
HETATM    3  N2  UNL     1      23.413   6.655  51.064  1.00  0.00    -0.268 NA
HETATM    4  C7  UNL     1      23.726   5.357  50.957  1.00  0.00     0.148 A 
HETATM    5  C8  UNL     1      24.954   4.999  50.443  1.00  0.00     0.077 A 
HETATM    6  N5  UNL     1      25.802   5.978  50.063  1.00  0.00    -0.245 NA
ENDROOT
BRANCH   5   7
HETATM    7  P1  UNL     1      25.576   3.287  50.214  1.00  0.00    -0.045 P 
HETATM    8  H9  UNL     1      25.337   2.837  48.865  1.00  0.00     0.066 HD
BRANCH   7   9
HETATM    9  C9  UNL     1      24.750   2.108  51.397  1.00  0.00     0.165 C 
HETATM   10  C10 UNL     1      25.707   1.023  51.696  1.00  0.00     0.061 C 
HETATM   11  C11 UNL     1      25.579   0.349  52.981  1.00  0.00    -0.023 C 
HETATM   12  C12 UNL     1      24.596  -0.155  53.746  1.00  0.00     0.010 C 
HETATM   13  C13 UNL     1      23.154  -0.156  53.433  1.00  0.00    -0.006 A 
HETATM   14  C14 UNL     1      22.655  -0.865  54.530  1.00  0.00     0.014 A 
HETATM   15  C18 UNL     1      22.315   0.318  52.440  1.00  0.00     0.089 A 
HETATM   16  C15 UNL     1      21.304  -1.115  54.660  1.00  0.00     0.001 A 
HETATM   17  C16 UNL     1      20.455  -0.637  53.660  1.00  0.00     0.002 A 
HETATM   18  C17 UNL     1      20.960   0.061  52.582  1.00  0.00     0.034 A 
HETATM   19  N3  UNL     1      22.515   1.050  51.236  1.00  0.00    -0.154 NA
HETATM   20  N4  UNL     1      23.491   1.760  50.833  1.00  0.00    -0.182 NA
ENDBRANCH   7   9
ENDBRANCH   5   7
BRANCH   1  21
HETATM   21  C4  UNL     1      26.439   8.309  49.744  1.00  0.00     0.030 A 
HETATM   22  C3  UNL     1      27.598   8.040  49.031  1.00  0.00     0.127 A 
HETATM   23  N1  UNL     1      28.134   9.284  48.879  1.00  0.00    -0.278 N 
HETATM   24  N6  UNL     1      27.394  10.227  49.435  1.00  0.00    -0.184 NA
HETATM   25  C19 UNL     1      26.313   9.657  49.993  1.00  0.00     0.154 A 
BRANCH  23  26
HETATM   26  C2  UNL     1      29.377   9.563  48.186  1.00  0.00     0.176 C 
BRANCH  26  27
HETATM   27  C1  UNL     1      30.267  10.461  49.037  1.00  0.00     0.185 C 
BRANCH  27  28
HETATM   28  O1  UNL     1      30.369   9.887  50.299  1.00  0.00    -0.399 OA
HETATM   29  H1  UNL     1      30.510  10.605  50.976  1.00  0.00     0.209 HD
ENDBRANCH  27  28
ENDBRANCH  26  27
ENDBRANCH  23  26
ENDBRANCH   1  21
TORSDOF 6
ENDMDL
MODEL 7
REMARK VINA RESULT:      -7.8      3.597      7.996
REMARK  6 active torsions:
REMARK  status: ('A' for Active; 'I' for Inactive)
REMARK    1  A    between atoms: O1_1  and  C1_2 
REMARK    2  A    between atoms: C1_2  and  C2_3 
REMARK    3  A    between atoms: C2_3  and  N1_4 
REMARK    4  A    between atoms: C4_6  and  C5_7 
REMARK    5  A    between atoms: C8_11  and  P1_12 
REMARK    6  A    between atoms: P1_12  and  C9_13 
ROOT
HETATM    1  C5  UNL     1      24.347   0.227  53.399  1.00  0.00     0.088 A 
HETATM    2  C6  UNL     1      23.353  -0.714  53.501  1.00  0.00     0.148 A 
HETATM    3  N2  UNL     1      22.088  -0.370  53.197  1.00  0.00    -0.268 NA
HETATM    4  C7  UNL     1      21.763   0.867  52.797  1.00  0.00     0.148 A 
HETATM    5  C8  UNL     1      22.752   1.822  52.690  1.00  0.00     0.077 A 
HETATM    6  N5  UNL     1      24.019   1.474  52.994  1.00  0.00    -0.245 NA
ENDROOT
BRANCH   5   7
HETATM    7  P1  UNL     1      22.520   3.565  52.162  1.00  0.00    -0.045 P 
HETATM    8  H9  UNL     1      21.344   4.129  52.776  1.00  0.00     0.066 HD
BRANCH   7   9
HETATM    9  C9  UNL     1      22.352   3.691  50.311  1.00  0.00     0.165 C 
HETATM   10  C10 UNL     1      22.884   2.445  49.722  1.00  0.00     0.061 C 
HETATM   11  C11 UNL     1      22.345   2.027  48.434  1.00  0.00    -0.023 C 
HETATM   12  C12 UNL     1      22.043   2.591  47.253  1.00  0.00     0.010 C 
HETATM   13  C13 UNL     1      22.206   4.011  46.891  1.00  0.00    -0.006 A 
HETATM   14  C14 UNL     1      21.812   3.980  45.549  1.00  0.00     0.014 A 
HETATM   15  C18 UNL     1      22.603   5.190  47.498  1.00  0.00     0.089 A 
HETATM   16  C15 UNL     1      21.807   5.129  44.784  1.00  0.00     0.001 A 
HETATM   17  C16 UNL     1      22.207   6.320  45.394  1.00  0.00     0.002 A 
HETATM   18  C17 UNL     1      22.593   6.337  46.718  1.00  0.00     0.034 A 
HETATM   19  N3  UNL     1      23.047   5.534  48.806  1.00  0.00    -0.154 NA
HETATM   20  N4  UNL     1      22.939   4.927  49.919  1.00  0.00    -0.182 NA
ENDBRANCH   7   9
ENDBRANCH   5   7
BRANCH   1  21
HETATM   21  C4  UNL     1      25.733  -0.101  53.718  1.00  0.00     0.030 A 
HETATM   22  C3  UNL     1      26.577  -0.807  52.874  1.00  0.00     0.127 A 
HETATM   23  N1  UNL     1      27.731  -0.856  53.600  1.00  0.00    -0.278 N 
HETATM   24  N6  UNL     1      27.621  -0.249  54.768  1.00  0.00    -0.184 NA
HETATM   25  C19 UNL     1      26.377   0.243  54.886  1.00  0.00     0.154 A 
BRANCH  23  26
HETATM   26  C2  UNL     1      28.953  -1.498  53.156  1.00  0.00     0.176 C 
BRANCH  26  27
HETATM   27  C1  UNL     1      30.163  -0.835  53.804  1.00  0.00     0.185 C 
BRANCH  27  28
HETATM   28  O1  UNL     1      30.179   0.498  53.413  1.00  0.00    -0.399 OA
HETATM   29  H1  UNL     1      30.693   1.030  54.080  1.00  0.00     0.209 HD
ENDBRANCH  27  28
ENDBRANCH  26  27
ENDBRANCH  23  26
ENDBRANCH   1  21
TORSDOF 6
ENDMDL
MODEL 8
REMARK VINA RESULT:      -7.8      5.203      7.710
REMARK  6 active torsions:
REMARK  status: ('A' for Active; 'I' for Inactive)
REMARK    1  A    between atoms: O1_1  and  C1_2 
REMARK    2  A    between atoms: C1_2  and  C2_3 
REMARK    3  A    between atoms: C2_3  and  N1_4 
REMARK    4  A    between atoms: C4_6  and  C5_7 
REMARK    5  A    between atoms: C8_11  and  P1_12 
REMARK    6  A    between atoms: P1_12  and  C9_13 
ROOT
HETATM    1  C5  UNL     1      20.474   1.426  50.412  1.00  0.00     0.088 A 
HETATM    2  C6  UNL     1      20.722   1.698  49.089  1.00  0.00     0.148 A 
HETATM    3  N2  UNL     1      21.836   2.376  48.755  1.00  0.00    -0.268 NA
HETATM    4  C7  UNL     1      22.716   2.796  49.673  1.00  0.00     0.148 A 
HETATM    5  C8  UNL     1      22.480   2.530  51.006  1.00  0.00     0.077 A 
HETATM    6  N5  UNL     1      21.363   1.850  51.338  1.00  0.00    -0.245 NA
ENDROOT
BRANCH   5   7
HETATM    7  P1  UNL     1      23.554   3.014  52.413  1.00  0.00    -0.045 P 
HETATM    8  H9  UNL     1      24.129   4.317  52.188  1.00  0.00     0.066 HD
BRANCH   7   9
HETATM    9  C9  UNL     1      24.930   1.783  52.665  1.00  0.00     0.165 C 
HETATM   10  C10 UNL     1      24.334   0.542  53.200  1.00  0.00     0.061 C 
HETATM   11  C11 UNL     1      25.026  -0.710  52.921  1.00  0.00    -0.023 C 
HETATM   12  C12 UNL     1      26.287  -1.174  52.936  1.00  0.00     0.010 C 
HETATM   13  C13 UNL     1      27.497  -0.413  53.298  1.00  0.00    -0.006 A 
HETATM   14  C14 UNL     1      28.467  -1.417  53.206  1.00  0.00     0.014 A 
HETATM   15  C18 UNL     1      27.832   0.881  53.656  1.00  0.00     0.089 A 
HETATM   16  C15 UNL     1      29.795  -1.148  53.469  1.00  0.00     0.001 A 
HETATM   17  C16 UNL     1      30.136   0.157  53.830  1.00  0.00     0.002 A 
HETATM   18  C17 UNL     1      29.170   1.139  53.918  1.00  0.00     0.034 A 
HETATM   19  N3  UNL     1      27.095   2.086  53.832  1.00  0.00    -0.154 NA
HETATM   20  N4  UNL     1      25.938   2.432  53.431  1.00  0.00    -0.182 NA
ENDBRANCH   7   9
ENDBRANCH   5   7
BRANCH   1  21
HETATM   21  C4  UNL     1      19.279   0.694  50.822  1.00  0.00     0.030 A 
HETATM   22  C3  UNL     1      19.194  -0.064  51.980  1.00  0.00     0.127 A 
HETATM   23  N1  UNL     1      17.915  -0.535  51.918  1.00  0.00    -0.278 N 
HETATM   24  N6  UNL     1      17.273  -0.119  50.841  1.00  0.00    -0.184 NA
HETATM   25  C19 UNL     1      18.095   0.661  50.120  1.00  0.00     0.154 A 
BRANCH  23  26
HETATM   26  C2  UNL     1      17.310  -1.397  52.913  1.00  0.00     0.176 C 
BRANCH  26  27
HETATM   27  C1  UNL     1      15.996  -1.968  52.391  1.00  0.00     0.185 C 
BRANCH  27  28
HETATM   28  O1  UNL     1      15.567  -2.939  53.288  1.00  0.00    -0.399 OA
HETATM   29  H1  UNL     1      14.990  -3.595  52.810  1.00  0.00     0.209 HD
ENDBRANCH  27  28
ENDBRANCH  26  27
ENDBRANCH  23  26
ENDBRANCH   1  21
TORSDOF 6
ENDMDL
MODEL 9
REMARK VINA RESULT:      -7.7      2.985      4.197
REMARK  6 active torsions:
REMARK  status: ('A' for Active; 'I' for Inactive)
REMARK    1  A    between atoms: O1_1  and  C1_2 
REMARK    2  A    between atoms: C1_2  and  C2_3 
REMARK    3  A    between atoms: C2_3  and  N1_4 
REMARK    4  A    between atoms: C4_6  and  C5_7 
REMARK    5  A    between atoms: C8_11  and  P1_12 
REMARK    6  A    between atoms: P1_12  and  C9_13 
ROOT
HETATM    1  C5  UNL     1      25.692   6.516  49.155  1.00  0.00     0.088 A 
HETATM    2  C6  UNL     1      25.475   7.746  49.724  1.00  0.00     0.148 A 
HETATM    3  N2  UNL     1      24.219   8.110  50.044  1.00  0.00    -0.268 NA
HETATM    4  C7  UNL     1      23.168   7.308  49.826  1.00  0.00     0.148 A 
HETATM    5  C8  UNL     1      23.372   6.070  49.254  1.00  0.00     0.077 A 
HETATM    6  N5  UNL     1      24.631   5.708  48.935  1.00  0.00    -0.245 NA
ENDROOT
BRANCH   5   7
HETATM    7  P1  UNL     1      22.075   4.827  48.873  1.00  0.00    -0.045 P 
HETATM    8  H9  UNL     1      20.802   5.470  48.665  1.00  0.00     0.066 HD
BRANCH   7   9
HETATM    9  C9  UNL     1      21.905   3.587  50.253  1.00  0.00     0.165 C 
HETATM   10  C10 UNL     1      20.997   4.161  51.268  1.00  0.00     0.061 C 
HETATM   11  C11 UNL     1      20.237   3.230  52.093  1.00  0.00    -0.023 C 
HETATM   12  C12 UNL     1      20.461   2.093  52.772  1.00  0.00     0.010 C 
HETATM   13  C13 UNL     1      21.744   1.372  52.877  1.00  0.00    -0.006 A 
HETATM   14  C14 UNL     1      21.386   0.340  53.750  1.00  0.00     0.014 A 
HETATM   15  C18 UNL     1      23.029   1.477  52.376  1.00  0.00     0.089 A 
HETATM   16  C15 UNL     1      22.307  -0.611  54.142  1.00  0.00     0.001 A 
HETATM   17  C16 UNL     1      23.605  -0.507  53.638  1.00  0.00     0.002 A 
HETATM   18  C17 UNL     1      23.945   0.516  52.777  1.00  0.00     0.034 A 
HETATM   19  N3  UNL     1      23.682   2.387  51.496  1.00  0.00    -0.154 NA
HETATM   20  N4  UNL     1      23.221   3.222  50.655  1.00  0.00    -0.182 NA
ENDBRANCH   7   9
ENDBRANCH   5   7
BRANCH   1  21
HETATM   21  C4  UNL     1      27.036   6.079  48.790  1.00  0.00     0.030 A 
HETATM   22  C3  UNL     1      28.061   6.941  48.430  1.00  0.00     0.127 A 
HETATM   23  N1  UNL     1      29.088   6.077  48.187  1.00  0.00    -0.278 N 
HETATM   24  N6  UNL     1      28.744   4.815  48.373  1.00  0.00    -0.184 NA
HETATM   25  C19 UNL     1      27.457   4.768  48.755  1.00  0.00     0.154 A 
BRANCH  23  26
HETATM   26  C2  UNL     1      30.417   6.479  47.770  1.00  0.00     0.176 C 
BRANCH  26  27
HETATM   27  C1  UNL     1      31.470   5.840  48.667  1.00  0.00     0.185 C 
BRANCH  27  28
HETATM   28  O1  UNL     1      30.923   5.708  49.938  1.00  0.00    -0.399 OA
HETATM   29  H1  UNL     1      31.624   5.903  50.619  1.00  0.00     0.209 HD
ENDBRANCH  27  28
ENDBRANCH  26  27
ENDBRANCH  23  26
ENDBRANCH   1  21
TORSDOF 6
ENDMDL
