MODEL 1
REMARK VINA RESULT:      -9.5      0.000      0.000
REMARK  1 active torsions:
REMARK  status: ('A' for Active; 'I' for Inactive)
REMARK    1  A    between atoms: N1_2  and  C2_3 
ROOT
HETATM    1  C2  UNL     1      17.309   0.498  49.915  1.00  0.00     0.124 C 
HETATM    2  C3  UNL     1      18.204   1.244  50.503  1.00  0.00     0.109 C 
HETATM    3  N2  UNL     1      19.248   2.244  50.577  1.00  0.00    -0.376 NA
HETATM    4  C4  UNL     1      20.362   2.215  49.913  1.00  0.00     0.266 C 
HETATM    5  C5  UNL     1      21.014   1.313  48.920  1.00  0.00     0.117 C 
HETATM    6  C6  UNL     1      22.275   1.768  48.663  1.00  0.00     0.097 C 
HETATM    7  N3  UNL     1      23.328   2.771  48.915  1.00  0.00    -0.303 NA
HETATM    8  C7  UNL     1      23.544   3.224  50.127  1.00  0.00     0.102 C 
HETATM    9  C8  UNL     1      23.985   3.881  51.356  1.00  0.00     0.166 C 
HETATM   10  N4  UNL     1      23.968   3.046  52.552  1.00  0.00    -0.388 N 
HETATM   11  C9  UNL     1      24.797   1.926  52.788  1.00  0.00     0.017 C 
HETATM   12  C10 UNL     1      24.359   0.694  52.995  1.00  0.00     0.004 C 
HETATM   13  C11 UNL     1      25.354  -0.382  53.213  1.00  0.00     0.220 C 
HETATM   14  N5  UNL     1      26.300  -1.294  53.397  1.00  0.00    -0.309 NA
HETATM   15  C12 UNL     1      27.679  -0.931  53.278  1.00  0.00     0.078 C 
HETATM   16  C13 UNL     1      28.052   0.317  53.451  1.00  0.00     0.036 C 
HETATM   17  C14 UNL     1      29.182   1.142  53.451  1.00  0.00    -0.024 C 
HETATM   18  C15 UNL     1      28.466   2.283  53.734  1.00  0.00    -0.030 C 
HETATM   19  C16 UNL     1      27.041   1.934  53.862  1.00  0.00     0.033 C 
HETATM   20  C17 UNL     1      26.123   2.542  52.871  1.00  0.00     0.061 C 
HETATM   21  C18 UNL     1      23.074   0.115  52.928  1.00  0.00    -0.052 C 
HETATM   22  C19 UNL     1      22.630  -1.225  53.221  1.00  0.00     0.049 C 
HETATM   23  C20 UNL     1      21.882   0.518  52.636  1.00  0.00    -0.008 C 
HETATM   24  C21 UNL     1      20.491   0.626  52.385  1.00  0.00     0.059 C 
HETATM   25  C22 UNL     1      19.340   0.052  52.354  1.00  0.00     0.072 C 
HETATM   26  N6  UNL     1      18.294   0.956  51.931  1.00  0.00    -0.355 N 
HETATM   27  H10 UNL     1      23.397   3.103  53.425  1.00  0.00     0.159 HD
HETATM   28  H26 UNL     1      17.524   1.497  52.429  1.00  0.00     0.166 HD
ENDROOT
BRANCH   1  29
HETATM   29  N1  UNL     1      16.362  -0.500  50.257  1.00  0.00    -0.403 NA
HETATM   30  C1  UNL     1      15.554  -1.071  49.421  1.00  0.00     0.313 C 
ENDBRANCH   1  29
TORSDOF 1
ENDMDL
MODEL 2
REMARK VINA RESULT:      -9.2      3.968      8.309
REMARK  1 active torsions:
REMARK  status: ('A' for Active; 'I' for Inactive)
REMARK    1  A    between atoms: N1_2  and  C2_3 
ROOT
HETATM    1  C2  UNL     1      28.662   8.236  48.610  1.00  0.00     0.124 C 
HETATM    2  C3  UNL     1      27.635   7.501  48.281  1.00  0.00     0.109 C 
HETATM    3  N2  UNL     1      26.231   7.196  48.104  1.00  0.00    -0.376 NA
HETATM    4  C4  UNL     1      25.331   7.236  49.038  1.00  0.00     0.266 C 
HETATM    5  C5  UNL     1      25.288   7.559  50.493  1.00  0.00     0.117 C 
HETATM    6  C6  UNL     1      24.036   7.303  50.971  1.00  0.00     0.097 C 
HETATM    7  N3  UNL     1      22.658   6.843  50.710  1.00  0.00    -0.303 NA
HETATM    8  C7  UNL     1      22.432   5.820  49.920  1.00  0.00     0.102 C 
HETATM    9  C8  UNL     1      21.912   4.729  49.098  1.00  0.00     0.166 C 
HETATM   10  N4  UNL     1      22.722   3.516  49.085  1.00  0.00    -0.388 N 
HETATM   11  C9  UNL     1      22.939   2.657  50.187  1.00  0.00     0.017 C 
HETATM   12  C10 UNL     1      24.125   2.384  50.708  1.00  0.00     0.004 C 
HETATM   13  C11 UNL     1      24.191   1.474  51.876  1.00  0.00     0.220 C 
HETATM   14  N5  UNL     1      24.173   0.657  52.921  1.00  0.00    -0.309 NA
HETATM   15  C12 UNL     1      22.926   0.205  53.457  1.00  0.00     0.078 C 
HETATM   16  C13 UNL     1      21.850   0.188  52.704  1.00  0.00     0.036 C 
HETATM   17  C14 UNL     1      20.489  -0.137  52.731  1.00  0.00    -0.024 C 
HETATM   18  C15 UNL     1      20.277   0.233  51.421  1.00  0.00    -0.030 C 
HETATM   19  C16 UNL     1      21.550   0.701  50.846  1.00  0.00     0.033 C 
HETATM   20  C17 UNL     1      21.597   2.119  50.422  1.00  0.00     0.061 C 
HETATM   21  C18 UNL     1      25.416   2.898  50.462  1.00  0.00    -0.052 C 
HETATM   22  C19 UNL     1      26.696   2.529  51.013  1.00  0.00     0.049 C 
HETATM   23  C20 UNL     1      25.931   3.799  49.693  1.00  0.00    -0.008 C 
HETATM   24  C21 UNL     1      26.796   4.685  49.003  1.00  0.00     0.059 C 
HETATM   25  C22 UNL     1      27.996   5.107  48.807  1.00  0.00     0.072 C 
HETATM   26  N6  UNL     1      28.043   6.174  47.832  1.00  0.00    -0.355 N 
HETATM   27  H10 UNL     1      23.258   3.052  48.317  1.00  0.00     0.159 HD
HETATM   28  H26 UNL     1      28.319   6.239  46.805  1.00  0.00     0.166 HD
ENDROOT
BRANCH   1  29
HETATM   29  N1  UNL     1      30.076   8.143  48.634  1.00  0.00    -0.403 NA
HETATM   30  C1  UNL     1      30.858   8.917  49.318  1.00  0.00     0.313 C 
ENDBRANCH   1  29
TORSDOF 1
ENDMDL
MODEL 3
REMARK VINA RESULT:      -8.8      1.648      8.042
REMARK  1 active torsions:
REMARK  status: ('A' for Active; 'I' for Inactive)
REMARK    1  A    between atoms: N1_2  and  C2_3 
ROOT
HETATM    1  C2  UNL     1      27.275   2.149  53.688  1.00  0.00     0.124 C 
HETATM    2  C3  UNL     1      26.444   1.928  52.705  1.00  0.00     0.109 C 
HETATM    3  N2  UNL     1      25.537   2.286  51.636  1.00  0.00    -0.376 NA
HETATM    4  C4  UNL     1      24.479   3.026  51.766  1.00  0.00     0.266 C 
HETATM    5  C5  UNL     1      23.789   3.751  52.871  1.00  0.00     0.117 C 
HETATM    6  C6  UNL     1      22.620   4.275  52.400  1.00  0.00     0.097 C 
HETATM    7  N3  UNL     1      21.691   4.468  51.269  1.00  0.00    -0.303 NA
HETATM    8  C7  UNL     1      21.448   3.491  50.429  1.00  0.00     0.102 C 
HETATM    9  C8  UNL     1      21.010   2.586  49.368  1.00  0.00     0.166 C 
HETATM   10  N4  UNL     1      20.831   1.194  49.768  1.00  0.00    -0.388 N 
HETATM   11  C9  UNL     1      19.849   0.712  50.662  1.00  0.00     0.017 C 
HETATM   12  C10 UNL     1      20.106   0.082  51.797  1.00  0.00     0.004 C 
HETATM   13  C11 UNL     1      18.967  -0.352  52.639  1.00  0.00     0.220 C 
HETATM   14  N5  UNL     1      17.898  -0.706  53.343  1.00  0.00    -0.309 NA
HETATM   15  C12 UNL     1      16.591  -0.328  52.901  1.00  0.00     0.078 C 
HETATM   16  C13 UNL     1      16.373  -0.060  51.634  1.00  0.00     0.036 C 
HETATM   17  C14 UNL     1      15.362   0.323  50.745  1.00  0.00    -0.024 C 
HETATM   18  C15 UNL     1      16.199   0.335  49.651  1.00  0.00    -0.030 C 
HETATM   19  C16 UNL     1      17.553  -0.052  50.081  1.00  0.00     0.033 C 
HETATM   20  C17 UNL     1      18.611   0.972  49.922  1.00  0.00     0.061 C 
HETATM   21  C18 UNL     1      21.306  -0.178  52.493  1.00  0.00    -0.052 C 
HETATM   22  C19 UNL     1      21.550  -0.923  53.703  1.00  0.00     0.049 C 
HETATM   23  C20 UNL     1      22.559   0.093  52.328  1.00  0.00    -0.008 C 
HETATM   24  C21 UNL     1      23.966   0.210  52.447  1.00  0.00     0.059 C 
HETATM   25  C22 UNL     1      25.031  -0.067  53.113  1.00  0.00     0.072 C 
HETATM   26  N6  UNL     1      26.214   0.500  52.504  1.00  0.00    -0.355 N 
HETATM   27  H10 UNL     1      21.340   0.326  49.489  1.00  0.00     0.159 HD
HETATM   28  H26 UNL     1      27.011   0.115  51.911  1.00  0.00     0.166 HD
ENDROOT
BRANCH   1  29
HETATM   29  N1  UNL     1      28.056   1.410  54.610  1.00  0.00    -0.403 NA
HETATM   30  C1  UNL     1      29.187   0.841  54.335  1.00  0.00     0.313 C 
ENDBRANCH   1  29
TORSDOF 1
ENDMDL
MODEL 4
REMARK VINA RESULT:      -8.1      2.350      2.849
REMARK  1 active torsions:
REMARK  status: ('A' for Active; 'I' for Inactive)
REMARK    1  A    between atoms: N1_2  and  C2_3 
ROOT
HETATM    1  C2  UNL     1      16.327   4.137  48.961  1.00  0.00     0.124 C 
HETATM    2  C3  UNL     1      17.521   4.527  49.315  1.00  0.00     0.109 C 
HETATM    3  N2  UNL     1      18.910   4.878  49.112  1.00  0.00    -0.376 NA
HETATM    4  C4  UNL     1      19.810   4.106  48.586  1.00  0.00     0.266 C 
HETATM    5  C5  UNL     1      19.864   2.726  48.024  1.00  0.00     0.117 C 
HETATM    6  C6  UNL     1      21.158   2.418  47.719  1.00  0.00     0.097 C 
HETATM    7  N3  UNL     1      22.576   2.828  47.682  1.00  0.00    -0.303 NA
HETATM    8  C7  UNL     1      23.101   3.511  48.671  1.00  0.00     0.102 C 
HETATM    9  C8  UNL     1      23.919   4.261  49.622  1.00  0.00     0.166 C 
HETATM   10  N4  UNL     1      23.640   3.999  51.030  1.00  0.00    -0.388 N 
HETATM   11  C9  UNL     1      23.876   2.780  51.705  1.00  0.00     0.017 C 
HETATM   12  C10 UNL     1      22.942   2.053  52.297  1.00  0.00     0.004 C 
HETATM   13  C11 UNL     1      23.342   0.786  52.952  1.00  0.00     0.220 C 
HETATM   14  N5  UNL     1      23.772  -0.337  53.513  1.00  0.00    -0.309 NA
HETATM   15  C12 UNL     1      25.142  -0.727  53.378  1.00  0.00     0.078 C 
HETATM   16  C13 UNL     1      26.065   0.174  53.131  1.00  0.00     0.036 C 
HETATM   17  C14 UNL     1      27.442   0.316  52.927  1.00  0.00    -0.024 C 
HETATM   18  C15 UNL     1      27.370   1.678  52.738  1.00  0.00    -0.030 C 
HETATM   19  C16 UNL     1      25.967   2.105  52.873  1.00  0.00     0.033 C 
HETATM   20  C17 UNL     1      25.338   2.689  51.666  1.00  0.00     0.061 C 
HETATM   21  C18 UNL     1      21.536   2.160  52.340  1.00  0.00    -0.052 C 
HETATM   22  C19 UNL     1      20.554   1.377  53.049  1.00  0.00     0.049 C 
HETATM   23  C20 UNL     1      20.643   2.946  51.837  1.00  0.00    -0.008 C 
HETATM   24  C21 UNL     1      19.442   3.599  51.461  1.00  0.00     0.059 C 
HETATM   25  C22 UNL     1      18.160   3.659  51.546  1.00  0.00     0.072 C 
HETATM   26  N6  UNL     1      17.614   4.740  50.756  1.00  0.00    -0.355 N 
HETATM   27  H10 UNL     1      23.254   4.612  51.782  1.00  0.00     0.159 HD
HETATM   28  H26 UNL     1      17.237   5.712  50.974  1.00  0.00     0.166 HD
ENDROOT
BRANCH   1  29
HETATM   29  N1  UNL     1      15.066   3.885  49.558  1.00  0.00    -0.403 NA
HETATM   30  C1  UNL     1      14.140   4.773  49.737  1.00  0.00     0.313 C 
ENDBRANCH   1  29
TORSDOF 1
ENDMDL
MODEL 5
REMARK VINA RESULT:      -8.0      7.224     11.298
REMARK  1 active torsions:
REMARK  status: ('A' for Active; 'I' for Inactive)
REMARK    1  A    between atoms: N1_2  and  C2_3 
ROOT
HETATM    1  C2  UNL     1      32.159  10.777  46.822  1.00  0.00     0.124 C 
HETATM    2  C3  UNL     1      30.935  10.368  46.626  1.00  0.00     0.109 C 
HETATM    3  N2  UNL     1      29.496  10.384  46.780  1.00  0.00    -0.376 NA
HETATM    4  C4  UNL     1      28.861  10.305  47.909  1.00  0.00     0.266 C 
HETATM    5  C5  UNL     1      29.220  10.184  49.351  1.00  0.00     0.117 C 
HETATM    6  C6  UNL     1      28.079  10.025  50.084  1.00  0.00     0.097 C 
HETATM    7  N3  UNL     1      26.607   9.915  50.115  1.00  0.00    -0.303 NA
HETATM    8  C7  UNL     1      25.968   9.230  49.198  1.00  0.00     0.102 C 
HETATM    9  C8  UNL     1      25.027   8.542  48.317  1.00  0.00     0.166 C 
HETATM   10  N4  UNL     1      25.487   7.262  47.787  1.00  0.00    -0.388 N 
HETATM   11  C9  UNL     1      25.721   6.092  48.544  1.00  0.00     0.017 C 
HETATM   12  C10 UNL     1      26.886   5.471  48.632  1.00  0.00     0.004 C 
HETATM   13  C11 UNL     1      26.979   4.260  49.480  1.00  0.00     0.220 C 
HETATM   14  N5  UNL     1      26.989   3.186  50.260  1.00  0.00    -0.309 NA
HETATM   15  C12 UNL     1      25.817   2.825  50.998  1.00  0.00     0.078 C 
HETATM   16  C13 UNL     1      24.632   3.223  50.595  1.00  0.00     0.036 C 
HETATM   17  C14 UNL     1      23.273   3.152  50.922  1.00  0.00    -0.024 C 
HETATM   18  C15 UNL     1      22.878   3.925  49.852  1.00  0.00    -0.030 C 
HETATM   19  C16 UNL     1      24.069   4.308  49.075  1.00  0.00     0.033 C 
HETATM   20  C17 UNL     1      24.372   5.756  49.008  1.00  0.00     0.061 C 
HETATM   21  C18 UNL     1      28.178   5.797  48.167  1.00  0.00    -0.052 C 
HETATM   22  C19 UNL     1      29.415   5.060  48.233  1.00  0.00     0.049 C 
HETATM   23  C20 UNL     1      28.719   6.778  47.524  1.00  0.00    -0.008 C 
HETATM   24  C21 UNL     1      29.603   7.660  46.855  1.00  0.00     0.059 C 
HETATM   25  C22 UNL     1      30.797   7.901  46.439  1.00  0.00     0.072 C 
HETATM   26  N6  UNL     1      30.892   9.183  45.776  1.00  0.00    -0.355 N 
HETATM   27  H10 UNL     1      25.709   6.959  46.812  1.00  0.00     0.159 HD
HETATM   28  H26 UNL     1      30.944   9.499  44.760  1.00  0.00     0.166 HD
ENDROOT
BRANCH   1  29
HETATM   29  N1  UNL     1      33.475  10.431  46.428  1.00  0.00    -0.403 NA
HETATM   30  C1  UNL     1      34.253   9.622  47.074  1.00  0.00     0.313 C 
ENDBRANCH   1  29
TORSDOF 1
ENDMDL
MODEL 6
REMARK VINA RESULT:      -8.0      3.669      5.410
REMARK  1 active torsions:
REMARK  status: ('A' for Active; 'I' for Inactive)
REMARK    1  A    between atoms: N1_2  and  C2_3 
ROOT
HETATM    1  C2  UNL     1      18.569   1.193  51.535  1.00  0.00     0.124 C 
HETATM    2  C3  UNL     1      19.180   2.306  51.836  1.00  0.00     0.109 C 
HETATM    3  N2  UNL     1      19.427   3.732  51.791  1.00  0.00    -0.376 NA
HETATM    4  C4  UNL     1      19.665   4.418  50.717  1.00  0.00     0.266 C 
HETATM    5  C5  UNL     1      19.782   4.145  49.256  1.00  0.00     0.117 C 
HETATM    6  C6  UNL     1      20.173   5.286  48.617  1.00  0.00     0.097 C 
HETATM    7  N3  UNL     1      20.542   6.713  48.701  1.00  0.00    -0.303 NA
HETATM    8  C7  UNL     1      21.290   7.154  49.684  1.00  0.00     0.102 C 
HETATM    9  C8  UNL     1      22.096   7.892  50.654  1.00  0.00     0.166 C 
HETATM   10  N4  UNL     1      23.249   7.174  51.185  1.00  0.00    -0.388 N 
HETATM   11  C9  UNL     1      24.391   6.786  50.449  1.00  0.00     0.017 C 
HETATM   12  C10 UNL     1      24.799   5.537  50.291  1.00  0.00     0.004 C 
HETATM   13  C11 UNL     1      26.010   5.287  49.475  1.00  0.00     0.220 C 
HETATM   14  N5  UNL     1      27.098   5.138  48.729  1.00  0.00    -0.309 NA
HETATM   15  C12 UNL     1      27.692   6.274  48.093  1.00  0.00     0.078 C 
HETATM   16  C13 UNL     1      27.493   7.480  48.573  1.00  0.00     0.036 C 
HETATM   17  C14 UNL     1      27.818   8.824  48.353  1.00  0.00    -0.024 C 
HETATM   18  C15 UNL     1      27.082   9.276  49.425  1.00  0.00    -0.030 C 
HETATM   19  C16 UNL     1      26.460   8.123  50.098  1.00  0.00     0.033 C 
HETATM   20  C17 UNL     1      24.980   8.081  50.099  1.00  0.00     0.061 C 
HETATM   21  C18 UNL     1      24.230   4.296  50.647  1.00  0.00    -0.052 C 
HETATM   22  C19 UNL     1      24.738   2.954  50.509  1.00  0.00     0.049 C 
HETATM   23  C20 UNL     1      23.141   3.897  51.217  1.00  0.00    -0.008 C 
HETATM   24  C21 UNL     1      22.088   3.142  51.791  1.00  0.00     0.059 C 
HETATM   25  C22 UNL     1      21.622   1.985  52.107  1.00  0.00     0.072 C 
HETATM   26  N6  UNL     1      20.317   2.076  52.723  1.00  0.00    -0.355 N 
HETATM   27  H10 UNL     1      23.466   6.834  52.149  1.00  0.00     0.159 HD
HETATM   28  H26 UNL     1      19.953   2.012  53.722  1.00  0.00     0.166 HD
ENDROOT
BRANCH   1  29
HETATM   29  N1  UNL     1      18.659  -0.188  51.839  1.00  0.00    -0.403 NA
HETATM   30  C1  UNL     1      17.986  -0.788  52.769  1.00  0.00     0.313 C 
ENDBRANCH   1  29
TORSDOF 1
ENDMDL
MODEL 7
REMARK VINA RESULT:      -8.0      6.173     10.792
REMARK  1 active torsions:
REMARK  status: ('A' for Active; 'I' for Inactive)
REMARK    1  A    between atoms: N1_2  and  C2_3 
ROOT
HETATM    1  C2  UNL     1      32.207   8.103  48.314  1.00  0.00     0.124 C 
HETATM    2  C3  UNL     1      31.022   8.068  47.768  1.00  0.00     0.109 C 
HETATM    3  N2  UNL     1      29.721   8.586  47.402  1.00  0.00    -0.376 NA
HETATM    4  C4  UNL     1      28.831   9.034  48.232  1.00  0.00     0.266 C 
HETATM    5  C5  UNL     1      28.714   9.215  49.708  1.00  0.00     0.117 C 
HETATM    6  C6  UNL     1      27.452   9.641  50.007  1.00  0.00     0.097 C 
HETATM    7  N3  UNL     1      26.106  10.021  49.536  1.00  0.00    -0.303 NA
HETATM    8  C7  UNL     1      25.518   9.348  48.576  1.00  0.00     0.102 C 
HETATM    9  C8  UNL     1      24.654   8.778  47.544  1.00  0.00     0.166 C 
HETATM   10  N4  UNL     1      24.697   7.325  47.424  1.00  0.00    -0.388 N 
HETATM   11  C9  UNL     1      24.240   6.403  48.393  1.00  0.00     0.017 C 
HETATM   12  C10 UNL     1      24.998   5.493  48.985  1.00  0.00     0.004 C 
HETATM   13  C11 UNL     1      24.377   4.605  49.995  1.00  0.00     0.220 C 
HETATM   14  N5  UNL     1      23.755   3.849  50.891  1.00  0.00    -0.309 NA
HETATM   15  C12 UNL     1      22.385   4.105  51.218  1.00  0.00     0.078 C 
HETATM   16  C13 UNL     1      21.607   4.730  50.365  1.00  0.00     0.036 C 
HETATM   17  C14 UNL     1      20.296   5.192  50.199  1.00  0.00    -0.024 C 
HETATM   18  C15 UNL     1      20.538   5.717  48.949  1.00  0.00    -0.030 C 
HETATM   19  C16 UNL     1      21.944   5.466  48.590  1.00  0.00     0.033 C 
HETATM   20  C17 UNL     1      22.798   6.661  48.400  1.00  0.00     0.061 C 
HETATM   21  C18 UNL     1      26.386   5.245  48.957  1.00  0.00    -0.052 C 
HETATM   22  C19 UNL     1      27.167   4.201  49.573  1.00  0.00     0.049 C 
HETATM   23  C20 UNL     1      27.420   5.780  48.397  1.00  0.00    -0.008 C 
HETATM   24  C21 UNL     1      28.724   6.108  47.948  1.00  0.00     0.059 C 
HETATM   25  C22 UNL     1      29.980   5.827  47.946  1.00  0.00     0.072 C 
HETATM   26  N6  UNL     1      30.745   6.771  47.161  1.00  0.00    -0.355 N 
HETATM   27  H10 UNL     1      25.034   6.706  46.652  1.00  0.00     0.159 HD
HETATM   28  H26 UNL     1      31.186   6.755  46.191  1.00  0.00     0.166 HD
ENDROOT
BRANCH   1  29
HETATM   29  N1  UNL     1      33.334   7.258  48.469  1.00  0.00    -0.403 NA
HETATM   30  C1  UNL     1      34.563   7.621  48.279  1.00  0.00     0.313 C 
ENDBRANCH   1  29
TORSDOF 1
ENDMDL
MODEL 8
REMARK VINA RESULT:      -7.8      3.885      5.917
REMARK  1 active torsions:
REMARK  status: ('A' for Active; 'I' for Inactive)
REMARK    1  A    between atoms: N1_2  and  C2_3 
ROOT
HETATM    1  C2  UNL     1      21.284  -0.307  52.127  1.00  0.00     0.124 C 
HETATM    2  C3  UNL     1      21.435   0.969  51.895  1.00  0.00     0.109 C 
HETATM    3  N2  UNL     1      21.252   2.212  51.177  1.00  0.00    -0.376 NA
HETATM    4  C4  UNL     1      21.553   2.410  49.931  1.00  0.00     0.266 C 
HETATM    5  C5  UNL     1      22.129   1.611  48.812  1.00  0.00     0.117 C 
HETATM    6  C6  UNL     1      22.320   2.426  47.733  1.00  0.00     0.097 C 
HETATM    7  N3  UNL     1      22.215   3.772  47.137  1.00  0.00    -0.303 NA
HETATM    8  C7  UNL     1      22.509   4.839  47.840  1.00  0.00     0.102 C 
HETATM    9  C8  UNL     1      22.772   6.168  48.390  1.00  0.00     0.166 C 
HETATM   10  N4  UNL     1      23.902   6.251  49.310  1.00  0.00    -0.388 N 
HETATM   11  C9  UNL     1      25.260   6.063  48.968  1.00  0.00     0.017 C 
HETATM   12  C10 UNL     1      26.046   5.131  49.484  1.00  0.00     0.004 C 
HETATM   13  C11 UNL     1      27.448   5.048  49.012  1.00  0.00     0.220 C 
HETATM   14  N5  UNL     1      28.688   5.031  48.540  1.00  0.00    -0.309 NA
HETATM   15  C12 UNL     1      29.066   5.921  47.485  1.00  0.00     0.078 C 
HETATM   16  C13 UNL     1      28.400   7.035  47.288  1.00  0.00     0.036 C 
HETATM   17  C14 UNL     1      28.359   8.167  46.466  1.00  0.00    -0.024 C 
HETATM   18  C15 UNL     1      27.265   8.708  47.104  1.00  0.00    -0.030 C 
HETATM   19  C16 UNL     1      26.857   7.809  48.197  1.00  0.00     0.033 C 
HETATM   20  C17 UNL     1      25.511   7.202  48.082  1.00  0.00     0.061 C 
HETATM   21  C18 UNL     1      25.796   4.046  50.351  1.00  0.00    -0.052 C 
HETATM   22  C19 UNL     1      26.696   3.085  50.939  1.00  0.00     0.049 C 
HETATM   23  C20 UNL     1      24.764   3.540  50.940  1.00  0.00    -0.008 C 
HETATM   24  C21 UNL     1      23.869   2.758  51.712  1.00  0.00     0.059 C 
HETATM   25  C22 UNL     1      23.699   1.765  52.512  1.00  0.00     0.072 C 
HETATM   26  N6  UNL     1      22.311   1.596  52.880  1.00  0.00    -0.355 N 
HETATM   27  H10 UNL     1      23.945   6.465  50.332  1.00  0.00     0.159 HD
HETATM   28  H26 UNL     1      21.730   1.826  53.743  1.00  0.00     0.166 HD
ENDROOT
BRANCH   1  29
HETATM   29  N1  UNL     1      21.694  -1.274  53.078  1.00  0.00    -0.403 NA
HETATM   30  C1  UNL     1      21.123  -1.476  54.223  1.00  0.00     0.313 C 
ENDBRANCH   1  29
TORSDOF 1
ENDMDL
MODEL 9
REMARK VINA RESULT:      -7.7      7.657      9.734
REMARK  1 active torsions:
REMARK  status: ('A' for Active; 'I' for Inactive)
REMARK    1  A    between atoms: N1_2  and  C2_3 
ROOT
HETATM    1  C2  UNL     1      22.721   8.106  46.222  1.00  0.00     0.124 C 
HETATM    2  C3  UNL     1      23.788   8.614  46.776  1.00  0.00     0.109 C 
HETATM    3  N2  UNL     1      24.978   9.436  46.844  1.00  0.00    -0.376 NA
HETATM    4  C4  UNL     1      25.984   9.367  46.029  1.00  0.00     0.266 C 
HETATM    5  C5  UNL     1      26.359   8.564  44.830  1.00  0.00     0.117 C 
HETATM    6  C6  UNL     1      27.635   8.880  44.461  1.00  0.00     0.097 C 
HETATM    7  N3  UNL     1      28.856   9.674  44.702  1.00  0.00    -0.303 NA
HETATM    8  C7  UNL     1      29.287   9.883  45.923  1.00  0.00     0.102 C 
HETATM    9  C8  UNL     1      29.973  10.259  47.158  1.00  0.00     0.166 C 
HETATM   10  N4  UNL     1      29.971   9.245  48.207  1.00  0.00    -0.388 N 
HETATM   11  C9  UNL     1      30.635   7.999  48.153  1.00  0.00     0.017 C 
HETATM   12  C10 UNL     1      30.037   6.821  48.237  1.00  0.00     0.004 C 
HETATM   13  C11 UNL     1      30.868   5.598  48.147  1.00  0.00     0.220 C 
HETATM   14  N5  UNL     1      31.675   4.548  48.054  1.00  0.00    -0.309 NA
HETATM   15  C12 UNL     1      33.069   4.735  47.790  1.00  0.00     0.078 C 
HETATM   16  C13 UNL     1      33.651   5.873  48.090  1.00  0.00     0.036 C 
HETATM   17  C14 UNL     1      34.889   6.524  48.047  1.00  0.00    -0.024 C 
HETATM   18  C15 UNL     1      34.402   7.689  48.596  1.00  0.00    -0.030 C 
HETATM   19  C16 UNL     1      32.967   7.521  48.878  1.00  0.00     0.033 C 
HETATM   20  C17 UNL     1      32.042   8.405  48.132  1.00  0.00     0.061 C 
HETATM   21  C18 UNL     1      28.678   6.442  48.273  1.00  0.00    -0.052 C 
HETATM   22  C19 UNL     1      28.067   5.145  48.427  1.00  0.00     0.049 C 
HETATM   23  C20 UNL     1      27.538   7.047  48.220  1.00  0.00    -0.008 C 
HETATM   24  C21 UNL     1      26.162   7.384  48.194  1.00  0.00     0.059 C 
HETATM   25  C22 UNL     1      24.940   6.985  48.246  1.00  0.00     0.072 C 
HETATM   26  N6  UNL     1      24.005   8.082  48.118  1.00  0.00    -0.355 N 
HETATM   27  H10 UNL     1      29.527   9.232  49.153  1.00  0.00     0.159 HD
HETATM   28  H26 UNL     1      23.396   8.631  48.798  1.00  0.00     0.166 HD
ENDROOT
BRANCH   1  29
HETATM   29  N1  UNL     1      21.678   7.203  46.547  1.00  0.00    -0.403 NA
HETATM   30  C1  UNL     1      21.674   5.941  46.258  1.00  0.00     0.313 C 
ENDBRANCH   1  29
TORSDOF 1
ENDMDL
