MODEL 1
REMARK VINA RESULT:      -6.8      0.000      0.000
REMARK  2 active torsions:
REMARK  status: ('A' for Active; 'I' for Inactive)
REMARK    1  A    between atoms: O1_2  and  C2_3 
REMARK    2  A    between atoms: C6_7  and  C7_8 
REMARK       I    between atoms: N4_17  and  C13_18 
ROOT
HETATM    1  C2  UNL     1      23.047   2.182  50.104  1.00  0.00     0.060 A 
HETATM    2  C3  UNL     1      24.228   2.360  50.756  1.00  0.00     0.090 A 
HETATM    3  C4  UNL     1      24.372   2.992  51.963  1.00  0.00     0.016 A 
HETATM    4  C5  UNL     1      24.072   3.659  53.098  1.00  0.00    -0.032 A 
HETATM    5  C6  UNL     1      22.852   3.470  52.424  1.00  0.00     0.054 A 
HETATM    6  C7  UNL     1      22.870   2.835  51.261  1.00  0.00     0.090 A 
HETATM    7  N1  UNL     1      21.526   2.227  51.376  1.00  0.00    -0.310 N 
HETATM    8  C8  UNL     1      20.307   3.015  51.295  1.00  0.00     0.286 C 
HETATM    9  N2  UNL     1      19.222   2.370  51.930  1.00  0.00    -0.284 NA
HETATM   10  C9  UNL     1      19.141   1.095  51.879  1.00  0.00     0.101 C 
HETATM   11  C10 UNL     1      20.194   0.296  51.147  1.00  0.00     0.160 C 
HETATM   12  N3  UNL     1      21.511   0.818  51.566  1.00  0.00    -0.225 NA
HETATM   13  C11 UNL     1      21.706   0.308  52.863  1.00  0.00     0.134 C 
HETATM   14  C12 UNL     1      22.840   0.709  53.687  1.00  0.00     0.142 C 
HETATM   15  N4  UNL     1      24.176   0.320  53.328  1.00  0.00    -0.351 N 
HETATM   16  C13 UNL     1      24.890  -0.655  54.164  1.00  0.00     0.215 C 
HETATM   17  C14 UNL     1      24.224  -1.227  55.378  1.00  0.00     0.117 C 
HETATM   18  O2  UNL     1      26.059  -1.098  53.980  1.00  0.00    -0.274 OA
HETATM   19  C15 UNL     1      25.034   0.675  52.231  1.00  0.00     0.127 C 
HETATM   20  C16 UNL     1      25.616   2.101  52.273  1.00  0.00     0.036 C 
ENDROOT
BRANCH   1  21
HETATM   21  O1  UNL     1      22.391   1.690  49.012  1.00  0.00    -0.361 OA
HETATM   22  C1  UNL     1      22.382   2.311  47.766  1.00  0.00     0.209 C 
ENDBRANCH   1  21
TORSDOF 2
ENDMDL
MODEL 2
REMARK VINA RESULT:      -6.7      2.004      2.518
REMARK  2 active torsions:
REMARK  status: ('A' for Active; 'I' for Inactive)
REMARK    1  A    between atoms: O1_2  and  C2_3 
REMARK    2  A    between atoms: C6_7  and  C7_8 
REMARK       I    between atoms: N4_17  and  C13_18 
ROOT
HETATM    1  C2  UNL     1      22.448   3.541  49.141  1.00  0.00     0.060 A 
HETATM    2  C3  UNL     1      23.665   4.143  49.223  1.00  0.00     0.090 A 
HETATM    3  C4  UNL     1      24.022   5.071  50.166  1.00  0.00     0.016 A 
HETATM    4  C5  UNL     1      23.951   5.910  51.221  1.00  0.00    -0.032 A 
HETATM    5  C6  UNL     1      22.694   5.283  51.137  1.00  0.00     0.054 A 
HETATM    6  C7  UNL     1      22.497   4.402  50.168  1.00  0.00     0.090 A 
HETATM    7  N1  UNL     1      21.539   3.547  50.904  1.00  0.00    -0.310 N 
HETATM    8  C8  UNL     1      20.190   3.987  51.220  1.00  0.00     0.286 C 
HETATM    9  N2  UNL     1      19.655   3.287  52.326  1.00  0.00    -0.284 NA
HETATM   10  C9  UNL     1      19.960   2.056  52.488  1.00  0.00     0.101 C 
HETATM   11  C10 UNL     1      20.880   1.366  51.508  1.00  0.00     0.160 C 
HETATM   12  N3  UNL     1      22.029   2.266  51.276  1.00  0.00    -0.225 NA
HETATM   13  C11 UNL     1      22.817   2.152  52.437  1.00  0.00     0.134 C 
HETATM   14  C12 UNL     1      23.984   2.996  52.662  1.00  0.00     0.142 C 
HETATM   15  N4  UNL     1      25.158   2.850  51.845  1.00  0.00    -0.351 N 
HETATM   16  C13 UNL     1      26.385   2.305  52.443  1.00  0.00     0.215 C 
HETATM   17  C14 UNL     1      26.402   1.914  53.889  1.00  0.00     0.117 C 
HETATM   18  O2  UNL     1      27.490   2.113  51.860  1.00  0.00    -0.274 OA
HETATM   19  C15 UNL     1      25.419   3.110  50.457  1.00  0.00     0.127 C 
HETATM   20  C16 UNL     1      25.506   4.596  50.061  1.00  0.00     0.036 C 
ENDROOT
BRANCH   1  21
HETATM   21  O1  UNL     1      21.636   2.656  48.491  1.00  0.00    -0.361 OA
HETATM   22  C1  UNL     1      20.699   3.024  47.530  1.00  0.00     0.209 C 
ENDBRANCH   1  21
TORSDOF 2
ENDMDL
MODEL 3
REMARK VINA RESULT:      -6.6     11.099     13.335
REMARK  2 active torsions:
REMARK  status: ('A' for Active; 'I' for Inactive)
REMARK    1  A    between atoms: O1_2  and  C2_3 
REMARK    2  A    between atoms: C6_7  and  C7_8 
REMARK       I    between atoms: N4_17  and  C13_18 
ROOT
HETATM    1  C2  UNL     1      34.672   4.958  48.465  1.00  0.00     0.060 A 
HETATM    2  C3  UNL     1      34.820   4.031  47.481  1.00  0.00     0.090 A 
HETATM    3  C4  UNL     1      33.794   3.349  46.881  1.00  0.00     0.016 A 
HETATM    4  C5  UNL     1      32.548   2.923  46.582  1.00  0.00    -0.032 A 
HETATM    5  C6  UNL     1      32.397   3.886  47.597  1.00  0.00     0.054 A 
HETATM    6  C7  UNL     1      33.486   4.465  48.079  1.00  0.00     0.090 A 
HETATM    7  N1  UNL     1      32.861   5.766  48.405  1.00  0.00    -0.310 N 
HETATM    8  C8  UNL     1      31.907   5.918  49.491  1.00  0.00     0.286 C 
HETATM    9  N2  UNL     1      31.073   7.044  49.303  1.00  0.00    -0.284 NA
HETATM   10  C9  UNL     1      31.557   8.090  48.751  1.00  0.00     0.101 C 
HETATM   11  C10 UNL     1      33.002   8.117  48.309  1.00  0.00     0.160 C 
HETATM   12  N3  UNL     1      33.262   6.855  47.586  1.00  0.00    -0.225 NA
HETATM   13  C11 UNL     1      32.645   7.024  46.332  1.00  0.00     0.134 C 
HETATM   14  C12 UNL     1      32.555   5.937  45.364  1.00  0.00     0.142 C 
HETATM   15  N4  UNL     1      33.739   5.438  44.719  1.00  0.00    -0.351 N 
HETATM   16  C13 UNL     1      33.932   5.683  43.283  1.00  0.00     0.215 C 
HETATM   17  C14 UNL     1      32.898   6.442  42.509  1.00  0.00     0.117 C 
HETATM   18  O2  UNL     1      34.913   5.315  42.577  1.00  0.00    -0.274 OA
HETATM   19  C15 UNL     1      34.884   4.718  45.203  1.00  0.00     0.127 C 
HETATM   20  C16 UNL     1      34.638   3.243  45.572  1.00  0.00     0.036 C 
ENDROOT
BRANCH   1  21
HETATM   21  O1  UNL     1      35.265   5.840  49.323  1.00  0.00    -0.361 OA
HETATM   22  C1  UNL     1      36.392   6.594  49.006  1.00  0.00     0.209 C 
ENDBRANCH   1  21
TORSDOF 2
ENDMDL
MODEL 4
REMARK VINA RESULT:      -6.6      2.399      4.487
REMARK  2 active torsions:
REMARK  status: ('A' for Active; 'I' for Inactive)
REMARK    1  A    between atoms: O1_2  and  C2_3 
REMARK    2  A    between atoms: C6_7  and  C7_8 
REMARK       I    between atoms: N4_17  and  C13_18 
ROOT
HETATM    1  C2  UNL     1      22.755   3.958  51.599  1.00  0.00     0.060 A 
HETATM    2  C3  UNL     1      21.582   3.350  51.273  1.00  0.00     0.090 A 
HETATM    3  C4  UNL     1      21.463   2.252  50.463  1.00  0.00     0.016 A 
HETATM    4  C5  UNL     1      21.790   1.224  49.650  1.00  0.00    -0.032 A 
HETATM    5  C6  UNL     1      23.003   1.851  49.992  1.00  0.00     0.054 A 
HETATM    6  C7  UNL     1      22.958   2.907  50.790  1.00  0.00     0.090 A 
HETATM    7  N1  UNL     1      24.273   2.691  51.435  1.00  0.00    -0.310 N 
HETATM    8  C8  UNL     1      25.527   2.875  50.724  1.00  0.00     0.286 C 
HETATM    9  N2  UNL     1      26.579   2.141  51.317  1.00  0.00    -0.284 NA
HETATM   10  C9  UNL     1      26.601   2.003  52.588  1.00  0.00     0.101 C 
HETATM   11  C10 UNL     1      25.515   2.619  53.437  1.00  0.00     0.160 C 
HETATM   12  N3  UNL     1      24.222   2.295  52.799  1.00  0.00    -0.225 NA
HETATM   13  C11 UNL     1      23.999   0.939  53.103  1.00  0.00     0.134 C 
HETATM   14  C12 UNL     1      22.882   0.194  52.533  1.00  0.00     0.142 C 
HETATM   15  N4  UNL     1      21.531   0.506  52.910  1.00  0.00    -0.351 N 
HETATM   16  C13 UNL     1      20.770  -0.458  53.717  1.00  0.00     0.215 C 
HETATM   17  C14 UNL     1      21.404  -1.750  54.133  1.00  0.00     0.117 C 
HETATM   18  O2  UNL     1      19.582  -0.330  54.129  1.00  0.00    -0.274 OA
HETATM   19  C15 UNL     1      20.694   1.651  52.682  1.00  0.00     0.127 C 
HETATM   20  C16 UNL     1      20.178   1.826  51.241  1.00  0.00     0.036 C 
ENDROOT
BRANCH   1  21
HETATM   21  O1  UNL     1      23.391   4.959  52.276  1.00  0.00    -0.361 OA
HETATM   22  C1  UNL     1      23.844   6.133  51.680  1.00  0.00     0.209 C 
ENDBRANCH   1  21
TORSDOF 2
ENDMDL
MODEL 5
REMARK VINA RESULT:      -6.5      2.517      4.852
REMARK  2 active torsions:
REMARK  status: ('A' for Active; 'I' for Inactive)
REMARK    1  A    between atoms: O1_2  and  C2_3 
REMARK    2  A    between atoms: C6_7  and  C7_8 
REMARK       I    between atoms: N4_17  and  C13_18 
ROOT
HETATM    1  C2  UNL     1      23.666   1.879  51.634  1.00  0.00     0.060 A 
HETATM    2  C3  UNL     1      24.365   2.755  50.863  1.00  0.00     0.090 A 
HETATM    3  C4  UNL     1      24.036   3.112  49.582  1.00  0.00     0.016 A 
HETATM    4  C5  UNL     1      23.381   3.173  48.403  1.00  0.00    -0.032 A 
HETATM    5  C6  UNL     1      22.657   2.271  49.204  1.00  0.00     0.054 A 
HETATM    6  C7  UNL     1      23.098   2.026  50.428  1.00  0.00     0.090 A 
HETATM    7  N1  UNL     1      21.776   1.773  51.041  1.00  0.00    -0.310 N 
HETATM    8  C8  UNL     1      20.993   0.586  50.736  1.00  0.00     0.286 C 
HETATM    9  N2  UNL     1      19.616   0.787  50.988  1.00  0.00    -0.284 NA
HETATM   10  C9  UNL     1      19.266   1.526  51.971  1.00  0.00     0.101 C 
HETATM   11  C10 UNL     1      20.314   2.172  52.847  1.00  0.00     0.160 C 
HETATM   12  N3  UNL     1      21.327   2.768  51.951  1.00  0.00    -0.225 NA
HETATM   13  C11 UNL     1      20.719   3.929  51.440  1.00  0.00     0.134 C 
HETATM   14  C12 UNL     1      21.348   4.736  50.401  1.00  0.00     0.142 C 
HETATM   15  N4  UNL     1      22.545   5.480  50.681  1.00  0.00    -0.351 N 
HETATM   16  C13 UNL     1      22.485   6.948  50.719  1.00  0.00     0.215 C 
HETATM   17  C14 UNL     1      21.187   7.650  50.462  1.00  0.00     0.117 C 
HETATM   18  O2  UNL     1      23.442   7.739  50.953  1.00  0.00    -0.274 OA
HETATM   19  C15 UNL     1      23.892   5.083  50.985  1.00  0.00     0.127 C 
HETATM   20  C16 UNL     1      24.700   4.507  49.808  1.00  0.00     0.036 C 
ENDROOT
BRANCH   1  21
HETATM   21  O1  UNL     1      23.545   1.229  52.830  1.00  0.00    -0.361 OA
HETATM   22  C1  UNL     1      24.211   0.046  53.140  1.00  0.00     0.209 C 
ENDBRANCH   1  21
TORSDOF 2
ENDMDL
MODEL 6
REMARK VINA RESULT:      -6.2      1.817      2.367
REMARK  2 active torsions:
REMARK  status: ('A' for Active; 'I' for Inactive)
REMARK    1  A    between atoms: O1_2  and  C2_3 
REMARK    2  A    between atoms: C6_7  and  C7_8 
REMARK       I    between atoms: N4_17  and  C13_18 
ROOT
HETATM    1  C2  UNL     1      22.832   3.484  49.456  1.00  0.00     0.060 A 
HETATM    2  C3  UNL     1      23.733   3.235  50.444  1.00  0.00     0.090 A 
HETATM    3  C4  UNL     1      23.712   3.806  51.690  1.00  0.00     0.016 A 
HETATM    4  C5  UNL     1      23.333   4.569  52.738  1.00  0.00    -0.032 A 
HETATM    5  C6  UNL     1      22.400   4.821  51.715  1.00  0.00     0.054 A 
HETATM    6  C7  UNL     1      22.550   4.190  50.560  1.00  0.00     0.090 A 
HETATM    7  N1  UNL     1      21.113   4.121  50.213  1.00  0.00    -0.310 N 
HETATM    8  C8  UNL     1      20.347   5.299  49.841  1.00  0.00     0.286 C 
HETATM    9  N2  UNL     1      18.963   5.116  50.063  1.00  0.00    -0.284 NA
HETATM   10  C9  UNL     1      18.452   3.959  49.877  1.00  0.00     0.101 C 
HETATM   11  C10 UNL     1      19.321   2.808  49.427  1.00  0.00     0.160 C 
HETATM   12  N3  UNL     1      20.538   2.823  50.265  1.00  0.00    -0.225 NA
HETATM   13  C11 UNL     1      20.124   2.314  51.511  1.00  0.00     0.134 C 
HETATM   14  C12 UNL     1      21.011   2.295  52.668  1.00  0.00     0.142 C 
HETATM   15  N4  UNL     1      22.160   1.433  52.692  1.00  0.00    -0.351 N 
HETATM   16  C13 UNL     1      22.181   0.288  53.614  1.00  0.00     0.215 C 
HETATM   17  C14 UNL     1      21.013   0.036  54.518  1.00  0.00     0.117 C 
HETATM   18  O2  UNL     1      23.109  -0.558  53.750  1.00  0.00    -0.274 OA
HETATM   19  C15 UNL     1      23.383   1.416  51.938  1.00  0.00     0.127 C 
HETATM   20  C16 UNL     1      24.392   2.529  52.278  1.00  0.00     0.036 C 
ENDROOT
BRANCH   1  21
HETATM   21  O1  UNL     1      22.417   3.236  48.178  1.00  0.00    -0.361 OA
HETATM   22  C1  UNL     1      22.515   1.993  47.559  1.00  0.00     0.209 C 
ENDBRANCH   1  21
TORSDOF 2
ENDMDL
MODEL 7
REMARK VINA RESULT:      -6.2     10.042     12.008
REMARK  2 active torsions:
REMARK  status: ('A' for Active; 'I' for Inactive)
REMARK    1  A    between atoms: O1_2  and  C2_3 
REMARK    2  A    between atoms: C6_7  and  C7_8 
REMARK       I    between atoms: N4_17  and  C13_18 
ROOT
HETATM    1  C2  UNL     1      32.863   8.632  47.965  1.00  0.00     0.060 A 
HETATM    2  C3  UNL     1      31.995   9.671  47.840  1.00  0.00     0.090 A 
HETATM    3  C4  UNL     1      31.030   9.779  46.873  1.00  0.00     0.016 A 
HETATM    4  C5  UNL     1      30.263   9.495  45.799  1.00  0.00    -0.032 A 
HETATM    5  C6  UNL     1      31.159   8.419  45.933  1.00  0.00     0.054 A 
HETATM    6  C7  UNL     1      32.037   8.454  46.924  1.00  0.00     0.090 A 
HETATM    7  N1  UNL     1      32.123   6.992  47.132  1.00  0.00    -0.310 N 
HETATM    8  C8  UNL     1      32.756   6.105  46.168  1.00  0.00     0.286 C 
HETATM    9  N2  UNL     1      32.282   4.779  46.285  1.00  0.00    -0.284 NA
HETATM   10  C9  UNL     1      31.983   4.325  47.442  1.00  0.00     0.101 C 
HETATM   11  C10 UNL     1      32.137   5.201  48.664  1.00  0.00     0.160 C 
HETATM   12  N3  UNL     1      31.545   6.515  48.339  1.00  0.00    -0.225 NA
HETATM   13  C11 UNL     1      30.154   6.307  48.390  1.00  0.00     0.134 C 
HETATM   14  C12 UNL     1      29.205   7.340  47.991  1.00  0.00     0.142 C 
HETATM   15  N4  UNL     1      29.059   8.537  48.774  1.00  0.00    -0.351 N 
HETATM   16  C13 UNL     1      27.816   8.757  49.525  1.00  0.00     0.215 C 
HETATM   17  C14 UNL     1      26.717   7.740  49.466  1.00  0.00     0.117 C 
HETATM   18  O2  UNL     1      27.539   9.749  50.257  1.00  0.00    -0.274 OA
HETATM   19  C15 UNL     1      29.935   9.646  49.032  1.00  0.00     0.127 C 
HETATM   20  C16 UNL     1      30.150  10.616  47.854  1.00  0.00     0.036 C 
ENDROOT
BRANCH   1  21
HETATM   21  O1  UNL     1      33.902   8.067  48.649  1.00  0.00    -0.361 OA
HETATM   22  C1  UNL     1      35.241   8.236  48.305  1.00  0.00     0.209 C 
ENDBRANCH   1  21
TORSDOF 2
ENDMDL
MODEL 8
REMARK VINA RESULT:      -6.1      3.493      4.841
REMARK  2 active torsions:
REMARK  status: ('A' for Active; 'I' for Inactive)
REMARK    1  A    between atoms: O1_2  and  C2_3 
REMARK    2  A    between atoms: C6_7  and  C7_8 
REMARK       I    between atoms: N4_17  and  C13_18 
ROOT
HETATM    1  C2  UNL     1      21.040   5.104  50.422  1.00  0.00     0.060 A 
HETATM    2  C3  UNL     1      21.972   5.838  51.089  1.00  0.00     0.090 A 
HETATM    3  C4  UNL     1      22.860   5.337  52.004  1.00  0.00     0.016 A 
HETATM    4  C5  UNL     1      23.515   4.468  52.803  1.00  0.00    -0.032 A 
HETATM    5  C6  UNL     1      22.554   3.710  52.109  1.00  0.00     0.054 A 
HETATM    6  C7  UNL     1      21.763   4.336  51.251  1.00  0.00     0.090 A 
HETATM    7  N1  UNL     1      21.585   3.199  50.320  1.00  0.00    -0.310 N 
HETATM    8  C8  UNL     1      20.811   2.020  50.673  1.00  0.00     0.286 C 
HETATM    9  N2  UNL     1      21.191   0.894  49.909  1.00  0.00    -0.284 NA
HETATM   10  C9  UNL     1      21.547   1.061  48.692  1.00  0.00     0.101 C 
HETATM   11  C10 UNL     1      21.559   2.446  48.087  1.00  0.00     0.160 C 
HETATM   12  N3  UNL     1      22.220   3.343  49.057  1.00  0.00    -0.225 NA
HETATM   13  C11 UNL     1      23.591   3.043  48.950  1.00  0.00     0.134 C 
HETATM   14  C12 UNL     1      24.580   3.623  49.850  1.00  0.00     0.142 C 
HETATM   15  N4  UNL     1      24.878   5.028  49.796  1.00  0.00    -0.351 N 
HETATM   16  C13 UNL     1      26.192   5.465  49.302  1.00  0.00     0.215 C 
HETATM   17  C14 UNL     1      27.202   4.449  48.865  1.00  0.00     0.117 C 
HETATM   18  O2  UNL     1      26.601   6.655  49.191  1.00  0.00    -0.274 OA
HETATM   19  C15 UNL     1      24.113   6.201  50.116  1.00  0.00     0.127 C 
HETATM   20  C16 UNL     1      23.878   6.457  51.617  1.00  0.00     0.036 C 
ENDROOT
BRANCH   1  21
HETATM   21  O1  UNL     1      20.020   5.077  49.514  1.00  0.00    -0.361 OA
HETATM   22  C1  UNL     1      19.820   6.053  48.542  1.00  0.00     0.209 C 
ENDBRANCH   1  21
TORSDOF 2
ENDMDL
MODEL 9
REMARK VINA RESULT:      -6.1      2.446      4.355
REMARK  2 active torsions:
REMARK  status: ('A' for Active; 'I' for Inactive)
REMARK    1  A    between atoms: O1_2  and  C2_3 
REMARK    2  A    between atoms: C6_7  and  C7_8 
REMARK       I    between atoms: N4_17  and  C13_18 
ROOT
HETATM    1  C2  UNL     1      19.602   2.873  51.035  1.00  0.00     0.060 A 
HETATM    2  C3  UNL     1      20.069   1.597  50.990  1.00  0.00     0.090 A 
HETATM    3  C4  UNL     1      20.811   1.066  49.967  1.00  0.00     0.016 A 
HETATM    4  C5  UNL     1      21.479   0.955  48.799  1.00  0.00    -0.032 A 
HETATM    5  C6  UNL     1      20.999   2.277  48.850  1.00  0.00     0.054 A 
HETATM    6  C7  UNL     1      20.295   2.648  49.909  1.00  0.00     0.090 A 
HETATM    7  N1  UNL     1      20.709   4.068  49.903  1.00  0.00    -0.310 N 
HETATM    8  C8  UNL     1      20.269   5.002  48.879  1.00  0.00     0.286 C 
HETATM    9  N2  UNL     1      21.153   6.098  48.753  1.00  0.00    -0.284 NA
HETATM   10  C9  UNL     1      21.732   6.552  49.799  1.00  0.00     0.101 C 
HETATM   11  C10 UNL     1      21.471   5.920  51.146  1.00  0.00     0.160 C 
HETATM   12  N3  UNL     1      21.564   4.456  50.970  1.00  0.00    -0.225 NA
HETATM   13  C11 UNL     1      22.943   4.192  50.865  1.00  0.00     0.134 C 
HETATM   14  C12 UNL     1      23.451   2.864  50.542  1.00  0.00     0.142 C 
HETATM   15  N4  UNL     1      23.310   1.783  51.478  1.00  0.00    -0.351 N 
HETATM   16  C13 UNL     1      24.507   1.245  52.140  1.00  0.00     0.215 C 
HETATM   17  C14 UNL     1      25.854   1.824  51.832  1.00  0.00     0.117 C 
HETATM   18  O2  UNL     1      24.548   0.306  52.984  1.00  0.00    -0.274 OA
HETATM   19  C15 UNL     1      22.169   1.065  51.976  1.00  0.00     0.127 C 
HETATM   20  C16 UNL     1      21.502   0.098  50.980  1.00  0.00     0.036 C 
ENDROOT
BRANCH   1  21
HETATM   21  O1  UNL     1      18.899   3.826  51.716  1.00  0.00    -0.361 OA
HETATM   22  C1  UNL     1      17.524   4.009  51.595  1.00  0.00     0.209 C 
ENDBRANCH   1  21
TORSDOF 2
ENDMDL
