MODEL 1
REMARK VINA RESULT:      -8.2      0.000      0.000
REMARK  2 active torsions:
REMARK  status: ('A' for Active; 'I' for Inactive)
REMARK    1  A    between atoms: N1_2  and  N2_3 
REMARK    2  A    between atoms: N2_3  and  C2_4 
ROOT
HETATM    1  C2  UNL     1      20.706   1.587  51.909  1.00  0.00     0.168 C 
HETATM    2  C3  UNL     1      22.161   1.725  51.685  1.00  0.00     0.046 C 
HETATM    3  C4  UNL     1      22.721   3.140  51.947  1.00  0.00     0.042 C 
HETATM    4  C5  UNL     1      24.227   2.922  51.941  1.00  0.00    -0.058 A 
HETATM    5  C6  UNL     1      24.746   2.858  53.242  1.00  0.00     0.010 A 
HETATM    6  C7  UNL     1      26.086   2.529  53.278  1.00  0.00     0.037 A 
HETATM    7  C8  UNL     1      26.841   2.286  52.127  1.00  0.00     0.069 A 
HETATM    8  C9  UNL     1      26.283   2.371  50.881  1.00  0.00     0.037 A 
HETATM    9  C10 UNL     1      24.958   2.695  50.812  1.00  0.00     0.010 A 
HETATM   10  O1  UNL     1      28.059   1.995  52.812  1.00  0.00    -0.347 OA
HETATM   11  C11 UNL     1      28.317   0.575  53.023  1.00  0.00     0.214 C 
HETATM   12  C12 UNL     1      27.111   0.079  53.743  1.00  0.00    -0.034 A 
HETATM   13  C13 UNL     1      26.750  -0.034  55.063  1.00  0.00     0.012 A 
HETATM   14  C14 UNL     1      25.499  -0.463  55.411  1.00  0.00     0.038 A 
HETATM   15  C15 UNL     1      24.501  -0.816  54.533  1.00  0.00     0.074 A 
HETATM   16  C16 UNL     1      24.836  -0.720  53.200  1.00  0.00     0.038 A 
HETATM   17  C17 UNL     1      26.095  -0.287  52.844  1.00  0.00     0.012 A 
HETATM   18  O2  UNL     1      23.202  -1.253  54.863  1.00  0.00    -0.322 OA
HETATM   19  C18 UNL     1      22.101  -0.564  54.284  1.00  0.00     0.159 C 
HETATM   20  C19 UNL     1      21.413   0.529  53.883  1.00  0.00     0.109 C 
HETATM   21  N3  UNL     1      20.542   1.577  53.395  1.00  0.00    -0.380 N 
HETATM   22  H23 UNL     1      20.047   2.028  54.195  1.00  0.00     0.160 HD
ENDROOT
BRANCH   1  23
HETATM   23  N2  UNL     1      20.330   0.224  51.531  1.00  0.00    -0.239 NA
HETATM   24  H5  UNL     1      20.995  -0.172  50.823  1.00  0.00     0.142 HD
BRANCH  23  25
HETATM   25  N1  UNL     1      19.048   0.217  50.988  1.00  0.00    -0.264 NA
HETATM   26  C1  UNL     1      18.175  -0.522  51.877  1.00  0.00     0.126 C 
HETATM   27  H4  UNL     1      19.015  -0.143  50.029  1.00  0.00     0.140 HD
ENDBRANCH  23  25
ENDBRANCH   1  23
TORSDOF 2
ENDMDL
MODEL 2
REMARK VINA RESULT:      -7.9      3.515      6.153
REMARK  2 active torsions:
REMARK  status: ('A' for Active; 'I' for Inactive)
REMARK    1  A    between atoms: N1_2  and  N2_3 
REMARK    2  A    between atoms: N2_3  and  C2_4 
ROOT
HETATM    1  C2  UNL     1      25.118   4.715  49.369  1.00  0.00     0.168 C 
HETATM    2  C3  UNL     1      23.785   4.169  49.697  1.00  0.00     0.046 C 
HETATM    3  C4  UNL     1      23.099   3.405  48.543  1.00  0.00     0.042 C 
HETATM    4  C5  UNL     1      21.931   2.714  49.231  1.00  0.00    -0.058 A 
HETATM    5  C6  UNL     1      22.207   1.365  49.490  1.00  0.00     0.010 A 
HETATM    6  C7  UNL     1      21.224   0.740  50.231  1.00  0.00     0.037 A 
HETATM    7  C8  UNL     1      20.073   1.397  50.675  1.00  0.00     0.069 A 
HETATM    8  C9  UNL     1      19.851   2.715  50.384  1.00  0.00     0.037 A 
HETATM    9  C10 UNL     1      20.806   3.361  49.652  1.00  0.00     0.010 A 
HETATM   10  O1  UNL     1      19.518   0.272  51.357  1.00  0.00    -0.347 OA
HETATM   11  C11 UNL     1      19.789   0.233  52.789  1.00  0.00     0.214 C 
HETATM   12  C12 UNL     1      21.274   0.303  52.891  1.00  0.00    -0.034 A 
HETATM   13  C13 UNL     1      22.287  -0.624  52.916  1.00  0.00     0.012 A 
HETATM   14  C14 UNL     1      23.596  -0.227  52.931  1.00  0.00     0.038 A 
HETATM   15  C15 UNL     1      24.038   1.074  52.925  1.00  0.00     0.074 A 
HETATM   16  C16 UNL     1      23.043   2.028  52.906  1.00  0.00     0.038 A 
HETATM   17  C17 UNL     1      21.722   1.634  52.891  1.00  0.00     0.012 A 
HETATM   18  O2  UNL     1      25.378   1.511  52.930  1.00  0.00    -0.322 OA
HETATM   19  C18 UNL     1      25.789   2.413  51.912  1.00  0.00     0.159 C 
HETATM   20  C19 UNL     1      25.853   2.887  50.647  1.00  0.00     0.109 C 
HETATM   21  N3  UNL     1      26.032   3.532  49.363  1.00  0.00    -0.380 N 
HETATM   22  H23 UNL     1      26.735   3.007  48.797  1.00  0.00     0.160 HD
ENDROOT
BRANCH   1  23
HETATM   23  N2  UNL     1      25.580   5.477  50.530  1.00  0.00    -0.239 NA
HETATM   24  H5  UNL     1      24.773   5.852  51.085  1.00  0.00     0.142 HD
BRANCH  23  25
HETATM   25  N1  UNL     1      26.369   6.546  50.115  1.00  0.00    -0.264 NA
HETATM   26  C1  UNL     1      25.568   7.753  50.155  1.00  0.00     0.126 C 
HETATM   27  H4  UNL     1      26.800   6.400  49.197  1.00  0.00     0.140 HD
ENDBRANCH  23  25
ENDBRANCH   1  23
TORSDOF 2
ENDMDL
MODEL 3
REMARK VINA RESULT:      -7.9      3.007      5.425
REMARK  2 active torsions:
REMARK  status: ('A' for Active; 'I' for Inactive)
REMARK    1  A    between atoms: N1_2  and  N2_3 
REMARK    2  A    between atoms: N2_3  and  C2_4 
ROOT
HETATM    1  C2  UNL     1      24.133   5.456  50.000  1.00  0.00     0.168 C 
HETATM    2  C3  UNL     1      23.457   4.466  50.865  1.00  0.00     0.046 C 
HETATM    3  C4  UNL     1      22.343   3.656  50.168  1.00  0.00     0.042 C 
HETATM    4  C5  UNL     1      22.048   2.544  51.164  1.00  0.00    -0.058 A 
HETATM    5  C6  UNL     1      22.667   1.341  50.796  1.00  0.00     0.010 A 
HETATM    6  C7  UNL     1      22.532   0.347  51.744  1.00  0.00     0.037 A 
HETATM    7  C8  UNL     1      21.845   0.532  52.948  1.00  0.00     0.069 A 
HETATM    8  C9  UNL     1      21.252   1.727  53.251  1.00  0.00     0.037 A 
HETATM    9  C10 UNL     1      21.368   2.731  52.332  1.00  0.00     0.010 A 
HETATM   10  O1  UNL     1      22.081  -0.783  53.452  1.00  0.00    -0.347 OA
HETATM   11  C11 UNL     1      23.214  -0.892  54.363  1.00  0.00     0.214 C 
HETATM   12  C12 UNL     1      24.368  -0.348  53.593  1.00  0.00    -0.034 A 
HETATM   13  C13 UNL     1      25.303  -0.885  52.743  1.00  0.00     0.012 A 
HETATM   14  C14 UNL     1      26.210  -0.082  52.107  1.00  0.00     0.038 A 
HETATM   15  C15 UNL     1      26.296   1.284  52.231  1.00  0.00     0.074 A 
HETATM   16  C16 UNL     1      25.373   1.851  53.083  1.00  0.00     0.038 A 
HETATM   17  C17 UNL     1      24.456   1.047  53.727  1.00  0.00     0.012 A 
HETATM   18  O2  UNL     1      27.213   2.135  51.582  1.00  0.00    -0.322 OA
HETATM   19  C18 UNL     1      26.694   3.233  50.841  1.00  0.00     0.159 C 
HETATM   20  C19 UNL     1      25.837   3.841  49.990  1.00  0.00     0.109 C 
HETATM   21  N3  UNL     1      25.022   4.650  49.109  1.00  0.00    -0.380 N 
HETATM   22  H23 UNL     1      25.273   4.455  48.115  1.00  0.00     0.160 HD
ENDROOT
BRANCH   1  23
HETATM   23  N2  UNL     1      25.086   6.191  50.833  1.00  0.00    -0.239 NA
HETATM   24  H5  UNL     1      25.585   5.550  51.496  1.00  0.00     0.142 HD
BRANCH  23  25
HETATM   25  N1  UNL     1      24.421   7.165  51.572  1.00  0.00    -0.264 NA
HETATM   26  C1  UNL     1      23.804   8.100  50.654  1.00  0.00     0.126 C 
HETATM   27  H4  UNL     1      25.021   7.636  52.256  1.00  0.00     0.140 HD
ENDBRANCH  23  25
ENDBRANCH   1  23
TORSDOF 2
ENDMDL
MODEL 4
REMARK VINA RESULT:      -7.9      3.658      6.446
REMARK  2 active torsions:
REMARK  status: ('A' for Active; 'I' for Inactive)
REMARK    1  A    between atoms: N1_2  and  N2_3 
REMARK    2  A    between atoms: N2_3  and  C2_4 
ROOT
HETATM    1  C2  UNL     1      27.094   1.918  52.192  1.00  0.00     0.168 C 
HETATM    2  C3  UNL     1      26.351   2.976  51.476  1.00  0.00     0.046 C 
HETATM    3  C4  UNL     1      26.460   2.912  49.937  1.00  0.00     0.042 C 
HETATM    4  C5  UNL     1      25.389   3.888  49.472  1.00  0.00    -0.058 A 
HETATM    5  C6  UNL     1      24.224   3.223  49.065  1.00  0.00     0.010 A 
HETATM    6  C7  UNL     1      23.185   4.081  48.764  1.00  0.00     0.037 A 
HETATM    7  C8  UNL     1      23.294   5.471  48.858  1.00  0.00     0.069 A 
HETATM    8  C9  UNL     1      24.461   6.066  49.253  1.00  0.00     0.037 A 
HETATM    9  C10 UNL     1      25.508   5.244  49.559  1.00  0.00     0.010 A 
HETATM   10  O1  UNL     1      21.952   5.749  48.458  1.00  0.00    -0.347 OA
HETATM   11  C11 UNL     1      21.019   5.961  49.559  1.00  0.00     0.214 C 
HETATM   12  C12 UNL     1      21.136   4.732  50.391  1.00  0.00    -0.034 A 
HETATM   13  C13 UNL     1      20.507   3.511  50.408  1.00  0.00     0.012 A 
HETATM   14  C14 UNL     1      20.913   2.529  51.269  1.00  0.00     0.038 A 
HETATM   15  C15 UNL     1      21.941   2.633  52.175  1.00  0.00     0.074 A 
HETATM   16  C16 UNL     1      22.588   3.850  52.187  1.00  0.00     0.038 A 
HETATM   17  C17 UNL     1      22.184   4.844  51.321  1.00  0.00     0.012 A 
HETATM   18  O2  UNL     1      22.385   1.636  53.067  1.00  0.00    -0.322 OA
HETATM   19  C18 UNL     1      23.764   1.290  53.046  1.00  0.00     0.159 C 
HETATM   20  C19 UNL     1      24.947   1.004  52.456  1.00  0.00     0.109 C 
HETATM   21  N3  UNL     1      26.283   0.677  52.002  1.00  0.00    -0.380 N 
HETATM   22  H23 UNL     1      26.313  -0.313  51.674  1.00  0.00     0.160 HD
ENDROOT
BRANCH   1  23
HETATM   23  N2  UNL     1      26.960   2.179  53.625  1.00  0.00    -0.239 NA
HETATM   24  H5  UNL     1      26.186   2.860  53.817  1.00  0.00     0.142 HD
BRANCH  23  25
HETATM   25  N1  UNL     1      28.148   2.702  54.128  1.00  0.00    -0.264 NA
HETATM   26  C1  UNL     1      29.138   1.645  54.167  1.00  0.00     0.126 C 
HETATM   27  H4  UNL     1      28.037   3.160  55.038  1.00  0.00     0.140 HD
ENDBRANCH  23  25
ENDBRANCH   1  23
TORSDOF 2
ENDMDL
MODEL 5
REMARK VINA RESULT:      -7.8      1.744      3.890
REMARK  2 active torsions:
REMARK  status: ('A' for Active; 'I' for Inactive)
REMARK    1  A    between atoms: N1_2  and  N2_3 
REMARK    2  A    between atoms: N2_3  and  C2_4 
ROOT
HETATM    1  C2  UNL     1      20.198   1.385  52.149  1.00  0.00     0.168 C 
HETATM    2  C3  UNL     1      21.322   0.895  52.974  1.00  0.00     0.046 C 
HETATM    3  C4  UNL     1      21.642  -0.606  52.799  1.00  0.00     0.042 C 
HETATM    4  C5  UNL     1      22.984  -0.758  53.501  1.00  0.00    -0.058 A 
HETATM    5  C6  UNL     1      24.046  -0.786  52.587  1.00  0.00     0.010 A 
HETATM    6  C7  UNL     1      25.286  -0.788  53.193  1.00  0.00     0.037 A 
HETATM    7  C8  UNL     1      25.455  -0.765  54.581  1.00  0.00     0.069 A 
HETATM    8  C9  UNL     1      24.379  -0.746  55.426  1.00  0.00     0.037 A 
HETATM    9  C10 UNL     1      23.139  -0.743  54.856  1.00  0.00     0.010 A 
HETATM   10  O1  UNL     1      26.882  -0.758  54.552  1.00  0.00    -0.347 OA
HETATM   11  C11 UNL     1      27.488   0.564  54.671  1.00  0.00     0.214 C 
HETATM   12  C12 UNL     1      26.880   1.355  53.565  1.00  0.00    -0.034 A 
HETATM   13  C13 UNL     1      27.202   1.586  52.250  1.00  0.00     0.012 A 
HETATM   14  C14 UNL     1      26.368   2.313  51.445  1.00  0.00     0.038 A 
HETATM   15  C15 UNL     1      25.173   2.873  51.828  1.00  0.00     0.074 A 
HETATM   16  C16 UNL     1      24.825   2.663  53.145  1.00  0.00     0.038 A 
HETATM   17  C17 UNL     1      25.661   1.931  53.961  1.00  0.00     0.012 A 
HETATM   18  O2  UNL     1      24.291   3.618  51.019  1.00  0.00    -0.322 OA
HETATM   19  C18 UNL     1      22.934   3.200  50.951  1.00  0.00     0.159 C 
HETATM   20  C19 UNL     1      21.934   2.294  50.855  1.00  0.00     0.109 C 
HETATM   21  N3  UNL     1      20.745   1.474  50.760  1.00  0.00    -0.380 N 
HETATM   22  H23 UNL     1      20.597   1.177  49.771  1.00  0.00     0.160 HD
ENDROOT
BRANCH   1  23
HETATM   23  N2  UNL     1      19.972   2.788  52.500  1.00  0.00    -0.239 NA
HETATM   24  H5  UNL     1      20.082   2.944  53.532  1.00  0.00     0.142 HD
BRANCH  23  25
HETATM   25  N1  UNL     1      18.688   3.172  52.127  1.00  0.00    -0.264 NA
HETATM   26  C1  UNL     1      18.791   4.233  51.145  1.00  0.00     0.126 C 
HETATM   27  H4  UNL     1      18.097   3.438  52.921  1.00  0.00     0.140 HD
ENDBRANCH  23  25
ENDBRANCH   1  23
TORSDOF 2
ENDMDL
MODEL 6
REMARK VINA RESULT:      -7.7      3.297      6.297
REMARK  2 active torsions:
REMARK  status: ('A' for Active; 'I' for Inactive)
REMARK    1  A    between atoms: N1_2  and  N2_3 
REMARK    2  A    between atoms: N2_3  and  C2_4 
ROOT
HETATM    1  C2  UNL     1      25.810  -0.595  53.503  1.00  0.00     0.168 C 
HETATM    2  C3  UNL     1      24.670  -0.116  52.693  1.00  0.00     0.046 C 
HETATM    3  C4  UNL     1      23.440   0.330  53.513  1.00  0.00     0.042 C 
HETATM    4  C5  UNL     1      22.574   1.039  52.481  1.00  0.00    -0.058 A 
HETATM    5  C6  UNL     1      22.699   2.432  52.571  1.00  0.00     0.010 A 
HETATM    6  C7  UNL     1      22.033   3.104  51.566  1.00  0.00     0.037 A 
HETATM    7  C8  UNL     1      21.310   2.451  50.563  1.00  0.00     0.069 A 
HETATM    8  C9  UNL     1      21.215   1.087  50.530  1.00  0.00     0.037 A 
HETATM    9  C10 UNL     1      21.864   0.394  51.512  1.00  0.00     0.010 A 
HETATM   10  O1  UNL     1      20.914   3.638  49.875  1.00  0.00    -0.347 OA
HETATM   11  C11 UNL     1      21.756   3.993  48.739  1.00  0.00     0.214 C 
HETATM   12  C12 UNL     1      23.131   4.080  49.305  1.00  0.00    -0.034 A 
HETATM   13  C13 UNL     1      23.883   5.080  49.872  1.00  0.00     0.012 A 
HETATM   14  C14 UNL     1      25.121   4.814  50.389  1.00  0.00     0.038 A 
HETATM   15  C15 UNL     1      25.735   3.584  50.406  1.00  0.00     0.074 A 
HETATM   16  C16 UNL     1      25.007   2.561  49.838  1.00  0.00     0.038 A 
HETATM   17  C17 UNL     1      23.758   2.823  49.315  1.00  0.00     0.012 A 
HETATM   18  O2  UNL     1      27.004   3.281  50.940  1.00  0.00    -0.322 OA
HETATM   19  C18 UNL     1      27.092   2.229  51.893  1.00  0.00     0.159 C 
HETATM   20  C19 UNL     1      26.692   1.515  52.969  1.00  0.00     0.109 C 
HETATM   21  N3  UNL     1      26.417   0.639  54.089  1.00  0.00    -0.380 N 
HETATM   22  H23 UNL     1      26.711   1.098  54.979  1.00  0.00     0.160 HD
ENDROOT
BRANCH   1  23
HETATM   23  N2  UNL     1      26.844  -1.059  52.577  1.00  0.00    -0.239 NA
HETATM   24  H5  UNL     1      26.430  -1.346  51.657  1.00  0.00     0.142 HD
BRANCH  23  25
HETATM   25  N1  UNL     1      27.517  -2.149  53.121  1.00  0.00    -0.264 NA
HETATM   26  C1  UNL     1      28.928  -1.830  53.196  1.00  0.00     0.126 C 
HETATM   27  H4  UNL     1      27.346  -3.024  52.616  1.00  0.00     0.140 HD
ENDBRANCH  23  25
ENDBRANCH   1  23
TORSDOF 2
ENDMDL
MODEL 7
REMARK VINA RESULT:      -7.5      1.535      1.927
REMARK  2 active torsions:
REMARK  status: ('A' for Active; 'I' for Inactive)
REMARK    1  A    between atoms: N1_2  and  N2_3 
REMARK    2  A    between atoms: N2_3  and  C2_4 
ROOT
HETATM    1  C2  UNL     1      21.142   3.302  51.025  1.00  0.00     0.168 C 
HETATM    2  C3  UNL     1      22.563   2.925  51.177  1.00  0.00     0.046 C 
HETATM    3  C4  UNL     1      23.443   3.992  51.865  1.00  0.00     0.042 C 
HETATM    4  C5  UNL     1      24.734   3.240  52.158  1.00  0.00    -0.058 A 
HETATM    5  C6  UNL     1      24.801   2.829  53.496  1.00  0.00     0.010 A 
HETATM    6  C7  UNL     1      25.894   2.030  53.766  1.00  0.00     0.037 A 
HETATM    7  C8  UNL     1      26.833   1.673  52.794  1.00  0.00     0.069 A 
HETATM    8  C9  UNL     1      26.721   2.111  51.503  1.00  0.00     0.037 A 
HETATM    9  C10 UNL     1      25.650   2.903  51.205  1.00  0.00     0.010 A 
HETATM   10  O1  UNL     1      27.639   0.873  53.660  1.00  0.00    -0.347 OA
HETATM   11  C11 UNL     1      27.357  -0.557  53.608  1.00  0.00     0.214 C 
HETATM   12  C12 UNL     1      25.901  -0.662  53.905  1.00  0.00    -0.034 A 
HETATM   13  C13 UNL     1      25.155  -0.799  55.049  1.00  0.00     0.012 A 
HETATM   14  C14 UNL     1      23.788  -0.780  54.997  1.00  0.00     0.038 A 
HETATM   15  C15 UNL     1      23.032  -0.631  53.858  1.00  0.00     0.074 A 
HETATM   16  C16 UNL     1      23.754  -0.498  52.692  1.00  0.00     0.038 A 
HETATM   17  C17 UNL     1      25.132  -0.516  52.738  1.00  0.00     0.012 A 
HETATM   18  O2  UNL     1      21.625  -0.599  53.777  1.00  0.00    -0.322 OA
HETATM   19  C18 UNL     1      21.021   0.511  53.126  1.00  0.00     0.159 C 
HETATM   20  C19 UNL     1      20.866   1.821  52.827  1.00  0.00     0.109 C 
HETATM   21  N3  UNL     1      20.557   3.168  52.394  1.00  0.00    -0.380 N 
HETATM   22  H23 UNL     1      20.021   3.665  53.138  1.00  0.00     0.160 HD
ENDROOT
BRANCH   1  23
HETATM   23  N2  UNL     1      20.479   2.230  50.281  1.00  0.00    -0.239 NA
HETATM   24  H5  UNL     1      20.385   1.363  50.865  1.00  0.00     0.142 HD
BRANCH  23  25
HETATM   25  N1  UNL     1      21.212   1.919  49.139  1.00  0.00    -0.264 NA
HETATM   26  C1  UNL     1      20.537   2.486  47.989  1.00  0.00     0.126 C 
HETATM   27  H4  UNL     1      21.384   0.915  49.028  1.00  0.00     0.140 HD
ENDBRANCH  23  25
ENDBRANCH   1  23
TORSDOF 2
ENDMDL
MODEL 8
REMARK VINA RESULT:      -7.4      2.735      4.921
REMARK  2 active torsions:
REMARK  status: ('A' for Active; 'I' for Inactive)
REMARK    1  A    between atoms: N1_2  and  N2_3 
REMARK    2  A    between atoms: N2_3  and  C2_4 
ROOT
HETATM    1  C2  UNL     1      17.968   2.602  51.207  1.00  0.00     0.168 C 
HETATM    2  C3  UNL     1      19.043   1.958  51.992  1.00  0.00     0.046 C 
HETATM    3  C4  UNL     1      19.207   0.443  51.737  1.00  0.00     0.042 C 
HETATM    4  C5  UNL     1      20.532   0.120  52.413  1.00  0.00    -0.058 A 
HETATM    5  C6  UNL     1      21.578   0.032  51.485  1.00  0.00     0.010 A 
HETATM    6  C7  UNL     1      22.816  -0.128  52.074  1.00  0.00     0.037 A 
HETATM    7  C8  UNL     1      22.998  -0.193  53.458  1.00  0.00     0.069 A 
HETATM    8  C9  UNL     1      21.936  -0.109  54.318  1.00  0.00     0.037 A 
HETATM    9  C10 UNL     1      20.698   0.049  53.765  1.00  0.00     0.010 A 
HETATM   10  O1  UNL     1      24.418  -0.329  53.411  1.00  0.00    -0.347 OA
HETATM   11  C11 UNL     1      25.156   0.916  53.588  1.00  0.00     0.214 C 
HETATM   12  C12 UNL     1      24.623   1.820  52.531  1.00  0.00    -0.034 A 
HETATM   13  C13 UNL     1      24.956   2.085  51.226  1.00  0.00     0.012 A 
HETATM   14  C14 UNL     1      24.195   2.934  50.470  1.00  0.00     0.038 A 
HETATM   15  C15 UNL     1      23.066   3.591  50.896  1.00  0.00     0.074 A 
HETATM   16  C16 UNL     1      22.709   3.350  52.205  1.00  0.00     0.038 A 
HETATM   17  C17 UNL     1      23.473   2.496  52.972  1.00  0.00     0.012 A 
HETATM   18  O2  UNL     1      22.258   4.462  50.137  1.00  0.00    -0.322 OA
HETATM   19  C18 UNL     1      20.865   4.188  50.067  1.00  0.00     0.159 C 
HETATM   20  C19 UNL     1      19.777   3.395  49.938  1.00  0.00     0.109 C 
HETATM   21  N3  UNL     1      18.510   2.706  49.818  1.00  0.00    -0.380 N 
HETATM   22  H23 UNL     1      18.324   2.476  48.817  1.00  0.00     0.160 HD
ENDROOT
BRANCH   1  23
HETATM   23  N2  UNL     1      17.890   4.000  51.632  1.00  0.00    -0.239 NA
HETATM   24  H5  UNL     1      18.071   4.096  52.661  1.00  0.00     0.142 HD
BRANCH  23  25
HETATM   25  N1  UNL     1      16.626   4.512  51.354  1.00  0.00    -0.264 NA
HETATM   26  C1  UNL     1      15.744   4.187  52.456  1.00  0.00     0.126 C 
HETATM   27  H4  UNL     1      16.249   4.199  50.454  1.00  0.00     0.140 HD
ENDBRANCH  23  25
ENDBRANCH   1  23
TORSDOF 2
ENDMDL
MODEL 9
REMARK VINA RESULT:      -7.1      2.854      5.272
REMARK  2 active torsions:
REMARK  status: ('A' for Active; 'I' for Inactive)
REMARK    1  A    between atoms: N1_2  and  N2_3 
REMARK    2  A    between atoms: N2_3  and  C2_4 
ROOT
HETATM    1  C2  UNL     1      21.048   5.277  50.285  1.00  0.00     0.168 C 
HETATM    2  C3  UNL     1      21.141   4.115  51.193  1.00  0.00     0.046 C 
HETATM    3  C4  UNL     1      20.416   2.846  50.692  1.00  0.00     0.042 C 
HETATM    4  C5  UNL     1      20.920   1.764  51.636  1.00  0.00    -0.058 A 
HETATM    5  C6  UNL     1      21.931   0.993  51.046  1.00  0.00     0.010 A 
HETATM    6  C7  UNL     1      22.505   0.088  51.917  1.00  0.00     0.037 A 
HETATM    7  C8  UNL     1      22.110  -0.037  53.252  1.00  0.00     0.069 A 
HETATM    8  C9  UNL     1      21.110   0.738  53.773  1.00  0.00     0.037 A 
HETATM    9  C10 UNL     1      20.523   1.643  52.935  1.00  0.00     0.010 A 
HETATM   10  O1  UNL     1      23.049  -1.060  53.585  1.00  0.00    -0.347 OA
HETATM   11  C11 UNL     1      24.274  -0.582  54.215  1.00  0.00     0.214 C 
HETATM   12  C12 UNL     1      24.820   0.420  53.259  1.00  0.00    -0.034 A 
HETATM   13  C13 UNL     1      25.675   0.368  52.185  1.00  0.00     0.012 A 
HETATM   14  C14 UNL     1      25.920   1.485  51.434  1.00  0.00     0.038 A 
HETATM   15  C15 UNL     1      25.375   2.729  51.646  1.00  0.00     0.074 A 
HETATM   16  C16 UNL     1      24.517   2.814  52.722  1.00  0.00     0.038 A 
HETATM   17  C17 UNL     1      24.266   1.692  53.482  1.00  0.00     0.012 A 
HETATM   18  O2  UNL     1      25.603   3.892  50.884  1.00  0.00    -0.322 OA
HETATM   19  C18 UNL     1      24.472   4.581  50.365  1.00  0.00     0.159 C 
HETATM   20  C19 UNL     1      23.260   4.675  49.773  1.00  0.00     0.109 C 
HETATM   21  N3  UNL     1      21.981   4.965  49.159  1.00  0.00    -0.380 N 
HETATM   22  H23 UNL     1      22.059   4.880  48.122  1.00  0.00     0.160 HD
ENDROOT
BRANCH   1  23
HETATM   23  N2  UNL     1      21.703   6.406  50.946  1.00  0.00    -0.239 NA
HETATM   24  H5  UNL     1      21.554   6.377  51.984  1.00  0.00     0.142 HD
BRANCH  23  25
HETATM   25  N1  UNL     1      21.192   7.606  50.458  1.00  0.00    -0.264 NA
HETATM   26  C1  UNL     1      22.270   8.346  49.835  1.00  0.00     0.126 C 
HETATM   27  H4  UNL     1      20.705   8.159  51.169  1.00  0.00     0.140 HD
ENDBRANCH  23  25
ENDBRANCH   1  23
TORSDOF 2
ENDMDL
