MODEL 1
REMARK VINA RESULT:      -8.8      0.000      0.000
REMARK  5 active torsions:
REMARK  status: ('A' for Active; 'I' for Inactive)
REMARK    1  A    between atoms: O1_1  and  C1_2 
REMARK    2  A    between atoms: C6_7  and  C7_8 
REMARK    3  A    between atoms: C11_13  and  N2_14 
REMARK    4  A    between atoms: N2_14  and  C12_15 
REMARK    5  A    between atoms: C12_15  and  C13_16 
ROOT
HETATM    1  C7  UNL     1      25.862   2.507  51.288  1.00  0.00     0.021 A 
HETATM    2  C8  UNL     1      26.830   3.121  50.524  1.00  0.00     0.130 A 
HETATM    3  N1  UNL     1      26.572   4.083  49.608  1.00  0.00    -0.272 NA
HETATM    4  C9  UNL     1      25.291   4.503  49.394  1.00  0.00     0.118 A 
HETATM    5  C10 UNL     1      24.316   3.898  50.150  1.00  0.00     0.049 A 
HETATM    6  C11 UNL     1      24.539   2.899  51.107  1.00  0.00     0.042 A 
ENDROOT
BRANCH   6   7
HETATM    7  N2  UNL     1      23.450   2.334  51.851  1.00  0.00    -0.385 N 
HETATM    8  H9  UNL     1      23.307   2.797  52.800  1.00  0.00     0.160 HD
BRANCH   7   9
HETATM    9  C12 UNL     1      22.574   1.243  51.439  1.00  0.00     0.159 C 
BRANCH   9  10
HETATM   10  C13 UNL     1      22.201   0.335  52.526  1.00  0.00    -0.029 A 
HETATM   11  C14 UNL     1      23.003  -0.182  53.524  1.00  0.00     0.010 A 
HETATM   12  C15 UNL     1      22.548  -1.034  54.510  1.00  0.00     0.002 A 
HETATM   13  C16 UNL     1      21.210  -1.401  54.511  1.00  0.00     0.012 A 
HETATM   14  C17 UNL     1      20.365  -0.898  53.517  1.00  0.00    -0.025 A 
HETATM   15  C18 UNL     1      19.043  -1.284  53.559  1.00  0.00     0.012 A 
HETATM   16  C22 UNL     1      20.877  -0.050  52.557  1.00  0.00    -0.018 A 
HETATM   17  C19 UNL     1      18.162  -0.817  52.607  1.00  0.00     0.001 A 
HETATM   18  C20 UNL     1      18.617   0.045  51.609  1.00  0.00     0.001 A 
HETATM   19  C21 UNL     1      19.959   0.394  51.625  1.00  0.00     0.013 A 
ENDBRANCH   9  10
ENDBRANCH   7   9
ENDBRANCH   6   7
BRANCH   1  20
HETATM   20  C6  UNL     1      26.161   1.470  52.270  1.00  0.00     0.011 A 
HETATM   21  C1  UNL     1      26.225   1.711  53.648  1.00  0.00     0.076 A 
HETATM   22  C2  UNL     1      26.511   0.667  54.503  1.00  0.00     0.037 A 
HETATM   23  C3  UNL     1      26.738  -0.611  54.036  1.00  0.00     0.003 A 
HETATM   24  C4  UNL     1      26.667  -0.805  52.669  1.00  0.00     0.001 A 
HETATM   25  C5  UNL     1      26.385   0.200  51.774  1.00  0.00     0.015 A 
BRANCH  21  26
HETATM   26  O1  UNL     1      25.976   3.033  53.972  1.00  0.00    -0.360 OA
HETATM   27  H1  UNL     1      25.823   3.763  53.298  1.00  0.00     0.217 HD
ENDBRANCH  21  26
ENDBRANCH   1  20
TORSDOF 5
ENDMDL
MODEL 2
REMARK VINA RESULT:      -8.7      2.391      6.959
REMARK  5 active torsions:
REMARK  status: ('A' for Active; 'I' for Inactive)
REMARK    1  A    between atoms: O1_1  and  C1_2 
REMARK    2  A    between atoms: C6_7  and  C7_8 
REMARK    3  A    between atoms: C11_13  and  N2_14 
REMARK    4  A    between atoms: N2_14  and  C12_15 
REMARK    5  A    between atoms: C12_15  and  C13_16 
ROOT
HETATM    1  C7  UNL     1      25.493   0.667  52.763  1.00  0.00     0.021 A 
HETATM    2  C8  UNL     1      24.473  -0.122  53.248  1.00  0.00     0.130 A 
HETATM    3  N1  UNL     1      23.174   0.019  52.895  1.00  0.00    -0.272 NA
HETATM    4  C9  UNL     1      22.805   0.988  52.007  1.00  0.00     0.118 A 
HETATM    5  C10 UNL     1      23.813   1.781  51.515  1.00  0.00     0.049 A 
HETATM    6  C11 UNL     1      25.169   1.670  51.854  1.00  0.00     0.042 A 
ENDROOT
BRANCH   6   7
HETATM    7  N2  UNL     1      26.147   2.546  51.278  1.00  0.00    -0.385 N 
HETATM    8  H9  UNL     1      26.789   2.992  52.002  1.00  0.00     0.160 HD
BRANCH   7   9
HETATM    9  C12 UNL     1      26.326   2.858  49.864  1.00  0.00     0.159 C 
BRANCH   9  10
HETATM   10  C13 UNL     1      25.762   4.148  49.462  1.00  0.00    -0.029 A 
HETATM   11  C14 UNL     1      24.457   4.585  49.573  1.00  0.00     0.010 A 
HETATM   12  C15 UNL     1      24.026   5.829  49.163  1.00  0.00     0.002 A 
HETATM   13  C16 UNL     1      24.947   6.705  48.604  1.00  0.00     0.012 A 
HETATM   14  C17 UNL     1      26.279   6.300  48.475  1.00  0.00    -0.025 A 
HETATM   15  C18 UNL     1      27.160   7.202  47.919  1.00  0.00     0.012 A 
HETATM   16  C22 UNL     1      26.651   5.042  48.903  1.00  0.00    -0.018 A 
HETATM   17  C19 UNL     1      28.487   6.859  47.770  1.00  0.00     0.001 A 
HETATM   18  C20 UNL     1      28.927   5.603  48.184  1.00  0.00     0.001 A 
HETATM   19  C21 UNL     1      27.988   4.744  48.734  1.00  0.00     0.013 A 
ENDBRANCH   9  10
ENDBRANCH   7   9
ENDBRANCH   6   7
BRANCH   1  20
HETATM   20  C6  UNL     1      26.887   0.498  53.157  1.00  0.00     0.011 A 
HETATM   21  C1  UNL     1      27.616   1.474  53.848  1.00  0.00     0.076 A 
HETATM   22  C2  UNL     1      28.931   1.225  54.183  1.00  0.00     0.037 A 
HETATM   23  C3  UNL     1      29.549   0.037  53.853  1.00  0.00     0.003 A 
HETATM   24  C4  UNL     1      28.795  -0.900  53.170  1.00  0.00     0.001 A 
HETATM   25  C5  UNL     1      27.481  -0.701  52.813  1.00  0.00     0.015 A 
BRANCH  21  26
HETATM   26  O1  UNL     1      26.870   2.610  54.112  1.00  0.00    -0.360 OA
HETATM   27  H1  UNL     1      26.195   3.004  53.480  1.00  0.00     0.217 HD
ENDBRANCH  21  26
ENDBRANCH   1  20
TORSDOF 5
ENDMDL
MODEL 3
REMARK VINA RESULT:      -8.7      2.795      7.677
REMARK  5 active torsions:
REMARK  status: ('A' for Active; 'I' for Inactive)
REMARK    1  A    between atoms: O1_1  and  C1_2 
REMARK    2  A    between atoms: C6_7  and  C7_8 
REMARK    3  A    between atoms: C11_13  and  N2_14 
REMARK    4  A    between atoms: N2_14  and  C12_15 
REMARK    5  A    between atoms: C12_15  and  C13_16 
ROOT
HETATM    1  C7  UNL     1      24.862   1.487  52.281  1.00  0.00     0.021 A 
HETATM    2  C8  UNL     1      24.676   0.299  52.954  1.00  0.00     0.130 A 
HETATM    3  N1  UNL     1      25.675  -0.560  53.261  1.00  0.00    -0.272 NA
HETATM    4  C9  UNL     1      26.961  -0.276  52.902  1.00  0.00     0.118 A 
HETATM    5  C10 UNL     1      27.160   0.906  52.231  1.00  0.00     0.049 A 
HETATM    6  C11 UNL     1      26.156   1.824  51.893  1.00  0.00     0.042 A 
ENDROOT
BRANCH   6   7
HETATM    7  N2  UNL     1      26.469   3.037  51.195  1.00  0.00    -0.385 N 
HETATM    8  H9  UNL     1      26.644   3.862  51.845  1.00  0.00     0.160 HD
BRANCH   7   9
HETATM    9  C12 UNL     1      26.563   3.222  49.751  1.00  0.00     0.159 C 
BRANCH   9  10
HETATM   10  C13 UNL     1      26.023   4.499  49.277  1.00  0.00    -0.029 A 
HETATM   11  C14 UNL     1      24.720   4.951  49.330  1.00  0.00     0.010 A 
HETATM   12  C15 UNL     1      24.314   6.181  48.854  1.00  0.00     0.002 A 
HETATM   13  C16 UNL     1      25.260   7.024  48.288  1.00  0.00     0.012 A 
HETATM   14  C17 UNL     1      26.592   6.603  48.217  1.00  0.00    -0.025 A 
HETATM   15  C18 UNL     1      27.498   7.473  47.651  1.00  0.00     0.012 A 
HETATM   16  C22 UNL     1      26.938   5.361  48.709  1.00  0.00    -0.018 A 
HETATM   17  C19 UNL     1      28.826   7.113  47.557  1.00  0.00     0.001 A 
HETATM   18  C20 UNL     1      29.241   5.871  48.037  1.00  0.00     0.001 A 
HETATM   19  C21 UNL     1      28.277   5.044  48.594  1.00  0.00     0.013 A 
ENDBRANCH   9  10
ENDBRANCH   7   9
ENDBRANCH   6   7
BRANCH   1  20
HETATM   20  C6  UNL     1      23.771   2.401  51.960  1.00  0.00     0.011 A 
HETATM   21  C1  UNL     1      23.552   3.608  52.635  1.00  0.00     0.076 A 
HETATM   22  C2  UNL     1      22.495   4.410  52.259  1.00  0.00     0.037 A 
HETATM   23  C3  UNL     1      21.645   4.054  51.233  1.00  0.00     0.003 A 
HETATM   24  C4  UNL     1      21.895   2.854  50.593  1.00  0.00     0.001 A 
HETATM   25  C5  UNL     1      22.934   2.018  50.929  1.00  0.00     0.015 A 
BRANCH  21  26
HETATM   26  O1  UNL     1      24.480   3.834  53.637  1.00  0.00    -0.360 OA
HETATM   27  H1  UNL     1      24.264   4.249  54.527  1.00  0.00     0.217 HD
ENDBRANCH  21  26
ENDBRANCH   1  20
TORSDOF 5
ENDMDL
MODEL 4
REMARK VINA RESULT:      -8.3      0.709      2.190
REMARK  5 active torsions:
REMARK  status: ('A' for Active; 'I' for Inactive)
REMARK    1  A    between atoms: O1_1  and  C1_2 
REMARK    2  A    between atoms: C6_7  and  C7_8 
REMARK    3  A    between atoms: C11_13  and  N2_14 
REMARK    4  A    between atoms: N2_14  and  C12_15 
REMARK    5  A    between atoms: C12_15  and  C13_16 
ROOT
HETATM    1  C7  UNL     1      25.510   2.827  50.958  1.00  0.00     0.021 A 
HETATM    2  C8  UNL     1      26.420   3.655  50.337  1.00  0.00     0.130 A 
HETATM    3  N1  UNL     1      26.088   4.581  49.408  1.00  0.00    -0.272 NA
HETATM    4  C9  UNL     1      24.786   4.742  49.032  1.00  0.00     0.118 A 
HETATM    5  C10 UNL     1      23.868   3.923  49.645  1.00  0.00     0.049 A 
HETATM    6  C11 UNL     1      24.168   2.951  50.609  1.00  0.00     0.042 A 
ENDROOT
BRANCH   6   7
HETATM    7  N2  UNL     1      23.133   2.149  51.195  1.00  0.00    -0.385 N 
HETATM    8  H9  UNL     1      22.879   2.451  52.185  1.00  0.00     0.160 HD
BRANCH   7   9
HETATM    9  C12 UNL     1      22.441   1.021  50.583  1.00  0.00     0.159 C 
BRANCH   9  10
HETATM   10  C13 UNL     1      21.273   0.557  51.337  1.00  0.00    -0.029 A 
HETATM   11  C14 UNL     1      19.938   0.690  51.015  1.00  0.00     0.010 A 
HETATM   12  C15 UNL     1      18.908   0.212  51.799  1.00  0.00     0.002 A 
HETATM   13  C16 UNL     1      19.218  -0.444  52.982  1.00  0.00     0.012 A 
HETATM   14  C17 UNL     1      20.560  -0.599  53.343  1.00  0.00    -0.025 A 
HETATM   15  C18 UNL     1      20.822  -1.259  54.524  1.00  0.00     0.012 A 
HETATM   16  C22 UNL     1      21.546  -0.099  52.519  1.00  0.00    -0.018 A 
HETATM   17  C19 UNL     1      22.127  -1.446  54.929  1.00  0.00     0.001 A 
HETATM   18  C20 UNL     1      23.170  -0.965  54.140  1.00  0.00     0.001 A 
HETATM   19  C21 UNL     1      22.837  -0.309  52.964  1.00  0.00     0.013 A 
ENDBRANCH   9  10
ENDBRANCH   7   9
ENDBRANCH   6   7
BRANCH   1  20
HETATM   20  C6  UNL     1      25.889   1.834  51.957  1.00  0.00     0.011 A 
HETATM   21  C1  UNL     1      25.728   2.026  53.334  1.00  0.00     0.076 A 
HETATM   22  C2  UNL     1      26.111   1.028  54.206  1.00  0.00     0.037 A 
HETATM   23  C3  UNL     1      26.652  -0.158  53.754  1.00  0.00     0.003 A 
HETATM   24  C4  UNL     1      26.795  -0.308  52.387  1.00  0.00     0.001 A 
HETATM   25  C5  UNL     1      26.428   0.655  51.477  1.00  0.00     0.015 A 
BRANCH  21  26
HETATM   26  O1  UNL     1      25.175   3.258  53.640  1.00  0.00    -0.360 OA
HETATM   27  H1  UNL     1      25.309   3.739  54.512  1.00  0.00     0.217 HD
ENDBRANCH  21  26
ENDBRANCH   1  20
TORSDOF 5
ENDMDL
MODEL 5
REMARK VINA RESULT:      -8.3      2.270      6.507
REMARK  5 active torsions:
REMARK  status: ('A' for Active; 'I' for Inactive)
REMARK    1  A    between atoms: O1_1  and  C1_2 
REMARK    2  A    between atoms: C6_7  and  C7_8 
REMARK    3  A    between atoms: C11_13  and  N2_14 
REMARK    4  A    between atoms: N2_14  and  C12_15 
REMARK    5  A    between atoms: C12_15  and  C13_16 
ROOT
HETATM    1  C7  UNL     1      22.395   3.359  51.679  1.00  0.00     0.021 A 
HETATM    2  C8  UNL     1      21.078   3.606  52.002  1.00  0.00     0.130 A 
HETATM    3  N1  UNL     1      20.300   2.753  52.707  1.00  0.00    -0.272 NA
HETATM    4  C9  UNL     1      20.806   1.564  53.147  1.00  0.00     0.118 A 
HETATM    5  C10 UNL     1      22.118   1.305  52.832  1.00  0.00     0.049 A 
HETATM    6  C11 UNL     1      22.958   2.159  52.105  1.00  0.00     0.042 A 
ENDROOT
BRANCH   6   7
HETATM    7  N2  UNL     1      24.320   1.799  51.834  1.00  0.00    -0.385 N 
HETATM    8  H9  UNL     1      24.814   2.484  51.185  1.00  0.00     0.160 HD
BRANCH   7   9
HETATM    9  C12 UNL     1      25.042   0.638  52.344  1.00  0.00     0.159 C 
BRANCH   9  10
HETATM   10  C13 UNL     1      26.403   0.935  52.797  1.00  0.00    -0.029 A 
HETATM   11  C14 UNL     1      26.949   2.159  53.127  1.00  0.00     0.010 A 
HETATM   12  C15 UNL     1      28.252   2.330  53.547  1.00  0.00     0.002 A 
HETATM   13  C16 UNL     1      29.073   1.216  53.650  1.00  0.00     0.012 A 
HETATM   14  C17 UNL     1      28.557  -0.043  53.325  1.00  0.00    -0.025 A 
HETATM   15  C18 UNL     1      29.405  -1.121  53.446  1.00  0.00     0.012 A 
HETATM   16  C22 UNL     1      27.246  -0.152  52.910  1.00  0.00    -0.018 A 
HETATM   17  C19 UNL     1      28.950  -2.388  53.143  1.00  0.00     0.001 A 
HETATM   18  C20 UNL     1      27.634  -2.565  52.718  1.00  0.00     0.001 A 
HETATM   19  C21 UNL     1      26.834  -1.437  52.619  1.00  0.00     0.013 A 
ENDBRANCH   9  10
ENDBRANCH   7   9
ENDBRANCH   6   7
BRANCH   1  20
HETATM   20  C6  UNL     1      23.217   4.292  50.918  1.00  0.00     0.011 A 
HETATM   21  C1  UNL     1      23.930   5.346  51.503  1.00  0.00     0.076 A 
HETATM   22  C2  UNL     1      24.686   6.177  50.702  1.00  0.00     0.037 A 
HETATM   23  C3  UNL     1      24.757   5.998  49.336  1.00  0.00     0.003 A 
HETATM   24  C4  UNL     1      24.038   4.947  48.798  1.00  0.00     0.001 A 
HETATM   25  C5  UNL     1      23.270   4.089  49.552  1.00  0.00     0.015 A 
BRANCH  21  26
HETATM   26  O1  UNL     1      23.765   5.404  52.876  1.00  0.00    -0.360 OA
HETATM   27  H1  UNL     1      23.316   4.691  53.424  1.00  0.00     0.217 HD
ENDBRANCH  21  26
ENDBRANCH   1  20
TORSDOF 5
ENDMDL
MODEL 6
REMARK VINA RESULT:      -8.3      2.826      5.758
REMARK  5 active torsions:
REMARK  status: ('A' for Active; 'I' for Inactive)
REMARK    1  A    between atoms: O1_1  and  C1_2 
REMARK    2  A    between atoms: C6_7  and  C7_8 
REMARK    3  A    between atoms: C11_13  and  N2_14 
REMARK    4  A    between atoms: N2_14  and  C12_15 
REMARK    5  A    between atoms: C12_15  and  C13_16 
ROOT
HETATM    1  C7  UNL     1      26.022   6.170  48.830  1.00  0.00     0.021 A 
HETATM    2  C8  UNL     1      26.633   7.305  48.343  1.00  0.00     0.130 A 
HETATM    3  N1  UNL     1      27.925   7.354  47.942  1.00  0.00    -0.272 NA
HETATM    4  C9  UNL     1      28.708   6.238  48.004  1.00  0.00     0.118 A 
HETATM    5  C10 UNL     1      28.110   5.099  48.487  1.00  0.00     0.049 A 
HETATM    6  C11 UNL     1      26.778   5.004  48.914  1.00  0.00     0.042 A 
ENDROOT
BRANCH   6   7
HETATM    7  N2  UNL     1      26.245   3.763  49.397  1.00  0.00    -0.385 N 
HETATM    8  H9  UNL     1      25.561   3.307  48.718  1.00  0.00     0.160 HD
BRANCH   7   9
HETATM    9  C12 UNL     1      26.544   3.112  50.667  1.00  0.00     0.159 C 
BRANCH   9  10
HETATM   10  C13 UNL     1      25.368   2.565  51.349  1.00  0.00    -0.029 A 
HETATM   11  C14 UNL     1      24.099   3.101  51.430  1.00  0.00     0.010 A 
HETATM   12  C15 UNL     1      23.053   2.500  52.100  1.00  0.00     0.002 A 
HETATM   13  C16 UNL     1      23.275   1.284  52.733  1.00  0.00     0.012 A 
HETATM   14  C17 UNL     1      24.548   0.708  52.673  1.00  0.00    -0.025 A 
HETATM   15  C18 UNL     1      24.723  -0.500  53.311  1.00  0.00     0.012 A 
HETATM   16  C22 UNL     1      25.555   1.357  51.989  1.00  0.00    -0.018 A 
HETATM   17  C19 UNL     1      25.956  -1.117  53.283  1.00  0.00     0.001 A 
HETATM   18  C20 UNL     1      27.015  -0.514  52.606  1.00  0.00     0.001 A 
HETATM   19  C21 UNL     1      26.771   0.702  51.986  1.00  0.00     0.013 A 
ENDBRANCH   9  10
ENDBRANCH   7   9
ENDBRANCH   6   7
BRANCH   1  20
HETATM   20  C6  UNL     1      24.627   6.137  49.258  1.00  0.00     0.011 A 
HETATM   21  C1  UNL     1      24.195   6.594  50.509  1.00  0.00     0.076 A 
HETATM   22  C2  UNL     1      22.854   6.527  50.826  1.00  0.00     0.037 A 
HETATM   23  C3  UNL     1      21.925   6.020  49.941  1.00  0.00     0.003 A 
HETATM   24  C4  UNL     1      22.394   5.579  48.717  1.00  0.00     0.001 A 
HETATM   25  C5  UNL     1      23.719   5.624  48.351  1.00  0.00     0.015 A 
BRANCH  21  26
HETATM   26  O1  UNL     1      25.232   7.074  51.290  1.00  0.00    -0.360 OA
HETATM   27  H1  UNL     1      25.121   7.744  52.030  1.00  0.00     0.217 HD
ENDBRANCH  21  26
ENDBRANCH   1  20
TORSDOF 5
ENDMDL
MODEL 7
REMARK VINA RESULT:      -8.2      2.810      7.136
REMARK  5 active torsions:
REMARK  status: ('A' for Active; 'I' for Inactive)
REMARK    1  A    between atoms: O1_1  and  C1_2 
REMARK    2  A    between atoms: C6_7  and  C7_8 
REMARK    3  A    between atoms: C11_13  and  N2_14 
REMARK    4  A    between atoms: N2_14  and  C12_15 
REMARK    5  A    between atoms: C12_15  and  C13_16 
ROOT
HETATM    1  C7  UNL     1      25.027   1.603  52.391  1.00  0.00     0.021 A 
HETATM    2  C8  UNL     1      24.955   0.482  53.188  1.00  0.00     0.130 A 
HETATM    3  N1  UNL     1      26.030  -0.249  53.563  1.00  0.00    -0.272 NA
HETATM    4  C9  UNL     1      27.281   0.107  53.152  1.00  0.00     0.118 A 
HETATM    5  C10 UNL     1      27.367   1.223  52.356  1.00  0.00     0.049 A 
HETATM    6  C11 UNL     1      26.282   2.008  51.943  1.00  0.00     0.042 A 
ENDROOT
BRANCH   6   7
HETATM    7  N2  UNL     1      26.478   3.163  51.115  1.00  0.00    -0.385 N 
HETATM    8  H9  UNL     1      26.753   4.032  51.666  1.00  0.00     0.160 HD
BRANCH   7   9
HETATM    9  C12 UNL     1      26.341   3.240  49.665  1.00  0.00     0.159 C 
BRANCH   9  10
HETATM   10  C13 UNL     1      26.773   4.517  49.092  1.00  0.00    -0.029 A 
HETATM   11  C14 UNL     1      28.049   4.910  48.742  1.00  0.00     0.010 A 
HETATM   12  C15 UNL     1      28.351   6.144  48.203  1.00  0.00     0.002 A 
HETATM   13  C16 UNL     1      27.322   7.053  47.994  1.00  0.00     0.012 A 
HETATM   14  C17 UNL     1      26.015   6.691  48.336  1.00  0.00    -0.025 A 
HETATM   15  C18 UNL     1      25.025   7.621  48.108  1.00  0.00     0.012 A 
HETATM   16  C22 UNL     1      25.774   5.443  48.872  1.00  0.00    -0.018 A 
HETATM   17  C19 UNL     1      23.716   7.319  48.422  1.00  0.00     0.001 A 
HETATM   18  C20 UNL     1      23.407   6.073  48.966  1.00  0.00     0.001 A 
HETATM   19  C21 UNL     1      24.451   5.184  49.169  1.00  0.00     0.013 A 
ENDBRANCH   9  10
ENDBRANCH   7   9
ENDBRANCH   6   7
BRANCH   1  20
HETATM   20  C6  UNL     1      23.855   2.378  51.997  1.00  0.00     0.011 A 
HETATM   21  C1  UNL     1      23.512   3.605  52.577  1.00  0.00     0.076 A 
HETATM   22  C2  UNL     1      22.386   4.269  52.137  1.00  0.00     0.037 A 
HETATM   23  C3  UNL     1      21.586   3.755  51.138  1.00  0.00     0.003 A 
HETATM   24  C4  UNL     1      21.960   2.541  50.592  1.00  0.00     0.001 A 
HETATM   25  C5  UNL     1      23.072   1.839  50.994  1.00  0.00     0.015 A 
BRANCH  21  26
HETATM   26  O1  UNL     1      24.402   3.996  53.563  1.00  0.00    -0.360 OA
HETATM   27  H1  UNL     1      24.955   3.362  54.112  1.00  0.00     0.217 HD
ENDBRANCH  21  26
ENDBRANCH   1  20
TORSDOF 5
ENDMDL
MODEL 8
REMARK VINA RESULT:      -8.2      1.876      3.871
REMARK  5 active torsions:
REMARK  status: ('A' for Active; 'I' for Inactive)
REMARK    1  A    between atoms: O1_1  and  C1_2 
REMARK    2  A    between atoms: C6_7  and  C7_8 
REMARK    3  A    between atoms: C11_13  and  N2_14 
REMARK    4  A    between atoms: N2_14  and  C12_15 
REMARK    5  A    between atoms: C12_15  and  C13_16 
ROOT
HETATM    1  C7  UNL     1      26.701   1.888  53.453  1.00  0.00     0.021 A 
HETATM    2  C8  UNL     1      28.024   2.269  53.505  1.00  0.00     0.130 A 
HETATM    3  N1  UNL     1      28.976   1.600  54.195  1.00  0.00    -0.272 NA
HETATM    4  C9  UNL     1      28.654   0.475  54.898  1.00  0.00     0.118 A 
HETATM    5  C10 UNL     1      27.338   0.085  54.854  1.00  0.00     0.049 A 
HETATM    6  C11 UNL     1      26.320   0.747  54.153  1.00  0.00     0.042 A 
ENDROOT
BRANCH   6   7
HETATM    7  N2  UNL     1      24.974   0.253  54.166  1.00  0.00    -0.385 N 
HETATM    8  H9  UNL     1      24.468   0.437  55.085  1.00  0.00     0.160 HD
BRANCH   7   9
HETATM    9  C12 UNL     1      24.281  -0.441  53.085  1.00  0.00     0.159 C 
BRANCH   9  10
HETATM   10  C13 UNL     1      22.844  -0.614  53.313  1.00  0.00    -0.029 A 
HETATM   11  C14 UNL     1      22.214  -1.258  54.359  1.00  0.00     0.010 A 
HETATM   12  C15 UNL     1      20.844  -1.364  54.482  1.00  0.00     0.002 A 
HETATM   13  C16 UNL     1      20.039  -0.794  53.505  1.00  0.00     0.012 A 
HETATM   14  C17 UNL     1      20.640  -0.132  52.430  1.00  0.00    -0.025 A 
HETATM   15  C18 UNL     1      19.804   0.423  51.486  1.00  0.00     0.012 A 
HETATM   16  C22 UNL     1      22.016  -0.059  52.360  1.00  0.00    -0.018 A 
HETATM   17  C19 UNL     1      20.339   1.091  50.405  1.00  0.00     0.001 A 
HETATM   18  C20 UNL     1      21.723   1.201  50.277  1.00  0.00     0.001 A 
HETATM   19  C21 UNL     1      22.507   0.620  51.263  1.00  0.00     0.013 A 
ENDBRANCH   9  10
ENDBRANCH   7   9
ENDBRANCH   6   7
BRANCH   1  20
HETATM   20  C6  UNL     1      25.689   2.624  52.702  1.00  0.00     0.011 A 
HETATM   21  C1  UNL     1      25.722   2.778  51.311  1.00  0.00     0.076 A 
HETATM   22  C2  UNL     1      24.718   3.488  50.686  1.00  0.00     0.037 A 
HETATM   23  C3  UNL     1      23.679   4.052  51.397  1.00  0.00     0.003 A 
HETATM   24  C4  UNL     1      23.685   3.877  52.769  1.00  0.00     0.001 A 
HETATM   25  C5  UNL     1      24.661   3.179  53.441  1.00  0.00     0.015 A 
BRANCH  21  26
HETATM   26  O1  UNL     1      26.817   2.161  50.732  1.00  0.00    -0.360 OA
HETATM   27  H1  UNL     1      27.740   2.154  51.129  1.00  0.00     0.217 HD
ENDBRANCH  21  26
ENDBRANCH   1  20
TORSDOF 5
ENDMDL
MODEL 9
REMARK VINA RESULT:      -8.0      2.498      5.974
REMARK  5 active torsions:
REMARK  status: ('A' for Active; 'I' for Inactive)
REMARK    1  A    between atoms: O1_1  and  C1_2 
REMARK    2  A    between atoms: C6_7  and  C7_8 
REMARK    3  A    between atoms: C11_13  and  N2_14 
REMARK    4  A    between atoms: N2_14  and  C12_15 
REMARK    5  A    between atoms: C12_15  and  C13_16 
ROOT
HETATM    1  C7  UNL     1      24.532   1.420  52.490  1.00  0.00     0.021 A 
HETATM    2  C8  UNL     1      24.357   0.233  53.169  1.00  0.00     0.130 A 
HETATM    3  N1  UNL     1      25.338  -0.678  53.364  1.00  0.00    -0.272 NA
HETATM    4  C9  UNL     1      26.593  -0.452  52.878  1.00  0.00     0.118 A 
HETATM    5  C10 UNL     1      26.781   0.728  52.199  1.00  0.00     0.049 A 
HETATM    6  C11 UNL     1      25.794   1.698  51.974  1.00  0.00     0.042 A 
ENDROOT
BRANCH   6   7
HETATM    7  N2  UNL     1      26.095   2.903  51.257  1.00  0.00    -0.385 N 
HETATM    8  H9  UNL     1      26.542   3.653  51.867  1.00  0.00     0.160 HD
BRANCH   7   9
HETATM    9  C12 UNL     1      25.853   3.170  49.843  1.00  0.00     0.159 C 
BRANCH   9  10
HETATM   10  C13 UNL     1      24.972   4.313  49.595  1.00  0.00    -0.029 A 
HETATM   11  C14 UNL     1      25.144   5.628  49.980  1.00  0.00     0.010 A 
HETATM   12  C15 UNL     1      24.248   6.636  49.691  1.00  0.00     0.002 A 
HETATM   13  C16 UNL     1      23.103   6.327  48.970  1.00  0.00     0.012 A 
HETATM   14  C17 UNL     1      22.893   5.006  48.560  1.00  0.00    -0.025 A 
HETATM   15  C18 UNL     1      21.745   4.745  47.844  1.00  0.00     0.012 A 
HETATM   16  C22 UNL     1      23.824   4.040  48.880  1.00  0.00    -0.018 A 
HETATM   17  C19 UNL     1      21.487   3.462  47.410  1.00  0.00     0.001 A 
HETATM   18  C20 UNL     1      22.390   2.439  47.700  1.00  0.00     0.001 A 
HETATM   19  C21 UNL     1      23.524   2.772  48.425  1.00  0.00     0.013 A 
ENDBRANCH   9  10
ENDBRANCH   7   9
ENDBRANCH   6   7
BRANCH   1  20
HETATM   20  C6  UNL     1      23.460   2.389  52.290  1.00  0.00     0.011 A 
HETATM   21  C1  UNL     1      23.491   3.689  52.810  1.00  0.00     0.076 A 
HETATM   22  C2  UNL     1      22.432   4.539  52.566  1.00  0.00     0.037 A 
HETATM   23  C3  UNL     1      21.341   4.141  51.822  1.00  0.00     0.003 A 
HETATM   24  C4  UNL     1      21.350   2.850  51.328  1.00  0.00     0.001 A 
HETATM   25  C5  UNL     1      22.379   1.963  51.542  1.00  0.00     0.015 A 
BRANCH  21  26
HETATM   26  O1  UNL     1      24.643   3.948  53.532  1.00  0.00    -0.360 OA
HETATM   27  H1  UNL     1      25.012   3.345  54.246  1.00  0.00     0.217 HD
ENDBRANCH  21  26
ENDBRANCH   1  20
TORSDOF 5
ENDMDL
