MODEL 1
REMARK VINA RESULT:      -7.3      0.000      0.000
REMARK  4 active torsions:
REMARK  status: ('A' for Active; 'I' for Inactive)
REMARK    1  A    between atoms: O1_2  and  C2_3 
REMARK    2  A    between atoms: C2_3  and  C3_4 
REMARK    3  A    between atoms: C3_4  and  O2_24 
REMARK    4  A    between atoms: C4_5  and  C5_6 
ROOT
HETATM    1  C5  UNL     1      25.694   2.368  52.600  1.00  0.00    -0.019 C 
HETATM    2  C6  UNL     1      24.801   2.800  53.473  1.00  0.00     0.103 C 
HETATM    3  N1  UNL     1      23.768   3.326  52.908  1.00  0.00    -0.192 NA
HETATM    4  S1  UNL     1      24.150   4.240  51.446  1.00  0.00     0.094 SA
HETATM    5  N2  UNL     1      22.925   5.418  51.041  1.00  0.00    -0.304 N 
HETATM    6  C7  UNL     1      21.569   5.284  51.476  1.00  0.00     0.167 C 
HETATM    7  C8  UNL     1      23.290   6.545  50.252  1.00  0.00     0.070 A 
HETATM    8  C9  UNL     1      22.361   7.518  49.959  1.00  0.00     0.033 A 
HETATM    9  C10 UNL     1      22.643   8.637  49.201  1.00  0.00     0.009 A 
HETATM   10  C11 UNL     1      23.924   8.775  48.719  1.00  0.00    -0.060 A 
HETATM   11  C12 UNL     1      24.266   9.975  47.894  1.00  0.00     0.048 C 
HETATM   12  C13 UNL     1      24.859   7.816  49.004  1.00  0.00     0.040 A 
HETATM   13  C14 UNL     1      24.591   6.694  49.758  1.00  0.00     0.086 A 
HETATM   14  N3  UNL     1      25.538   5.672  50.075  1.00  0.00    -0.240 NA
HETATM   15  C15 UNL     1      26.088   5.014  49.123  1.00  0.00     0.232 C 
HETATM   16  N4  UNL     1      27.010   4.030  49.627  1.00  0.00    -0.258 NA
HETATM   17  C16 UNL     1      26.598   3.091  50.377  1.00  0.00     0.095 C 
HETATM   18  C17 UNL     1      25.591   2.312  51.141  1.00  0.00     0.088 C 
ENDROOT
BRANCH   1  19
HETATM   19  C4  UNL     1      26.810   1.960  53.428  1.00  0.00     0.044 C 
HETATM   20  C3  UNL     1      26.954   0.711  53.896  1.00  0.00     0.070 C 
BRANCH  20  21
HETATM   21  C2  UNL     1      28.021   0.104  54.753  1.00  0.00     0.231 C 
BRANCH  21  22
HETATM   22  O1  UNL     1      28.599  -0.995  54.144  1.00  0.00    -0.390 OA
HETATM   23  C1  UNL     1      29.826  -0.689  53.580  1.00  0.00     0.201 C 
ENDBRANCH  21  22
ENDBRANCH  20  21
BRANCH  20  24
HETATM   24  O2  UNL     1      25.977  -0.193  53.549  1.00  0.00    -0.358 OA
HETATM   25  C18 UNL     1      25.031  -0.769  54.406  1.00  0.00     0.209 C 
ENDBRANCH  20  24
ENDBRANCH   1  19
TORSDOF 4
ENDMDL
MODEL 2
REMARK VINA RESULT:      -7.2      0.948      1.057
REMARK  4 active torsions:
REMARK  status: ('A' for Active; 'I' for Inactive)
REMARK    1  A    between atoms: O1_2  and  C2_3 
REMARK    2  A    between atoms: C2_3  and  C3_4 
REMARK    3  A    between atoms: C3_4  and  O2_24 
REMARK    4  A    between atoms: C4_5  and  C5_6 
ROOT
HETATM    1  C5  UNL     1      24.970   2.663  52.502  1.00  0.00    -0.019 C 
HETATM    2  C6  UNL     1      24.064   3.313  53.211  1.00  0.00     0.103 C 
HETATM    3  N1  UNL     1      23.254   3.996  52.477  1.00  0.00    -0.192 NA
HETATM    4  S1  UNL     1      24.024   4.728  51.066  1.00  0.00     0.094 SA
HETATM    5  N2  UNL     1      23.136   6.097  50.441  1.00  0.00    -0.304 N 
HETATM    6  C7  UNL     1      21.732   6.257  50.663  1.00  0.00     0.167 C 
HETATM    7  C8  UNL     1      23.834   7.082  49.687  1.00  0.00     0.070 A 
HETATM    8  C9  UNL     1      23.174   8.198  49.224  1.00  0.00     0.033 A 
HETATM    9  C10 UNL     1      23.785   9.193  48.487  1.00  0.00     0.009 A 
HETATM   10  C11 UNL     1      25.124   9.049  48.208  1.00  0.00    -0.060 A 
HETATM   11  C12 UNL     1      25.820  10.108  47.412  1.00  0.00     0.048 C 
HETATM   12  C13 UNL     1      25.793   7.945  48.663  1.00  0.00     0.040 A 
HETATM   13  C14 UNL     1      25.196   6.944  49.398  1.00  0.00     0.086 A 
HETATM   14  N3  UNL     1      25.860   5.777  49.889  1.00  0.00    -0.240 NA
HETATM   15  C15 UNL     1      26.399   4.969  49.054  1.00  0.00     0.232 C 
HETATM   16  N4  UNL     1      27.018   3.855  49.723  1.00  0.00    -0.258 NA
HETATM   17  C16 UNL     1      26.319   3.062  50.427  1.00  0.00     0.095 C 
HETATM   18  C17 UNL     1      25.074   2.541  51.046  1.00  0.00     0.088 C 
ENDROOT
BRANCH   1  19
HETATM   19  C4  UNL     1      25.846   2.095  53.505  1.00  0.00     0.044 C 
HETATM   20  C3  UNL     1      25.789   0.807  53.880  1.00  0.00     0.070 C 
BRANCH  20  21
HETATM   21  C2  UNL     1      26.596   0.044  54.884  1.00  0.00     0.231 C 
BRANCH  21  22
HETATM   22  O1  UNL     1      27.656  -0.615  54.289  1.00  0.00    -0.390 OA
HETATM   23  C1  UNL     1      28.867   0.001  54.562  1.00  0.00     0.201 C 
ENDBRANCH  21  22
ENDBRANCH  20  21
BRANCH  20  24
HETATM   24  O2  UNL     1      24.844   0.026  53.258  1.00  0.00    -0.358 OA
HETATM   25  C18 UNL     1      23.725  -0.566  53.857  1.00  0.00     0.209 C 
ENDBRANCH  20  24
ENDBRANCH   1  19
TORSDOF 4
ENDMDL
MODEL 3
REMARK VINA RESULT:      -7.2      3.378      5.652
REMARK  4 active torsions:
REMARK  status: ('A' for Active; 'I' for Inactive)
REMARK    1  A    between atoms: O1_2  and  C2_3 
REMARK    2  A    between atoms: C2_3  and  C3_4 
REMARK    3  A    between atoms: C3_4  and  O2_24 
REMARK    4  A    between atoms: C4_5  and  C5_6 
ROOT
HETATM    1  C5  UNL     1      25.687   1.027  52.384  1.00  0.00    -0.019 C 
HETATM    2  C6  UNL     1      25.858   1.767  51.304  1.00  0.00     0.103 C 
HETATM    3  N1  UNL     1      24.886   2.590  51.106  1.00  0.00    -0.192 NA
HETATM    4  S1  UNL     1      23.304   1.933  51.538  1.00  0.00     0.094 SA
HETATM    5  N2  UNL     1      21.986   2.750  50.733  1.00  0.00    -0.304 N 
HETATM    6  C7  UNL     1      22.104   4.093  50.253  1.00  0.00     0.167 C 
HETATM    7  C8  UNL     1      20.756   2.057  50.552  1.00  0.00     0.070 A 
HETATM    8  C9  UNL     1      19.715   2.654  49.877  1.00  0.00     0.033 A 
HETATM    9  C10 UNL     1      18.496   2.043  49.663  1.00  0.00     0.009 A 
HETATM   10  C11 UNL     1      18.324   0.771  50.156  1.00  0.00    -0.060 A 
HETATM   11  C12 UNL     1      17.016   0.077  49.944  1.00  0.00     0.048 C 
HETATM   12  C13 UNL     1      19.351   0.164  50.829  1.00  0.00     0.040 A 
HETATM   13  C14 UNL     1      20.573   0.762  51.050  1.00  0.00     0.086 A 
HETATM   14  N3  UNL     1      21.667   0.163  51.747  1.00  0.00    -0.240 NA
HETATM   15  C15 UNL     1      21.512  -0.184  52.971  1.00  0.00     0.232 C 
HETATM   16  N4  UNL     1      22.712  -0.768  53.509  1.00  0.00    -0.258 NA
HETATM   17  C16 UNL     1      23.783  -0.085  53.574  1.00  0.00     0.095 C 
HETATM   18  C17 UNL     1      24.633   1.118  53.397  1.00  0.00     0.088 C 
ENDROOT
BRANCH   1  19
HETATM   19  C4  UNL     1      26.794   0.094  52.337  1.00  0.00     0.044 C 
HETATM   20  C3  UNL     1      27.902   0.237  53.080  1.00  0.00     0.070 C 
BRANCH  20  21
HETATM   21  C2  UNL     1      29.136  -0.608  53.170  1.00  0.00     0.231 C 
BRANCH  21  22
HETATM   22  O1  UNL     1      28.908  -1.764  53.894  1.00  0.00    -0.390 OA
HETATM   23  C1  UNL     1      28.753  -2.867  53.072  1.00  0.00     0.201 C 
ENDBRANCH  21  22
ENDBRANCH  20  21
BRANCH  20  24
HETATM   24  O2  UNL     1      27.949   1.331  53.912  1.00  0.00    -0.358 OA
HETATM   25  C18 UNL     1      28.762   2.461  53.760  1.00  0.00     0.209 C 
ENDBRANCH  20  24
ENDBRANCH   1  19
TORSDOF 4
ENDMDL
MODEL 4
REMARK VINA RESULT:      -6.9      4.340      8.417
REMARK  4 active torsions:
REMARK  status: ('A' for Active; 'I' for Inactive)
REMARK    1  A    between atoms: O1_2  and  C2_3 
REMARK    2  A    between atoms: C2_3  and  C3_4 
REMARK    3  A    between atoms: C3_4  and  O2_24 
REMARK    4  A    between atoms: C4_5  and  C5_6 
ROOT
HETATM    1  C5  UNL     1      20.442   2.330  51.197  1.00  0.00    -0.019 C 
HETATM    2  C6  UNL     1      20.959   3.510  50.907  1.00  0.00     0.103 C 
HETATM    3  N1  UNL     1      22.171   3.429  50.477  1.00  0.00    -0.192 NA
HETATM    4  S1  UNL     1      23.122   2.172  51.275  1.00  0.00     0.094 SA
HETATM    5  N2  UNL     1      24.844   2.448  51.164  1.00  0.00    -0.304 N 
HETATM    6  C7  UNL     1      25.421   3.238  50.119  1.00  0.00     0.167 C 
HETATM    7  C8  UNL     1      25.698   1.868  52.144  1.00  0.00     0.070 A 
HETATM    8  C9  UNL     1      27.053   2.109  52.114  1.00  0.00     0.033 A 
HETATM    9  C10 UNL     1      27.941   1.581  53.030  1.00  0.00     0.009 A 
HETATM   10  C11 UNL     1      27.431   0.774  54.020  1.00  0.00    -0.060 A 
HETATM   11  C12 UNL     1      28.363   0.183  55.030  1.00  0.00     0.048 C 
HETATM   12  C13 UNL     1      26.085   0.526  54.063  1.00  0.00     0.040 A 
HETATM   13  C14 UNL     1      25.188   1.046  53.154  1.00  0.00     0.086 A 
HETATM   14  N3  UNL     1      23.779   0.810  53.165  1.00  0.00    -0.240 NA
HETATM   15  C15 UNL     1      23.346  -0.390  53.046  1.00  0.00     0.232 C 
HETATM   16  N4  UNL     1      21.907  -0.437  53.078  1.00  0.00    -0.258 NA
HETATM   17  C16 UNL     1      21.227   0.166  52.189  1.00  0.00     0.095 C 
HETATM   18  C17 UNL     1      21.018   1.001  50.980  1.00  0.00     0.088 C 
ENDROOT
BRANCH   1  19
HETATM   19  C4  UNL     1      19.159   2.655  51.787  1.00  0.00     0.044 C 
HETATM   20  C3  UNL     1      18.004   2.581  51.109  1.00  0.00     0.070 C 
BRANCH  20  21
HETATM   21  C2  UNL     1      16.598   2.872  51.536  1.00  0.00     0.231 C 
BRANCH  21  22
HETATM   22  O1  UNL     1      16.536   3.984  52.356  1.00  0.00    -0.390 OA
HETATM   23  C1  UNL     1      15.301   4.107  52.970  1.00  0.00     0.201 C 
ENDBRANCH  21  22
ENDBRANCH  20  21
BRANCH  20  24
HETATM   24  O2  UNL     1      18.084   2.173  49.798  1.00  0.00    -0.358 OA
HETATM   25  C18 UNL     1      17.720   2.916  48.669  1.00  0.00     0.209 C 
ENDBRANCH  20  24
ENDBRANCH   1  19
TORSDOF 4
ENDMDL
MODEL 5
REMARK VINA RESULT:      -6.8      4.195      8.226
REMARK  4 active torsions:
REMARK  status: ('A' for Active; 'I' for Inactive)
REMARK    1  A    between atoms: O1_2  and  C2_3 
REMARK    2  A    between atoms: C2_3  and  C3_4 
REMARK    3  A    between atoms: C3_4  and  O2_24 
REMARK    4  A    between atoms: C4_5  and  C5_6 
ROOT
HETATM    1  C5  UNL     1      22.523   3.332  48.663  1.00  0.00    -0.019 C 
HETATM    2  C6  UNL     1      21.715   2.333  48.970  1.00  0.00     0.103 C 
HETATM    3  N1  UNL     1      21.767   2.018  50.219  1.00  0.00    -0.192 NA
HETATM    4  S1  UNL     1      23.385   2.146  50.915  1.00  0.00     0.094 SA
HETATM    5  N2  UNL     1      23.586   1.175  52.354  1.00  0.00    -0.304 N 
HETATM    6  C7  UNL     1      22.476   0.790  53.171  1.00  0.00     0.167 C 
HETATM    7  C8  UNL     1      24.895   0.757  52.723  1.00  0.00     0.070 A 
HETATM    8  C9  UNL     1      25.081  -0.051  53.822  1.00  0.00     0.033 A 
HETATM    9  C10 UNL     1      26.319  -0.496  54.240  1.00  0.00     0.009 A 
HETATM   10  C11 UNL     1      27.417  -0.103  53.510  1.00  0.00    -0.060 A 
HETATM   11  C12 UNL     1      28.776  -0.565  53.933  1.00  0.00     0.048 C 
HETATM   12  C13 UNL     1      27.247   0.700  52.414  1.00  0.00     0.040 A 
HETATM   13  C14 UNL     1      26.017   1.151  51.987  1.00  0.00     0.086 A 
HETATM   14  N3  UNL     1      25.800   1.990  50.851  1.00  0.00    -0.240 NA
HETATM   15  C15 UNL     1      26.340   3.151  50.820  1.00  0.00     0.232 C 
HETATM   16  N4  UNL     1      26.013   3.852  49.606  1.00  0.00    -0.258 NA
HETATM   17  C16 UNL     1      24.803   4.129  49.332  1.00  0.00     0.095 C 
HETATM   18  C17 UNL     1      23.337   4.157  49.559  1.00  0.00     0.088 C 
ENDROOT
BRANCH   1  19
HETATM   19  C4  UNL     1      22.421   3.423  47.221  1.00  0.00     0.044 C 
HETATM   20  C3  UNL     1      21.871   4.473  46.593  1.00  0.00     0.070 C 
BRANCH  20  21
HETATM   21  C2  UNL     1      21.675   4.748  45.134  1.00  0.00     0.231 C 
BRANCH  21  22
HETATM   22  O1  UNL     1      21.423   3.586  44.428  1.00  0.00    -0.390 OA
HETATM   23  C1  UNL     1      20.376   3.740  43.535  1.00  0.00     0.201 C 
ENDBRANCH  21  22
ENDBRANCH  20  21
BRANCH  20  24
HETATM   24  O2  UNL     1      21.398   5.489  47.390  1.00  0.00    -0.358 OA
HETATM   25  C18 UNL     1      21.128   6.804  46.993  1.00  0.00     0.209 C 
ENDBRANCH  20  24
ENDBRANCH   1  19
TORSDOF 4
ENDMDL
MODEL 6
REMARK VINA RESULT:      -6.7      4.645      7.762
REMARK  4 active torsions:
REMARK  status: ('A' for Active; 'I' for Inactive)
REMARK    1  A    between atoms: O1_2  and  C2_3 
REMARK    2  A    between atoms: C2_3  and  C3_4 
REMARK    3  A    between atoms: C3_4  and  O2_24 
REMARK    4  A    between atoms: C4_5  and  C5_6 
ROOT
HETATM    1  C5  UNL     1      23.773   3.588  50.715  1.00  0.00    -0.019 C 
HETATM    2  C6  UNL     1      23.919   3.583  52.028  1.00  0.00     0.103 C 
HETATM    3  N1  UNL     1      23.633   2.442  52.555  1.00  0.00    -0.192 NA
HETATM    4  S1  UNL     1      22.281   1.619  51.771  1.00  0.00     0.094 SA
HETATM    5  N2  UNL     1      21.514   0.436  52.803  1.00  0.00    -0.304 N 
HETATM    6  C7  UNL     1      22.206  -0.185  53.891  1.00  0.00     0.167 C 
HETATM    7  C8  UNL     1      20.160   0.079  52.551  1.00  0.00     0.070 A 
HETATM    8  C9  UNL     1      19.511  -0.811  53.376  1.00  0.00     0.033 A 
HETATM    9  C10 UNL     1      18.199  -1.203  53.194  1.00  0.00     0.009 A 
HETATM   10  C11 UNL     1      17.517  -0.668  52.127  1.00  0.00    -0.060 A 
HETATM   11  C12 UNL     1      16.094  -1.069  51.897  1.00  0.00     0.048 C 
HETATM   12  C13 UNL     1      18.149   0.220  51.297  1.00  0.00     0.040 A 
HETATM   13  C14 UNL     1      19.457   0.619  51.468  1.00  0.00     0.086 A 
HETATM   14  N3  UNL     1      20.151   1.540  50.625  1.00  0.00    -0.240 NA
HETATM   15  C15 UNL     1      20.301   1.260  49.384  1.00  0.00     0.232 C 
HETATM   16  N4  UNL     1      21.020   2.297  48.691  1.00  0.00    -0.258 NA
HETATM   17  C16 UNL     1      22.210   2.586  49.031  1.00  0.00     0.095 C 
HETATM   18  C17 UNL     1      23.458   2.467  49.826  1.00  0.00     0.088 C 
ENDROOT
BRANCH   1  19
HETATM   19  C4  UNL     1      23.997   4.972  50.352  1.00  0.00     0.044 C 
HETATM   20  C3  UNL     1      25.109   5.394  49.731  1.00  0.00     0.070 C 
BRANCH  20  21
HETATM   21  C2  UNL     1      25.519   6.762  49.280  1.00  0.00     0.231 C 
BRANCH  21  22
HETATM   22  O1  UNL     1      25.948   7.538  50.341  1.00  0.00    -0.390 OA
HETATM   23  C1  UNL     1      26.778   8.567  49.928  1.00  0.00     0.201 C 
ENDBRANCH  21  22
ENDBRANCH  20  21
BRANCH  20  24
HETATM   24  O2  UNL     1      26.052   4.437  49.440  1.00  0.00    -0.358 OA
HETATM   25  C18 UNL     1      27.315   4.654  48.875  1.00  0.00     0.209 C 
ENDBRANCH  20  24
ENDBRANCH   1  19
TORSDOF 4
ENDMDL
MODEL 7
REMARK VINA RESULT:      -6.6      3.427      8.030
REMARK  4 active torsions:
REMARK  status: ('A' for Active; 'I' for Inactive)
REMARK    1  A    between atoms: O1_2  and  C2_3 
REMARK    2  A    between atoms: C2_3  and  C3_4 
REMARK    3  A    between atoms: C3_4  and  O2_24 
REMARK    4  A    between atoms: C4_5  and  C5_6 
ROOT
HETATM    1  C5  UNL     1      24.553   4.923  49.112  1.00  0.00    -0.019 C 
HETATM    2  C6  UNL     1      25.589   5.086  49.915  1.00  0.00     0.103 C 
HETATM    3  N1  UNL     1      26.062   3.968  50.349  1.00  0.00    -0.192 NA
HETATM    4  S1  UNL     1      24.821   2.754  50.674  1.00  0.00     0.094 SA
HETATM    5  N2  UNL     1      25.351   1.523  51.795  1.00  0.00    -0.304 N 
HETATM    6  C7  UNL     1      26.735   1.211  51.982  1.00  0.00     0.167 C 
HETATM    7  C8  UNL     1      24.374   0.809  52.544  1.00  0.00     0.070 A 
HETATM    8  C9  UNL     1      24.761  -0.130  53.473  1.00  0.00     0.033 A 
HETATM    9  C10 UNL     1      23.871  -0.860  54.236  1.00  0.00     0.009 A 
HETATM   10  C11 UNL     1      22.529  -0.626  54.047  1.00  0.00    -0.060 A 
HETATM   11  C12 UNL     1      21.535  -1.398  54.855  1.00  0.00     0.048 C 
HETATM   12  C13 UNL     1      22.129   0.306  53.127  1.00  0.00     0.040 A 
HETATM   13  C14 UNL     1      23.007   1.041  52.360  1.00  0.00     0.086 A 
HETATM   14  N3  UNL     1      22.629   2.020  51.390  1.00  0.00    -0.240 NA
HETATM   15  C15 UNL     1      21.908   1.665  50.392  1.00  0.00     0.232 C 
HETATM   16  N4  UNL     1      21.626   2.777  49.523  1.00  0.00    -0.258 NA
HETATM   17  C16 UNL     1      22.575   3.393  48.943  1.00  0.00     0.095 C 
HETATM   18  C17 UNL     1      23.989   3.676  48.590  1.00  0.00     0.088 C 
ENDROOT
BRANCH   1  19
HETATM   19  C4  UNL     1      24.097   6.275  48.864  1.00  0.00     0.044 C 
HETATM   20  C3  UNL     1      23.305   6.946  49.715  1.00  0.00     0.070 C 
BRANCH  20  21
HETATM   21  C2  UNL     1      22.736   8.329  49.638  1.00  0.00     0.231 C 
BRANCH  21  22
HETATM   22  O1  UNL     1      22.138   8.565  48.413  1.00  0.00    -0.390 OA
HETATM   23  C1  UNL     1      20.768   8.369  48.460  1.00  0.00     0.201 C 
ENDBRANCH  21  22
ENDBRANCH  20  21
BRANCH  20  24
HETATM   24  O2  UNL     1      22.935   6.286  50.863  1.00  0.00    -0.358 OA
HETATM   25  C18 UNL     1      21.629   5.991  51.272  1.00  0.00     0.209 C 
ENDBRANCH  20  24
ENDBRANCH   1  19
TORSDOF 4
ENDMDL
MODEL 8
REMARK VINA RESULT:      -6.6      4.677      7.844
REMARK  4 active torsions:
REMARK  status: ('A' for Active; 'I' for Inactive)
REMARK    1  A    between atoms: O1_2  and  C2_3 
REMARK    2  A    between atoms: C2_3  and  C3_4 
REMARK    3  A    between atoms: C3_4  and  O2_24 
REMARK    4  A    between atoms: C4_5  and  C5_6 
ROOT
HETATM    1  C5  UNL     1      24.017   3.388  51.364  1.00  0.00    -0.019 C 
HETATM    2  C6  UNL     1      24.019   3.354  52.685  1.00  0.00     0.103 C 
HETATM    3  N1  UNL     1      23.642   2.214  53.153  1.00  0.00    -0.192 NA
HETATM    4  S1  UNL     1      22.357   1.452  52.210  1.00  0.00     0.094 SA
HETATM    5  N2  UNL     1      21.446   0.277  53.127  1.00  0.00    -0.304 N 
HETATM    6  C7  UNL     1      21.995  -0.387  54.269  1.00  0.00     0.167 C 
HETATM    7  C8  UNL     1      20.116  -0.029  52.723  1.00  0.00     0.070 A 
HETATM    8  C9  UNL     1      19.353  -0.911  53.454  1.00  0.00     0.033 A 
HETATM    9  C10 UNL     1      18.057  -1.255  53.123  1.00  0.00     0.009 A 
HETATM   10  C11 UNL     1      17.512  -0.677  52.000  1.00  0.00    -0.060 A 
HETATM   11  C12 UNL     1      16.110  -1.026  51.609  1.00  0.00     0.048 C 
HETATM   12  C13 UNL     1      18.258   0.203  51.263  1.00  0.00     0.040 A 
HETATM   13  C14 UNL     1      19.552   0.554  51.583  1.00  0.00     0.086 A 
HETATM   14  N3  UNL     1      20.362   1.467  50.839  1.00  0.00    -0.240 NA
HETATM   15  C15 UNL     1      20.637   1.204  49.616  1.00  0.00     0.232 C 
HETATM   16  N4  UNL     1      21.460   2.229  49.028  1.00  0.00    -0.258 NA
HETATM   17  C16 UNL     1      22.615   2.471  49.500  1.00  0.00     0.095 C 
HETATM   18  C17 UNL     1      23.764   2.295  50.422  1.00  0.00     0.088 C 
ENDROOT
BRANCH   1  19
HETATM   19  C4  UNL     1      24.322   4.770  51.058  1.00  0.00     0.044 C 
HETATM   20  C3  UNL     1      23.401   5.745  51.086  1.00  0.00     0.070 C 
BRANCH  20  21
HETATM   21  C2  UNL     1      23.519   7.212  50.805  1.00  0.00     0.231 C 
BRANCH  21  22
HETATM   22  O1  UNL     1      24.284   7.453  49.678  1.00  0.00    -0.390 OA
HETATM   23  C1  UNL     1      25.296   8.364  49.925  1.00  0.00     0.201 C 
ENDBRANCH  21  22
ENDBRANCH  20  21
BRANCH  20  24
HETATM   24  O2  UNL     1      22.122   5.375  51.428  1.00  0.00    -0.358 OA
HETATM   25  C18 UNL     1      20.965   5.567  50.664  1.00  0.00     0.209 C 
ENDBRANCH  20  24
ENDBRANCH   1  19
TORSDOF 4
ENDMDL
MODEL 9
REMARK VINA RESULT:      -6.5      5.019      8.856
REMARK  4 active torsions:
REMARK  status: ('A' for Active; 'I' for Inactive)
REMARK    1  A    between atoms: O1_2  and  C2_3 
REMARK    2  A    between atoms: C2_3  and  C3_4 
REMARK    3  A    between atoms: C3_4  and  O2_24 
REMARK    4  A    between atoms: C4_5  and  C5_6 
ROOT
HETATM    1  C5  UNL     1      19.232   1.501  51.580  1.00  0.00    -0.019 C 
HETATM    2  C6  UNL     1      19.109   0.216  51.863  1.00  0.00     0.103 C 
HETATM    3  N1  UNL     1      19.836  -0.143  52.865  1.00  0.00    -0.192 NA
HETATM    4  S1  UNL     1      21.400   0.675  52.933  1.00  0.00     0.094 SA
HETATM    5  N2  UNL     1      22.588  -0.206  53.865  1.00  0.00    -0.304 N 
HETATM    6  C7  UNL     1      22.215  -1.138  54.884  1.00  0.00     0.167 C 
HETATM    7  C8  UNL     1      23.969   0.014  53.602  1.00  0.00     0.070 A 
HETATM    8  C9  UNL     1      24.928  -0.701  54.282  1.00  0.00     0.033 A 
HETATM    9  C10 UNL     1      26.285  -0.541  54.079  1.00  0.00     0.009 A 
HETATM   10  C11 UNL     1      26.685   0.385  53.145  1.00  0.00    -0.060 A 
HETATM   11  C12 UNL     1      28.147   0.586  52.898  1.00  0.00     0.048 C 
HETATM   12  C13 UNL     1      25.742   1.103  52.459  1.00  0.00     0.040 A 
HETATM   13  C14 UNL     1      24.385   0.954  52.652  1.00  0.00     0.086 A 
HETATM   14  N3  UNL     1      23.372   1.684  51.958  1.00  0.00    -0.240 NA
HETATM   15  C15 UNL     1      23.341   2.961  52.063  1.00  0.00     0.232 C 
HETATM   16  N4  UNL     1      22.259   3.526  51.300  1.00  0.00    -0.258 NA
HETATM   17  C16 UNL     1      21.055   3.220  51.573  1.00  0.00     0.095 C 
HETATM   18  C17 UNL     1      19.968   2.532  52.314  1.00  0.00     0.088 C 
ENDROOT
BRANCH   1  19
HETATM   19  C4  UNL     1      18.464   1.656  50.361  1.00  0.00     0.044 C 
HETATM   20  C3  UNL     1      17.247   2.221  50.332  1.00  0.00     0.070 C 
BRANCH  20  21
HETATM   21  C2  UNL     1      16.310   2.468  49.190  1.00  0.00     0.231 C 
BRANCH  21  22
HETATM   22  O1  UNL     1      15.957   1.289  48.559  1.00  0.00    -0.390 OA
HETATM   23  C1  UNL     1      14.937   0.630  49.225  1.00  0.00     0.201 C 
ENDBRANCH  21  22
ENDBRANCH  20  21
BRANCH  20  24
HETATM   24  O2  UNL     1      16.744   2.661  51.533  1.00  0.00    -0.358 OA
HETATM   25  C18 UNL     1      16.282   3.951  51.822  1.00  0.00     0.209 C 
ENDBRANCH  20  24
ENDBRANCH   1  19
TORSDOF 4
ENDMDL
