MODEL 1
REMARK VINA RESULT:      -8.5      0.000      0.000
REMARK  7 active torsions:
REMARK  status: ('A' for Active; 'I' for Inactive)
REMARK    1  A    between atoms: C7_7  and  N1_8 
REMARK    2  A    between atoms: N1_8  and  C8_9 
REMARK    3  A    between atoms: C10_13  and  O1_14 
REMARK    4  A    between atoms: C18_23  and  O3_24 
REMARK    5  A    between atoms: O3_24  and  C19_25 
REMARK    6  A    between atoms: C19_25  and  C20_26 
REMARK    7  A    between atoms: C20_26  and  O4_27 
ROOT
HETATM    1  C1  UNL     1      29.732   6.999  47.140  1.00  0.00     0.018 C 
HETATM    2  C2  UNL     1      28.735   6.722  47.775  1.00  0.00    -0.078 C 
HETATM    3  C3  UNL     1      27.524   6.409  48.530  1.00  0.00     0.019 A 
HETATM    4  C4  UNL     1      26.705   7.350  49.083  1.00  0.00     0.021 A 
HETATM    5  C5  UNL     1      25.586   7.003  49.808  1.00  0.00     0.004 A 
HETATM    6  C6  UNL     1      25.296   5.665  49.974  1.00  0.00     0.029 A 
HETATM    7  C7  UNL     1      26.151   4.717  49.394  1.00  0.00     0.035 A 
HETATM    8  C22 UNL     1      27.295   5.053  48.652  1.00  0.00     0.050 A 
ENDROOT
BRANCH   7   9
HETATM    9  N1  UNL     1      25.747   3.362  49.621  1.00  0.00    -0.340 N 
HETATM   10  H5  UNL     1      25.228   2.926  48.805  1.00  0.00     0.167 HD
BRANCH   9  11
HETATM   11  C8  UNL     1      26.046   2.747  50.855  1.00  0.00     0.140 C 
HETATM   12  N2  UNL     1      27.214   2.648  51.343  1.00  0.00    -0.212 NA
HETATM   13  C9  UNL     1      27.628   2.051  52.568  1.00  0.00     0.297 C 
HETATM   14  N3  UNL     1      27.383   1.233  53.393  1.00  0.00    -0.407 NA
HETATM   15  C10 UNL     1      27.189   0.335  54.374  1.00  0.00     0.324 C 
HETATM   16  C12 UNL     1      26.018  -0.607  54.139  1.00  0.00     0.244 C 
HETATM   17  O2  UNL     1      24.749  -0.194  54.043  1.00  0.00    -0.343 OA
HETATM   18  C13 UNL     1      23.982   0.615  53.315  1.00  0.00     0.103 A 
HETATM   19  C14 UNL     1      24.707   1.350  52.424  1.00  0.00     0.055 A 
HETATM   20  C18 UNL     1      22.699   1.080  53.047  1.00  0.00     0.102 A 
HETATM   21  C15 UNL     1      24.832   2.274  51.452  1.00  0.00     0.013 A 
HETATM   22  C16 UNL     1      23.524   2.645  51.292  1.00  0.00     0.018 A 
HETATM   23  C17 UNL     1      22.511   2.060  52.066  1.00  0.00     0.040 A 
BRANCH  15  24
HETATM   24  O1  UNL     1      28.295  -0.573  54.549  1.00  0.00    -0.358 OA
HETATM   25  C11 UNL     1      28.511  -1.256  53.357  1.00  0.00     0.205 C 
ENDBRANCH  15  24
BRANCH  20  26
HETATM   26  O3  UNL     1      21.975   0.380  53.880  1.00  0.00    -0.346 OA
BRANCH  26  27
HETATM   27  C19 UNL     1      21.342  -0.770  54.115  1.00  0.00     0.201 C 
BRANCH  27  28
HETATM   28  C20 UNL     1      20.027  -1.038  53.433  1.00  0.00     0.193 C 
BRANCH  28  29
HETATM   29  O4  UNL     1      19.321   0.056  53.042  1.00  0.00    -0.394 OA
HETATM   30  C21 UNL     1      19.235   0.210  51.667  1.00  0.00     0.201 C 
ENDBRANCH  28  29
ENDBRANCH  27  28
ENDBRANCH  26  27
ENDBRANCH  20  26
ENDBRANCH   9  11
ENDBRANCH   7   9
TORSDOF 7
ENDMDL
MODEL 2
REMARK VINA RESULT:      -7.6      2.980      8.507
REMARK  7 active torsions:
REMARK  status: ('A' for Active; 'I' for Inactive)
REMARK    1  A    between atoms: C7_7  and  N1_8 
REMARK    2  A    between atoms: N1_8  and  C8_9 
REMARK    3  A    between atoms: C10_13  and  O1_14 
REMARK    4  A    between atoms: C18_23  and  O3_24 
REMARK    5  A    between atoms: O3_24  and  C19_25 
REMARK    6  A    between atoms: C19_25  and  C20_26 
REMARK    7  A    between atoms: C20_26  and  O4_27 
ROOT
HETATM    1  C1  UNL     1      16.579   1.081  49.238  1.00  0.00     0.018 C 
HETATM    2  C2  UNL     1      16.834   0.387  50.202  1.00  0.00    -0.078 C 
HETATM    3  C3  UNL     1      17.130  -0.466  51.351  1.00  0.00     0.019 A 
HETATM    4  C4  UNL     1      16.320  -1.478  51.778  1.00  0.00     0.021 A 
HETATM    5  C5  UNL     1      16.631  -2.240  52.883  1.00  0.00     0.004 A 
HETATM    6  C6  UNL     1      17.796  -1.964  53.568  1.00  0.00     0.029 A 
HETATM    7  C7  UNL     1      18.613  -0.921  53.108  1.00  0.00     0.035 A 
HETATM    8  C22 UNL     1      18.311  -0.135  51.984  1.00  0.00     0.050 A 
ENDROOT
BRANCH   7   9
HETATM    9  N1  UNL     1      19.798  -0.731  53.888  1.00  0.00    -0.340 N 
HETATM   10  H5  UNL     1      19.858  -1.363  54.739  1.00  0.00     0.167 HD
BRANCH   9  11
HETATM   11  C8  UNL     1      20.741   0.241  53.493  1.00  0.00     0.140 C 
HETATM   12  N2  UNL     1      20.450   1.319  52.888  1.00  0.00    -0.212 NA
HETATM   13  C9  UNL     1      21.312   2.361  52.443  1.00  0.00     0.297 C 
HETATM   14  N3  UNL     1      22.411   2.640  52.088  1.00  0.00    -0.407 NA
HETATM   15  C10 UNL     1      23.621   3.052  51.674  1.00  0.00     0.324 C 
HETATM   16  C12 UNL     1      24.634   1.932  51.487  1.00  0.00     0.244 C 
HETATM   17  O2  UNL     1      25.060   1.152  52.486  1.00  0.00    -0.343 OA
HETATM   18  C13 UNL     1      24.593   0.305  53.402  1.00  0.00     0.103 A 
HETATM   19  C14 UNL     1      23.231   0.259  53.417  1.00  0.00     0.055 A 
HETATM   20  C18 UNL     1      24.891  -0.602  54.415  1.00  0.00     0.102 A 
HETATM   21  C15 UNL     1      22.050  -0.183  53.891  1.00  0.00     0.013 A 
HETATM   22  C16 UNL     1      22.480  -1.045  54.865  1.00  0.00     0.018 A 
HETATM   23  C17 UNL     1      23.849  -1.235  55.102  1.00  0.00     0.040 A 
BRANCH  15  24
HETATM   24  O1  UNL     1      23.602   3.680  50.376  1.00  0.00    -0.358 OA
HETATM   25  C11 UNL     1      24.761   4.435  50.224  1.00  0.00     0.205 C 
ENDBRANCH  15  24
BRANCH  20  26
HETATM   26  O3  UNL     1      26.198  -0.591  54.414  1.00  0.00    -0.346 OA
BRANCH  26  27
HETATM   27  C19 UNL     1      27.310  -0.011  54.867  1.00  0.00     0.201 C 
BRANCH  27  28
HETATM   28  C20 UNL     1      28.248   0.643  53.888  1.00  0.00     0.193 C 
BRANCH  28  29
HETATM   29  O4  UNL     1      29.525   0.180  53.880  1.00  0.00    -0.394 OA
HETATM   30  C21 UNL     1      29.645  -1.134  53.453  1.00  0.00     0.201 C 
ENDBRANCH  28  29
ENDBRANCH  27  28
ENDBRANCH  26  27
ENDBRANCH  20  26
ENDBRANCH   9  11
ENDBRANCH   7   9
TORSDOF 7
ENDMDL
MODEL 3
REMARK VINA RESULT:      -7.6      2.714      7.503
REMARK  7 active torsions:
REMARK  status: ('A' for Active; 'I' for Inactive)
REMARK    1  A    between atoms: C7_7  and  N1_8 
REMARK    2  A    between atoms: N1_8  and  C8_9 
REMARK    3  A    between atoms: C10_13  and  O1_14 
REMARK    4  A    between atoms: C18_23  and  O3_24 
REMARK    5  A    between atoms: O3_24  and  C19_25 
REMARK    6  A    between atoms: C19_25  and  C20_26 
REMARK    7  A    between atoms: C20_26  and  O4_27 
ROOT
HETATM    1  C1  UNL     1      16.935   0.433  50.518  1.00  0.00     0.018 C 
HETATM    2  C2  UNL     1      17.829   0.211  51.310  1.00  0.00    -0.078 C 
HETATM    3  C3  UNL     1      18.902  -0.078  52.258  1.00  0.00     0.019 A 
HETATM    4  C4  UNL     1      18.927  -1.174  53.070  1.00  0.00     0.021 A 
HETATM    5  C5  UNL     1      19.951  -1.391  53.967  1.00  0.00     0.004 A 
HETATM    6  C6  UNL     1      20.973  -0.468  54.037  1.00  0.00     0.029 A 
HETATM    7  C7  UNL     1      20.927   0.649  53.190  1.00  0.00     0.035 A 
HETATM    8  C22 UNL     1      19.892   0.885  52.271  1.00  0.00     0.050 A 
ENDROOT
BRANCH   7   9
HETATM    9  N1  UNL     1      22.043   1.533  53.341  1.00  0.00    -0.340 N 
HETATM   10  H5  UNL     1      21.770   2.531  53.577  1.00  0.00     0.167 HD
BRANCH   9  11
HETATM   11  C8  UNL     1      23.351   1.036  53.164  1.00  0.00     0.140 C 
HETATM   12  N2  UNL     1      23.817   0.014  53.757  1.00  0.00    -0.212 NA
HETATM   13  C9  UNL     1      25.111  -0.571  53.656  1.00  0.00     0.297 C 
HETATM   14  N3  UNL     1      26.259  -0.378  53.417  1.00  0.00    -0.407 NA
HETATM   15  C10 UNL     1      27.573  -0.258  53.166  1.00  0.00     0.324 C 
HETATM   16  C12 UNL     1      28.037   1.170  52.920  1.00  0.00     0.244 C 
HETATM   17  O2  UNL     1      27.607   1.916  51.897  1.00  0.00    -0.343 OA
HETATM   18  C13 UNL     1      26.481   2.407  51.382  1.00  0.00     0.103 A 
HETATM   19  C14 UNL     1      25.373   1.946  52.029  1.00  0.00     0.055 A 
HETATM   20  C18 UNL     1      25.895   3.221  50.418  1.00  0.00     0.102 A 
HETATM   21  C15 UNL     1      24.042   1.857  52.215  1.00  0.00     0.013 A 
HETATM   22  C16 UNL     1      23.596   2.683  51.218  1.00  0.00     0.018 A 
HETATM   23  C17 UNL     1      24.501   3.332  50.365  1.00  0.00     0.040 A 
BRANCH  15  24
HETATM   24  O1  UNL     1      28.409  -0.676  54.265  1.00  0.00    -0.358 OA
HETATM   25  C11 UNL     1      29.655  -1.045  53.768  1.00  0.00     0.205 C 
ENDBRANCH  15  24
BRANCH  20  26
HETATM   26  O3  UNL     1      26.938   3.692  49.787  1.00  0.00    -0.346 OA
BRANCH  26  27
HETATM   27  C19 UNL     1      27.394   4.514  48.842  1.00  0.00     0.201 C 
BRANCH  27  28
HETATM   28  C20 UNL     1      26.875   5.925  48.782  1.00  0.00     0.193 C 
BRANCH  28  29
HETATM   29  O4  UNL     1      25.615   6.080  48.297  1.00  0.00    -0.394 OA
HETATM   30  C21 UNL     1      25.250   7.401  48.086  1.00  0.00     0.201 C 
ENDBRANCH  28  29
ENDBRANCH  27  28
ENDBRANCH  26  27
ENDBRANCH  20  26
ENDBRANCH   9  11
ENDBRANCH   7   9
TORSDOF 7
ENDMDL
MODEL 4
REMARK VINA RESULT:      -7.6      3.830      8.568
REMARK  7 active torsions:
REMARK  status: ('A' for Active; 'I' for Inactive)
REMARK    1  A    between atoms: C7_7  and  N1_8 
REMARK    2  A    between atoms: N1_8  and  C8_9 
REMARK    3  A    between atoms: C10_13  and  O1_14 
REMARK    4  A    between atoms: C18_23  and  O3_24 
REMARK    5  A    between atoms: O3_24  and  C19_25 
REMARK    6  A    between atoms: C19_25  and  C20_26 
REMARK    7  A    between atoms: C20_26  and  O4_27 
ROOT
HETATM    1  C1  UNL     1      29.761  -0.155  53.560  1.00  0.00     0.018 C 
HETATM    2  C2  UNL     1      28.562  -0.014  53.430  1.00  0.00    -0.078 C 
HETATM    3  C3  UNL     1      27.117   0.159  53.296  1.00  0.00     0.019 A 
HETATM    4  C4  UNL     1      26.206  -0.316  54.195  1.00  0.00     0.021 A 
HETATM    5  C5  UNL     1      24.851  -0.149  54.012  1.00  0.00     0.004 A 
HETATM    6  C6  UNL     1      24.414   0.519  52.887  1.00  0.00     0.029 A 
HETATM    7  C7  UNL     1      25.370   1.001  51.981  1.00  0.00     0.035 A 
HETATM    8  C22 UNL     1      26.754   0.839  52.151  1.00  0.00     0.050 A 
ENDROOT
BRANCH   7   9
HETATM    9  N1  UNL     1      24.803   1.685  50.858  1.00  0.00    -0.340 N 
HETATM   10  H5  UNL     1      24.660   1.067  50.007  1.00  0.00     0.167 HD
BRANCH   9  11
HETATM   11  C8  UNL     1      24.506   3.060  50.960  1.00  0.00     0.140 C 
HETATM   12  N2  UNL     1      23.583   3.542  51.688  1.00  0.00    -0.212 NA
HETATM   13  C9  UNL     1      23.197   4.901  51.865  1.00  0.00     0.297 C 
HETATM   14  N3  UNL     1      23.164   5.983  51.377  1.00  0.00    -0.407 NA
HETATM   15  C10 UNL     1      23.082   7.240  50.909  1.00  0.00     0.324 C 
HETATM   16  C12 UNL     1      23.535   7.403  49.466  1.00  0.00     0.244 C 
HETATM   17  O2  UNL     1      24.783   7.157  49.055  1.00  0.00    -0.343 OA
HETATM   18  C13 UNL     1      25.678   6.172  49.012  1.00  0.00     0.103 A 
HETATM   19  C14 UNL     1      25.254   5.060  49.677  1.00  0.00     0.055 A 
HETATM   20  C18 UNL     1      26.929   5.748  48.575  1.00  0.00     0.102 A 
HETATM   21  C15 UNL     1      25.409   3.801  50.130  1.00  0.00     0.013 A 
HETATM   22  C16 UNL     1      26.656   3.513  49.645  1.00  0.00     0.018 A 
HETATM   23  C17 UNL     1      27.372   4.460  48.898  1.00  0.00     0.040 A 
BRANCH  15  24
HETATM   24  O1  UNL     1      21.735   7.756  50.878  1.00  0.00    -0.358 OA
HETATM   25  C11 UNL     1      21.172   7.470  49.639  1.00  0.00     0.205 C 
ENDBRANCH  15  24
BRANCH  20  26
HETATM   26  O3  UNL     1      27.357   6.793  47.919  1.00  0.00    -0.346 OA
BRANCH  26  27
HETATM   27  C19 UNL     1      28.366   7.637  47.697  1.00  0.00     0.201 C 
BRANCH  27  28
HETATM   28  C20 UNL     1      29.775   7.107  47.675  1.00  0.00     0.193 C 
BRANCH  28  29
HETATM   29  O4  UNL     1      30.451   7.152  48.853  1.00  0.00    -0.394 OA
HETATM   30  C21 UNL     1      31.622   6.410  48.860  1.00  0.00     0.201 C 
ENDBRANCH  28  29
ENDBRANCH  27  28
ENDBRANCH  26  27
ENDBRANCH  20  26
ENDBRANCH   9  11
ENDBRANCH   7   9
TORSDOF 7
ENDMDL
MODEL 5
REMARK VINA RESULT:      -7.4      3.984      8.981
REMARK  7 active torsions:
REMARK  status: ('A' for Active; 'I' for Inactive)
REMARK    1  A    between atoms: C7_7  and  N1_8 
REMARK    2  A    between atoms: N1_8  and  C8_9 
REMARK    3  A    between atoms: C10_13  and  O1_14 
REMARK    4  A    between atoms: C18_23  and  O3_24 
REMARK    5  A    between atoms: O3_24  and  C19_25 
REMARK    6  A    between atoms: C19_25  and  C20_26 
REMARK    7  A    between atoms: C20_26  and  O4_27 
ROOT
HETATM    1  C1  UNL     1      26.444  -0.092  54.910  1.00  0.00     0.018 C 
HETATM    2  C2  UNL     1      25.446   0.077  54.239  1.00  0.00    -0.078 C 
HETATM    3  C3  UNL     1      24.231   0.280  53.452  1.00  0.00     0.019 A 
HETATM    4  C4  UNL     1      23.017  -0.253  53.772  1.00  0.00     0.021 A 
HETATM    5  C5  UNL     1      21.905  -0.052  52.984  1.00  0.00     0.004 A 
HETATM    6  C6  UNL     1      22.034   0.712  51.843  1.00  0.00     0.029 A 
HETATM    7  C7  UNL     1      23.291   1.252  51.538  1.00  0.00     0.035 A 
HETATM    8  C22 UNL     1      24.435   1.057  52.329  1.00  0.00     0.050 A 
ENDROOT
BRANCH   7   9
HETATM    9  N1  UNL     1      23.306   2.034  50.338  1.00  0.00    -0.340 N 
HETATM   10  H5  UNL     1      23.261   1.456  49.449  1.00  0.00     0.167 HD
BRANCH   9  11
HETATM   11  C8  UNL     1      23.385   3.440  50.427  1.00  0.00     0.140 C 
HETATM   12  N2  UNL     1      22.483   4.179  50.933  1.00  0.00    -0.212 NA
HETATM   13  C9  UNL     1      22.457   5.595  51.071  1.00  0.00     0.297 C 
HETATM   14  N3  UNL     1      22.845   6.631  50.638  1.00  0.00    -0.407 NA
HETATM   15  C10 UNL     1      23.230   7.848  50.219  1.00  0.00     0.324 C 
HETATM   16  C12 UNL     1      24.046   7.842  48.935  1.00  0.00     0.244 C 
HETATM   17  O2  UNL     1      25.238   7.247  48.825  1.00  0.00    -0.343 OA
HETATM   18  C13 UNL     1      25.808   6.050  48.955  1.00  0.00     0.103 A 
HETATM   19  C14 UNL     1      24.945   5.118  49.449  1.00  0.00     0.055 A 
HETATM   20  C18 UNL     1      26.960   5.283  48.813  1.00  0.00     0.102 A 
HETATM   21  C15 UNL     1      24.630   3.878  49.871  1.00  0.00     0.013 A 
HETATM   22  C16 UNL     1      25.828   3.241  49.686  1.00  0.00     0.018 A 
HETATM   23  C17 UNL     1      26.937   3.931  49.175  1.00  0.00     0.040 A 
BRANCH  15  24
HETATM   24  O1  UNL     1      22.128   8.718  49.889  1.00  0.00    -0.358 OA
HETATM   25  C11 UNL     1      22.390   9.334  48.669  1.00  0.00     0.205 C 
ENDBRANCH  15  24
BRANCH  20  26
HETATM   26  O3  UNL     1      27.807   6.150  48.325  1.00  0.00    -0.346 OA
BRANCH  26  27
HETATM   27  C19 UNL     1      29.039   6.371  47.864  1.00  0.00     0.201 C 
BRANCH  27  28
HETATM   28  C20 UNL     1      29.862   7.476  48.470  1.00  0.00     0.193 C 
BRANCH  28  29
HETATM   29  O4  UNL     1      31.101   7.130  48.907  1.00  0.00    -0.394 OA
HETATM   30  C21 UNL     1      31.834   8.189  49.422  1.00  0.00     0.201 C 
ENDBRANCH  28  29
ENDBRANCH  27  28
ENDBRANCH  26  27
ENDBRANCH  20  26
ENDBRANCH   9  11
ENDBRANCH   7   9
TORSDOF 7
ENDMDL
MODEL 6
REMARK VINA RESULT:      -7.4      4.251      9.134
REMARK  7 active torsions:
REMARK  status: ('A' for Active; 'I' for Inactive)
REMARK    1  A    between atoms: C7_7  and  N1_8 
REMARK    2  A    between atoms: N1_8  and  C8_9 
REMARK    3  A    between atoms: C10_13  and  O1_14 
REMARK    4  A    between atoms: C18_23  and  O3_24 
REMARK    5  A    between atoms: O3_24  and  C19_25 
REMARK    6  A    between atoms: C19_25  and  C20_26 
REMARK    7  A    between atoms: C20_26  and  O4_27 
ROOT
HETATM    1  C1  UNL     1      21.243  -1.377  54.481  1.00  0.00     0.018 C 
HETATM    2  C2  UNL     1      22.174  -0.778  53.981  1.00  0.00    -0.078 C 
HETATM    3  C3  UNL     1      23.308  -0.075  53.386  1.00  0.00     0.019 A 
HETATM    4  C4  UNL     1      24.570  -0.085  53.907  1.00  0.00     0.021 A 
HETATM    5  C5  UNL     1      25.602   0.615  53.323  1.00  0.00     0.004 A 
HETATM    6  C6  UNL     1      25.343   1.341  52.180  1.00  0.00     0.029 A 
HETATM    7  C7  UNL     1      24.040   1.333  51.662  1.00  0.00     0.035 A 
HETATM    8  C22 UNL     1      22.976   0.627  52.244  1.00  0.00     0.050 A 
ENDROOT
BRANCH   7   9
HETATM    9  N1  UNL     1      23.890   2.113  50.470  1.00  0.00    -0.340 N 
HETATM   10  H5  UNL     1      24.017   1.557  49.575  1.00  0.00     0.167 HD
BRANCH   9  11
HETATM   11  C8  UNL     1      23.610   3.492  50.573  1.00  0.00     0.140 C 
HETATM   12  N2  UNL     1      22.600   3.976  51.172  1.00  0.00    -0.212 NA
HETATM   13  C9  UNL     1      22.221   5.339  51.334  1.00  0.00     0.297 C 
HETATM   14  N3  UNL     1      22.285   6.435  50.883  1.00  0.00    -0.407 NA
HETATM   15  C10 UNL     1      22.300   7.707  50.450  1.00  0.00     0.324 C 
HETATM   16  C12 UNL     1      22.966   7.901  49.095  1.00  0.00     0.244 C 
HETATM   17  O2  UNL     1      24.256   7.634  48.866  1.00  0.00    -0.343 OA
HETATM   18  C13 UNL     1      25.126   6.628  48.924  1.00  0.00     0.103 A 
HETATM   19  C14 UNL     1      24.584   5.508  49.481  1.00  0.00     0.055 A 
HETATM   20  C18 UNL     1      26.419   6.184  48.664  1.00  0.00     0.102 A 
HETATM   21  C15 UNL     1      24.642   4.233  49.911  1.00  0.00     0.013 A 
HETATM   22  C16 UNL     1      25.941   3.927  49.606  1.00  0.00     0.018 A 
HETATM   23  C17 UNL     1      26.781   4.876  49.005  1.00  0.00     0.040 A 
BRANCH  15  24
HETATM   24  O1  UNL     1      20.985   8.258  50.236  1.00  0.00    -0.358 OA
HETATM   25  C11 UNL     1      21.057   9.223  49.236  1.00  0.00     0.205 C 
ENDBRANCH  15  24
BRANCH  20  26
HETATM   26  O3  UNL     1      26.963   7.237  48.113  1.00  0.00    -0.346 OA
BRANCH  26  27
HETATM   27  C19 UNL     1      27.734   8.312  48.279  1.00  0.00     0.201 C 
BRANCH  27  28
HETATM   28  C20 UNL     1      27.757   8.999  49.618  1.00  0.00     0.193 C 
BRANCH  28  29
HETATM   29  O4  UNL     1      27.275  10.269  49.649  1.00  0.00    -0.394 OA
HETATM   30  C21 UNL     1      27.836  11.108  48.698  1.00  0.00     0.201 C 
ENDBRANCH  28  29
ENDBRANCH  27  28
ENDBRANCH  26  27
ENDBRANCH  20  26
ENDBRANCH   9  11
ENDBRANCH   7   9
TORSDOF 7
ENDMDL
MODEL 7
REMARK VINA RESULT:      -7.2      5.976      9.633
REMARK  7 active torsions:
REMARK  status: ('A' for Active; 'I' for Inactive)
REMARK    1  A    between atoms: C7_7  and  N1_8 
REMARK    2  A    between atoms: N1_8  and  C8_9 
REMARK    3  A    between atoms: C10_13  and  O1_14 
REMARK    4  A    between atoms: C18_23  and  O3_24 
REMARK    5  A    between atoms: O3_24  and  C19_25 
REMARK    6  A    between atoms: C19_25  and  C20_26 
REMARK    7  A    between atoms: C20_26  and  O4_27 
ROOT
HETATM    1  C1  UNL     1      32.023   0.240  46.709  1.00  0.00     0.018 C 
HETATM    2  C2  UNL     1      32.564   1.320  46.836  1.00  0.00    -0.078 C 
HETATM    3  C3  UNL     1      33.219   2.620  46.966  1.00  0.00     0.019 A 
HETATM    4  C4  UNL     1      34.338   2.982  46.273  1.00  0.00     0.021 A 
HETATM    5  C5  UNL     1      34.934   4.212  46.449  1.00  0.00     0.004 A 
HETATM    6  C6  UNL     1      34.376   5.093  47.351  1.00  0.00     0.029 A 
HETATM    7  C7  UNL     1      33.224   4.699  48.048  1.00  0.00     0.035 A 
HETATM    8  C22 UNL     1      32.605   3.450  47.881  1.00  0.00     0.050 A 
ENDROOT
BRANCH   7   9
HETATM    9  N1  UNL     1      32.728   5.695  48.948  1.00  0.00    -0.340 N 
HETATM   10  H5  UNL     1      32.873   5.458  49.972  1.00  0.00     0.167 HD
BRANCH   9  11
HETATM   11  C8  UNL     1      32.105   6.851  48.430  1.00  0.00     0.140 C 
HETATM   12  N2  UNL     1      32.728   7.888  48.042  1.00  0.00    -0.212 NA
HETATM   13  C9  UNL     1      32.206   9.101  47.509  1.00  0.00     0.297 C 
HETATM   14  N3  UNL     1      31.274   9.836  47.473  1.00  0.00    -0.407 NA
HETATM   15  C10 UNL     1      30.274  10.727  47.372  1.00  0.00     0.324 C 
HETATM   16  C12 UNL     1      29.083  10.439  48.275  1.00  0.00     0.244 C 
HETATM   17  O2  UNL     1      28.332   9.338  48.172  1.00  0.00    -0.343 OA
HETATM   18  C13 UNL     1      28.436   8.011  48.225  1.00  0.00     0.103 A 
HETATM   19  C14 UNL     1      29.732   7.599  48.326  1.00  0.00     0.055 A 
HETATM   20  C18 UNL     1      27.777   6.786  48.215  1.00  0.00     0.102 A 
HETATM   21  C15 UNL     1      30.687   6.653  48.409  1.00  0.00     0.013 A 
HETATM   22  C16 UNL     1      29.918   5.520  48.384  1.00  0.00     0.018 A 
HETATM   23  C17 UNL     1      28.520   5.603  48.292  1.00  0.00     0.040 A 
BRANCH  15  24
HETATM   24  O1  UNL     1      30.651  12.063  47.763  1.00  0.00    -0.358 OA
HETATM   25  C11 UNL     1      30.746  12.116  49.150  1.00  0.00     0.205 C 
ENDBRANCH  15  24
BRANCH  20  26
HETATM   26  O3  UNL     1      26.525   7.151  48.133  1.00  0.00    -0.346 OA
BRANCH  26  27
HETATM   27  C19 UNL     1      25.476   7.690  48.755  1.00  0.00     0.201 C 
BRANCH  27  28
HETATM   28  C20 UNL     1      25.159   7.267  50.164  1.00  0.00     0.193 C 
BRANCH  28  29
HETATM   29  O4  UNL     1      25.179   5.930  50.407  1.00  0.00    -0.394 OA
HETATM   30  C21 UNL     1      23.925   5.340  50.415  1.00  0.00     0.201 C 
ENDBRANCH  28  29
ENDBRANCH  27  28
ENDBRANCH  26  27
ENDBRANCH  20  26
ENDBRANCH   9  11
ENDBRANCH   7   9
TORSDOF 7
ENDMDL
MODEL 8
REMARK VINA RESULT:      -7.2      2.924      5.530
REMARK  7 active torsions:
REMARK  status: ('A' for Active; 'I' for Inactive)
REMARK    1  A    between atoms: C7_7  and  N1_8 
REMARK    2  A    between atoms: N1_8  and  C8_9 
REMARK    3  A    between atoms: C10_13  and  O1_14 
REMARK    4  A    between atoms: C18_23  and  O3_24 
REMARK    5  A    between atoms: O3_24  and  C19_25 
REMARK    6  A    between atoms: C19_25  and  C20_26 
REMARK    7  A    between atoms: C20_26  and  O4_27 
ROOT
HETATM    1  C1  UNL     1      22.503   6.334  45.386  1.00  0.00     0.018 C 
HETATM    2  C2  UNL     1      22.408   6.444  46.592  1.00  0.00    -0.078 C 
HETATM    3  C3  UNL     1      22.271   6.581  48.040  1.00  0.00     0.019 A 
HETATM    4  C4  UNL     1      21.453   7.490  48.646  1.00  0.00     0.021 A 
HETATM    5  C5  UNL     1      21.377   7.597  50.018  1.00  0.00     0.004 A 
HETATM    6  C6  UNL     1      22.152   6.757  50.789  1.00  0.00     0.029 A 
HETATM    7  C7  UNL     1      22.981   5.829  50.144  1.00  0.00     0.035 A 
HETATM    8  C22 UNL     1      23.072   5.707  48.748  1.00  0.00     0.050 A 
ENDROOT
BRANCH   7   9
HETATM    9  N1  UNL     1      23.731   5.005  51.042  1.00  0.00    -0.340 N 
HETATM   10  H5  UNL     1      24.579   5.487  51.460  1.00  0.00     0.167 HD
BRANCH   9  11
HETATM   11  C8  UNL     1      23.312   3.679  51.281  1.00  0.00     0.140 C 
HETATM   12  N2  UNL     1      22.099   3.304  51.308  1.00  0.00    -0.212 NA
HETATM   13  C9  UNL     1      21.566   2.004  51.541  1.00  0.00     0.297 C 
HETATM   14  N3  UNL     1      21.741   0.950  52.059  1.00  0.00    -0.407 NA
HETATM   15  C10 UNL     1      21.850  -0.271  52.609  1.00  0.00     0.324 C 
HETATM   16  C12 UNL     1      23.071  -0.452  53.498  1.00  0.00     0.244 C 
HETATM   17  O2  UNL     1      24.327  -0.363  53.049  1.00  0.00    -0.343 OA
HETATM   18  C13 UNL     1      25.146   0.495  52.443  1.00  0.00     0.103 A 
HETATM   19  C14 UNL     1      24.506   1.635  52.056  1.00  0.00     0.055 A 
HETATM   20  C18 UNL     1      26.436   0.761  51.995  1.00  0.00     0.102 A 
HETATM   21  C15 UNL     1      24.463   2.848  51.474  1.00  0.00     0.013 A 
HETATM   22  C16 UNL     1      25.768   2.981  51.080  1.00  0.00     0.018 A 
HETATM   23  C17 UNL     1      26.703   1.968  51.340  1.00  0.00     0.040 A 
BRANCH  15  24
HETATM   24  O1  UNL     1      20.761  -0.601  53.495  1.00  0.00    -0.358 OA
HETATM   25  C11 UNL     1      21.242  -1.420  54.513  1.00  0.00     0.205 C 
ENDBRANCH  15  24
BRANCH  20  26
HETATM   26  O3  UNL     1      27.081  -0.314  52.366  1.00  0.00    -0.346 OA
BRANCH  26  27
HETATM   27  C19 UNL     1      28.072  -0.825  53.097  1.00  0.00     0.201 C 
BRANCH  27  28
HETATM   28  C20 UNL     1      28.510  -0.106  54.345  1.00  0.00     0.193 C 
BRANCH  28  29
HETATM   29  O4  UNL     1      29.537   0.772  54.202  1.00  0.00    -0.394 OA
HETATM   30  C21 UNL     1      29.141   2.100  54.161  1.00  0.00     0.201 C 
ENDBRANCH  28  29
ENDBRANCH  27  28
ENDBRANCH  26  27
ENDBRANCH  20  26
ENDBRANCH   9  11
ENDBRANCH   7   9
TORSDOF 7
ENDMDL
MODEL 9
REMARK VINA RESULT:      -7.2      5.289      9.698
REMARK  7 active torsions:
REMARK  status: ('A' for Active; 'I' for Inactive)
REMARK    1  A    between atoms: C7_7  and  N1_8 
REMARK    2  A    between atoms: N1_8  and  C8_9 
REMARK    3  A    between atoms: C10_13  and  O1_14 
REMARK    4  A    between atoms: C18_23  and  O3_24 
REMARK    5  A    between atoms: O3_24  and  C19_25 
REMARK    6  A    between atoms: C19_25  and  C20_26 
REMARK    7  A    between atoms: C20_26  and  O4_27 
ROOT
HETATM    1  C1  UNL     1      26.324   0.639  52.330  1.00  0.00     0.018 C 
HETATM    2  C2  UNL     1      25.705   1.664  52.127  1.00  0.00    -0.078 C 
HETATM    3  C3  UNL     1      24.959   2.902  51.907  1.00  0.00     0.019 A 
HETATM    4  C4  UNL     1      24.004   3.378  52.757  1.00  0.00     0.021 A 
HETATM    5  C5  UNL     1      23.310   4.538  52.493  1.00  0.00     0.004 A 
HETATM    6  C6  UNL     1      23.598   5.230  51.335  1.00  0.00     0.029 A 
HETATM    7  C7  UNL     1      24.586   4.723  50.479  1.00  0.00     0.035 A 
HETATM    8  C22 UNL     1      25.302   3.542  50.733  1.00  0.00     0.050 A 
ENDROOT
BRANCH   7   9
HETATM    9  N1  UNL     1      24.808   5.527  49.315  1.00  0.00    -0.340 N 
HETATM   10  H5  UNL     1      24.335   5.155  48.441  1.00  0.00     0.167 HD
BRANCH   9  11
HETATM   11  C8  UNL     1      25.607   6.685  49.414  1.00  0.00     0.140 C 
HETATM   12  N2  UNL     1      25.223   7.780  49.932  1.00  0.00    -0.212 NA
HETATM   13  C9  UNL     1      25.938   9.002  50.081  1.00  0.00     0.297 C 
HETATM   14  N3  UNL     1      26.807   9.689  49.652  1.00  0.00    -0.407 NA
HETATM   15  C10 UNL     1      27.768  10.532  49.240  1.00  0.00     0.324 C 
HETATM   16  C12 UNL     1      28.458  10.115  47.949  1.00  0.00     0.244 C 
HETATM   17  O2  UNL     1      29.167   8.988  47.826  1.00  0.00    -0.343 OA
HETATM   18  C13 UNL     1      29.031   7.668  47.943  1.00  0.00     0.103 A 
HETATM   19  C14 UNL     1      27.810   7.316  48.437  1.00  0.00     0.055 A 
HETATM   20  C18 UNL     1      29.615   6.415  47.787  1.00  0.00     0.102 A 
HETATM   21  C15 UNL     1      26.897   6.417  48.852  1.00  0.00     0.013 A 
HETATM   22  C16 UNL     1      27.589   5.252  48.654  1.00  0.00     0.018 A 
HETATM   23  C17 UNL     1      28.894   5.269  48.140  1.00  0.00     0.040 A 
BRANCH  15  24
HETATM   24  O1  UNL     1      27.279  11.852  48.924  1.00  0.00    -0.358 OA
HETATM   25  C11 UNL     1      26.678  11.821  47.669  1.00  0.00     0.205 C 
ENDBRANCH  15  24
BRANCH  20  26
HETATM   26  O3  UNL     1      30.788   6.720  47.299  1.00  0.00    -0.346 OA
BRANCH  26  27
HETATM   27  C19 UNL     1      32.104   6.781  47.509  1.00  0.00     0.201 C 
BRANCH  27  28
HETATM   28  C20 UNL     1      32.758   5.741  48.377  1.00  0.00     0.193 C 
BRANCH  28  29
HETATM   29  O4  UNL     1      33.440   4.761  47.728  1.00  0.00    -0.394 OA
HETATM   30  C21 UNL     1      32.793   3.534  47.720  1.00  0.00     0.201 C 
ENDBRANCH  28  29
ENDBRANCH  27  28
ENDBRANCH  26  27
ENDBRANCH  20  26
ENDBRANCH   9  11
ENDBRANCH   7   9
TORSDOF 7
ENDMDL
