MODEL 1
REMARK VINA RESULT:      -7.1      0.000      0.000
REMARK  4 active torsions:
REMARK  status: ('A' for Active; 'I' for Inactive)
REMARK    1  A    between atoms: N1_7  and  C5_8 
REMARK    2  A    between atoms: C5_8  and  C6_9 
REMARK    3  A    between atoms: C6_9  and  C7_10 
REMARK    4  A    between atoms: C7_10  and  S1_11 
ROOT
HETATM    1  S1  UNL     1      23.520   1.391  52.068  1.00  0.00    -0.212 SA
HETATM    2  C8  UNL     1      23.351  -0.170  52.986  1.00  0.00     0.232 C 
HETATM    3  N2  UNL     1      22.641  -0.827  53.688  1.00  0.00    -0.338 NA
HETATM    4  N3  UNL     1      21.936  -1.600  54.450  1.00  0.00    -0.269 N 
HETATM    5  C9  UNL     1      20.669  -0.867  54.046  1.00  0.00     0.181 C 
HETATM    6  C10 UNL     1      21.021   0.536  54.235  1.00  0.00    -0.005 C 
HETATM    7  C11 UNL     1      21.232   0.882  53.026  1.00  0.00    -0.003 C 
HETATM    8  C12 UNL     1      21.119   0.140  51.837  1.00  0.00    -0.004 C 
HETATM    9  C13 UNL     1      21.478   0.531  50.656  1.00  0.00    -0.018 C 
HETATM   10  C14 UNL     1      21.903   1.713  51.376  1.00  0.00     0.085 C 
HETATM   11  H13 UNL     1      24.571   1.029  50.801  1.00  0.00     0.088 HD
HETATM   12  H15 UNL     1      22.570  -2.303  54.932  1.00  0.00     0.195 HD
ENDROOT
BRANCH   1  13
HETATM   13  C7  UNL     1      24.180   2.755  53.021  1.00  0.00     0.060 C 
BRANCH  13  14
HETATM   14  C6  UNL     1      25.413   2.356  53.755  1.00  0.00     0.029 C 
BRANCH  14  15
HETATM   15  C5  UNL     1      26.560   2.170  52.825  1.00  0.00     0.126 C 
BRANCH  15  16
HETATM   16  N1  UNL     1      27.124   0.838  52.823  1.00  0.00    -0.348 N 
HETATM   17  C1  UNL     1      28.209   0.609  53.737  1.00  0.00     0.243 C 
HETATM   18  O1  UNL     1      28.613   1.562  54.492  1.00  0.00    -0.271 OA
HETATM   19  C2  UNL     1      29.019  -0.610  54.002  1.00  0.00     0.270 C 
HETATM   20  O2  UNL     1      28.529  -1.678  53.260  1.00  0.00    -0.380 OA
HETATM   21  C3  UNL     1      27.177  -1.546  53.061  1.00  0.00     0.188 C 
HETATM   22  C4  UNL     1      26.863  -0.383  52.107  1.00  0.00     0.152 C 
ENDBRANCH  15  16
ENDBRANCH  14  15
ENDBRANCH  13  14
ENDBRANCH   1  13
TORSDOF 4
ENDMDL
MODEL 2
REMARK VINA RESULT:      -7.0      2.769      4.676
REMARK  4 active torsions:
REMARK  status: ('A' for Active; 'I' for Inactive)
REMARK    1  A    between atoms: N1_7  and  C5_8 
REMARK    2  A    between atoms: C5_8  and  C6_9 
REMARK    3  A    between atoms: C6_9  and  C7_10 
REMARK    4  A    between atoms: C7_10  and  S1_11 
ROOT
HETATM    1  S1  UNL     1      23.311   2.971  51.754  1.00  0.00    -0.212 SA
HETATM    2  C8  UNL     1      23.994   4.631  51.461  1.00  0.00     0.232 C 
HETATM    3  N2  UNL     1      24.804   5.270  50.858  1.00  0.00    -0.338 NA
HETATM    4  N3  UNL     1      25.651   6.033  50.246  1.00  0.00    -0.269 N 
HETATM    5  C9  UNL     1      25.846   4.980  49.170  1.00  0.00     0.181 C 
HETATM    6  C10 UNL     1      26.092   3.763  49.936  1.00  0.00    -0.005 C 
HETATM    7  C11 UNL     1      24.953   3.199  49.840  1.00  0.00    -0.003 C 
HETATM    8  C12 UNL     1      23.793   3.607  49.157  1.00  0.00    -0.004 C 
HETATM    9  C13 UNL     1      22.632   3.038  49.217  1.00  0.00    -0.018 C 
HETATM   10  C14 UNL     1      23.310   2.168  50.156  1.00  0.00     0.085 C 
HETATM   11  H13 UNL     1      21.711   3.241  52.209  1.00  0.00     0.088 HD
HETATM   12  H15 UNL     1      25.763   6.945  50.780  1.00  0.00     0.195 HD
ENDROOT
BRANCH   1  13
HETATM   13  C7  UNL     1      24.144   2.031  53.031  1.00  0.00     0.060 C 
BRANCH  13  14
HETATM   14  C6  UNL     1      24.488   0.662  52.556  1.00  0.00     0.029 C 
BRANCH  14  15
HETATM   15  C5  UNL     1      25.893   0.594  52.072  1.00  0.00     0.126 C 
BRANCH  15  16
HETATM   16  N1  UNL     1      26.883   1.035  53.031  1.00  0.00    -0.348 N 
HETATM   17  C1  UNL     1      27.502   0.006  53.820  1.00  0.00     0.243 C 
HETATM   18  O1  UNL     1      27.164  -1.218  53.643  1.00  0.00    -0.271 OA
HETATM   19  C2  UNL     1      28.537   0.084  54.885  1.00  0.00     0.270 C 
HETATM   20  O2  UNL     1      28.983   1.393  55.020  1.00  0.00    -0.380 OA
HETATM   21  C3  UNL     1      28.903   2.056  53.820  1.00  0.00     0.188 C 
HETATM   22  C4  UNL     1      27.442   2.304  53.415  1.00  0.00     0.152 C 
ENDBRANCH  15  16
ENDBRANCH  14  15
ENDBRANCH  13  14
ENDBRANCH   1  13
TORSDOF 4
ENDMDL
MODEL 3
REMARK VINA RESULT:      -6.9      3.220      6.611
REMARK  4 active torsions:
REMARK  status: ('A' for Active; 'I' for Inactive)
REMARK    1  A    between atoms: N1_7  and  C5_8 
REMARK    2  A    between atoms: C5_8  and  C6_9 
REMARK    3  A    between atoms: C6_9  and  C7_10 
REMARK    4  A    between atoms: C7_10  and  S1_11 
ROOT
HETATM    1  S1  UNL     1      24.886   0.612  53.546  1.00  0.00    -0.212 SA
HETATM    2  C8  UNL     1      26.311   0.403  54.658  1.00  0.00     0.232 C 
HETATM    3  N2  UNL     1      27.423  -0.022  54.764  1.00  0.00    -0.338 NA
HETATM    4  N3  UNL     1      28.626  -0.455  54.963  1.00  0.00    -0.269 N 
HETATM    5  C9  UNL     1      28.877  -0.488  53.466  1.00  0.00     0.181 C 
HETATM    6  C10 UNL     1      27.716  -1.206  52.950  1.00  0.00    -0.005 C 
HETATM    7  C11 UNL     1      27.030  -0.233  52.496  1.00  0.00    -0.003 C 
HETATM    8  C12 UNL     1      27.320   1.143  52.460  1.00  0.00    -0.004 C 
HETATM    9  C13 UNL     1      26.509   2.084  52.097  1.00  0.00    -0.018 C 
HETATM   10  C14 UNL     1      25.586   0.980  51.942  1.00  0.00     0.085 C 
HETATM   11  H13 UNL     1      24.105   1.995  54.109  1.00  0.00     0.088 HD
HETATM   12  H15 UNL     1      28.804  -0.554  56.006  1.00  0.00     0.195 HD
ENDROOT
BRANCH   1  13
HETATM   13  C7  UNL     1      23.737  -0.761  53.533  1.00  0.00     0.060 C 
BRANCH  13  14
HETATM   14  C6  UNL     1      22.326  -0.285  53.508  1.00  0.00     0.029 C 
BRANCH  14  15
HETATM   15  C5  UNL     1      21.952   0.230  52.163  1.00  0.00     0.126 C 
BRANCH  15  16
HETATM   16  N1  UNL     1      20.890   1.212  52.168  1.00  0.00    -0.348 N 
HETATM   17  C1  UNL     1      21.298   2.586  52.063  1.00  0.00     0.243 C 
HETATM   18  O1  UNL     1      22.544   2.871  51.969  1.00  0.00    -0.271 OA
HETATM   19  C2  UNL     1      20.500   3.841  52.041  1.00  0.00     0.270 C 
HETATM   20  O2  UNL     1      19.143   3.542  52.044  1.00  0.00    -0.380 OA
HETATM   21  C3  UNL     1      18.913   2.341  51.420  1.00  0.00     0.188 C 
HETATM   22  C4  UNL     1      19.454   1.167  52.249  1.00  0.00     0.152 C 
ENDBRANCH  15  16
ENDBRANCH  14  15
ENDBRANCH  13  14
ENDBRANCH   1  13
TORSDOF 4
ENDMDL
MODEL 4
REMARK VINA RESULT:      -6.9      3.689      5.461
REMARK  4 active torsions:
REMARK  status: ('A' for Active; 'I' for Inactive)
REMARK    1  A    between atoms: N1_7  and  C5_8 
REMARK    2  A    between atoms: C5_8  and  C6_9 
REMARK    3  A    between atoms: C6_9  and  C7_10 
REMARK    4  A    between atoms: C7_10  and  S1_11 
ROOT
HETATM    1  S1  UNL     1      23.518   4.641  51.132  1.00  0.00    -0.212 SA
HETATM    2  C8  UNL     1      24.557   6.126  50.974  1.00  0.00     0.232 C 
HETATM    3  N2  UNL     1      25.489   6.620  50.412  1.00  0.00    -0.338 NA
HETATM    4  N3  UNL     1      26.485   7.227  49.853  1.00  0.00    -0.269 N 
HETATM    5  C9  UNL     1      26.436   6.261  48.682  1.00  0.00     0.181 C 
HETATM    6  C10 UNL     1      26.403   4.954  49.329  1.00  0.00    -0.005 C 
HETATM    7  C11 UNL     1      25.166   4.672  49.209  1.00  0.00    -0.003 C 
HETATM    8  C12 UNL     1      24.127   5.391  48.592  1.00  0.00    -0.004 C 
HETATM    9  C13 UNL     1      22.868   5.093  48.626  1.00  0.00    -0.018 C 
HETATM   10  C14 UNL     1      23.333   4.011  49.469  1.00  0.00     0.085 C 
HETATM   11  H13 UNL     1      22.021   5.220  51.644  1.00  0.00     0.088 HD
HETATM   12  H15 UNL     1      26.800   8.037  50.464  1.00  0.00     0.195 HD
ENDROOT
BRANCH   1  13
HETATM   13  C7  UNL     1      24.120   3.424  52.300  1.00  0.00     0.060 C 
BRANCH  13  14
HETATM   14  C6  UNL     1      24.506   2.161  51.613  1.00  0.00     0.029 C 
BRANCH  14  15
HETATM   15  C5  UNL     1      25.979   1.949  51.656  1.00  0.00     0.126 C 
BRANCH  15  16
HETATM   16  N1  UNL     1      26.435   1.110  52.744  1.00  0.00    -0.348 N 
HETATM   17  C1  UNL     1      27.743   1.401  53.262  1.00  0.00     0.243 C 
HETATM   18  O1  UNL     1      28.425   2.362  52.757  1.00  0.00    -0.271 OA
HETATM   19  C2  UNL     1      28.525   0.759  54.352  1.00  0.00     0.270 C 
HETATM   20  O2  UNL     1      27.760  -0.221  54.972  1.00  0.00    -0.380 OA
HETATM   21  C3  UNL     1      26.426   0.102  54.918  1.00  0.00     0.188 C 
HETATM   22  C4  UNL     1      25.885   0.005  53.483  1.00  0.00     0.152 C 
ENDBRANCH  15  16
ENDBRANCH  14  15
ENDBRANCH  13  14
ENDBRANCH   1  13
TORSDOF 4
ENDMDL
MODEL 5
REMARK VINA RESULT:      -6.9      3.935      6.087
REMARK  4 active torsions:
REMARK  status: ('A' for Active; 'I' for Inactive)
REMARK    1  A    between atoms: N1_7  and  C5_8 
REMARK    2  A    between atoms: C5_8  and  C6_9 
REMARK    3  A    between atoms: C6_9  and  C7_10 
REMARK    4  A    between atoms: C7_10  and  S1_11 
ROOT
HETATM    1  S1  UNL     1      25.482   0.717  52.273  1.00  0.00    -0.212 SA
HETATM    2  C8  UNL     1      27.113   1.523  52.298  1.00  0.00     0.232 C 
HETATM    3  N2  UNL     1      28.125   1.678  52.914  1.00  0.00    -0.338 NA
HETATM    4  N3  UNL     1      29.249   1.899  53.515  1.00  0.00    -0.269 N 
HETATM    5  C9  UNL     1      29.052   0.660  54.371  1.00  0.00     0.181 C 
HETATM    6  C10 UNL     1      27.692   0.819  54.877  1.00  0.00    -0.005 C 
HETATM    7  C11 UNL     1      27.070   0.008  54.115  1.00  0.00    -0.003 C 
HETATM    8  C12 UNL     1      27.554  -0.835  53.099  1.00  0.00    -0.004 C 
HETATM    9  C13 UNL     1      26.836  -1.536  52.282  1.00  0.00    -0.018 C 
HETATM   10  C14 UNL     1      25.742  -0.902  52.988  1.00  0.00     0.085 C 
HETATM   11  H13 UNL     1      25.128   0.519  50.638  1.00  0.00     0.088 HD
HETATM   12  H15 UNL     1      29.700   2.776  53.122  1.00  0.00     0.195 HD
ENDROOT
BRANCH   1  13
HETATM   13  C7  UNL     1      24.173   1.650  53.061  1.00  0.00     0.060 C 
BRANCH  13  14
HETATM   14  C6  UNL     1      24.403   3.116  52.937  1.00  0.00     0.029 C 
BRANCH  14  15
HETATM   15  C5  UNL     1      23.702   3.675  51.749  1.00  0.00     0.126 C 
BRANCH  15  16
HETATM   16  N1  UNL     1      24.576   4.092  50.675  1.00  0.00    -0.348 N 
HETATM   17  C1  UNL     1      24.804   5.506  50.557  1.00  0.00     0.243 C 
HETATM   18  O1  UNL     1      24.246   6.309  51.385  1.00  0.00    -0.271 OA
HETATM   19  C2  UNL     1      25.624   6.284  49.591  1.00  0.00     0.270 C 
HETATM   20  O2  UNL     1      26.313   5.420  48.748  1.00  0.00    -0.380 OA
HETATM   21  C3  UNL     1      26.595   4.241  49.392  1.00  0.00     0.188 C 
HETATM   22  C4  UNL     1      25.320   3.421  49.641  1.00  0.00     0.152 C 
ENDBRANCH  15  16
ENDBRANCH  14  15
ENDBRANCH  13  14
ENDBRANCH   1  13
TORSDOF 4
ENDMDL
MODEL 6
REMARK VINA RESULT:      -6.5      3.285      6.030
REMARK  4 active torsions:
REMARK  status: ('A' for Active; 'I' for Inactive)
REMARK    1  A    between atoms: N1_7  and  C5_8 
REMARK    2  A    between atoms: C5_8  and  C6_9 
REMARK    3  A    between atoms: C6_9  and  C7_10 
REMARK    4  A    between atoms: C7_10  and  S1_11 
ROOT
HETATM    1  S1  UNL     1      24.806   1.460  53.232  1.00  0.00    -0.212 SA
HETATM    2  C8  UNL     1      26.144   1.114  54.415  1.00  0.00     0.232 C 
HETATM    3  N2  UNL     1      27.134   0.478  54.623  1.00  0.00    -0.338 NA
HETATM    4  N3  UNL     1      28.212  -0.170  54.927  1.00  0.00    -0.269 N 
HETATM    5  C9  UNL     1      28.458  -0.478  53.461  1.00  0.00     0.181 C 
HETATM    6  C10 UNL     1      27.170  -0.996  53.009  1.00  0.00    -0.005 C 
HETATM    7  C11 UNL     1      26.718   0.025  52.395  1.00  0.00    -0.003 C 
HETATM    8  C12 UNL     1      27.303   1.284  52.174  1.00  0.00    -0.004 C 
HETATM    9  C13 UNL     1      26.721   2.314  51.649  1.00  0.00    -0.018 C 
HETATM   10  C14 UNL     1      25.578   1.426  51.619  1.00  0.00     0.085 C 
HETATM   11  H13 UNL     1      24.345   3.047  53.561  1.00  0.00     0.088 HD
HETATM   12  H15 UNL     1      28.358  -0.150  55.979  1.00  0.00     0.195 HD
ENDROOT
BRANCH   1  13
HETATM   13  C7  UNL     1      23.383   0.382  53.372  1.00  0.00     0.060 C 
BRANCH  13  14
HETATM   14  C6  UNL     1      22.485   0.517  52.192  1.00  0.00     0.029 C 
BRANCH  14  15
HETATM   15  C5  UNL     1      21.861   1.867  52.138  1.00  0.00     0.126 C 
BRANCH  15  16
HETATM   16  N1  UNL     1      22.240   2.660  50.989  1.00  0.00    -0.348 N 
HETATM   17  C1  UNL     1      22.585   4.031  51.251  1.00  0.00     0.243 C 
HETATM   18  O1  UNL     1      22.547   4.474  52.452  1.00  0.00    -0.271 OA
HETATM   19  C2  UNL     1      23.010   5.121  50.334  1.00  0.00     0.270 C 
HETATM   20  O2  UNL     1      23.149   4.629  49.041  1.00  0.00    -0.380 OA
HETATM   21  C3  UNL     1      23.517   3.307  49.066  1.00  0.00     0.188 C 
HETATM   22  C4  UNL     1      22.373   2.417  49.576  1.00  0.00     0.152 C 
ENDBRANCH  15  16
ENDBRANCH  14  15
ENDBRANCH  13  14
ENDBRANCH   1  13
TORSDOF 4
ENDMDL
MODEL 7
REMARK VINA RESULT:      -6.4      3.894      7.012
REMARK  4 active torsions:
REMARK  status: ('A' for Active; 'I' for Inactive)
REMARK    1  A    between atoms: N1_7  and  C5_8 
REMARK    2  A    between atoms: C5_8  and  C6_9 
REMARK    3  A    between atoms: C6_9  and  C7_10 
REMARK    4  A    between atoms: C7_10  and  S1_11 
ROOT
HETATM    1  S1  UNL     1      24.709   1.356  53.241  1.00  0.00    -0.212 SA
HETATM    2  C8  UNL     1      26.088   0.952  54.357  1.00  0.00     0.232 C 
HETATM    3  N2  UNL     1      27.075   0.295  54.503  1.00  0.00    -0.338 NA
HETATM    4  N3  UNL     1      28.154  -0.379  54.742  1.00  0.00    -0.269 N 
HETATM    5  C9  UNL     1      28.335  -0.643  53.257  1.00  0.00     0.181 C 
HETATM    6  C10 UNL     1      27.022  -1.127  52.843  1.00  0.00    -0.005 C 
HETATM    7  C11 UNL     1      26.561  -0.080  52.281  1.00  0.00    -0.003 C 
HETATM    8  C12 UNL     1      27.157   1.178  52.076  1.00  0.00    -0.004 C 
HETATM    9  C13 UNL     1      26.571   2.233  51.609  1.00  0.00    -0.018 C 
HETATM   10  C14 UNL     1      25.414   1.363  51.598  1.00  0.00     0.085 C 
HETATM   11  H13 UNL     1      24.287   2.938  53.640  1.00  0.00     0.088 HD
HETATM   12  H15 UNL     1      28.343  -0.396  55.787  1.00  0.00     0.195 HD
ENDROOT
BRANCH   1  13
HETATM   13  C7  UNL     1      23.275   0.295  53.405  1.00  0.00     0.060 C 
BRANCH  13  14
HETATM   14  C6  UNL     1      22.395   0.388  52.208  1.00  0.00     0.029 C 
BRANCH  14  15
HETATM   15  C5  UNL     1      21.555   1.616  52.248  1.00  0.00     0.126 C 
BRANCH  15  16
HETATM   16  N1  UNL     1      20.188   1.426  51.813  1.00  0.00    -0.348 N 
HETATM   17  C1  UNL     1      19.339   2.584  51.871  1.00  0.00     0.243 C 
HETATM   18  O1  UNL     1      19.814   3.698  52.288  1.00  0.00    -0.271 OA
HETATM   19  C2  UNL     1      17.905   2.759  51.516  1.00  0.00     0.270 C 
HETATM   20  O2  UNL     1      17.402   1.583  50.971  1.00  0.00    -0.380 OA
HETATM   21  C3  UNL     1      18.393   0.893  50.318  1.00  0.00     0.188 C 
HETATM   22  C4  UNL     1      19.420   0.320  51.306  1.00  0.00     0.152 C 
ENDBRANCH  15  16
ENDBRANCH  14  15
ENDBRANCH  13  14
ENDBRANCH   1  13
TORSDOF 4
ENDMDL
MODEL 8
REMARK VINA RESULT:      -6.4      2.219      2.807
REMARK  4 active torsions:
REMARK  status: ('A' for Active; 'I' for Inactive)
REMARK    1  A    between atoms: N1_7  and  C5_8 
REMARK    2  A    between atoms: C5_8  and  C6_9 
REMARK    3  A    between atoms: C6_9  and  C7_10 
REMARK    4  A    between atoms: C7_10  and  S1_11 
ROOT
HETATM    1  S1  UNL     1      22.200   1.862  52.778  1.00  0.00    -0.212 SA
HETATM    2  C8  UNL     1      20.460   2.358  52.589  1.00  0.00     0.232 C 
HETATM    3  N2  UNL     1      19.431   2.143  52.021  1.00  0.00    -0.338 NA
HETATM    4  N3  UNL     1      18.281   1.976  51.451  1.00  0.00    -0.269 N 
HETATM    5  C9  UNL     1      18.671   0.566  51.044  1.00  0.00     0.181 C 
HETATM    6  C10 UNL     1      19.982   0.747  50.430  1.00  0.00    -0.005 C 
HETATM    7  C11 UNL     1      20.734   0.344  51.378  1.00  0.00    -0.003 C 
HETATM    8  C12 UNL     1      20.401  -0.170  52.644  1.00  0.00    -0.004 C 
HETATM    9  C13 UNL     1      21.230  -0.437  53.601  1.00  0.00    -0.018 C 
HETATM   10  C14 UNL     1      22.201   0.078  52.658  1.00  0.00     0.085 C 
HETATM   11  H13 UNL     1      22.595   2.283  54.361  1.00  0.00     0.088 HD
HETATM   12  H15 UNL     1      17.697   2.857  51.559  1.00  0.00     0.195 HD
ENDROOT
BRANCH   1  13
HETATM   13  C7  UNL     1      23.335   2.660  51.645  1.00  0.00     0.060 C 
BRANCH  13  14
HETATM   14  C6  UNL     1      24.538   1.817  51.402  1.00  0.00     0.029 C 
BRANCH  14  15
HETATM   15  C5  UNL     1      25.712   2.315  52.170  1.00  0.00     0.126 C 
BRANCH  15  16
HETATM   16  N1  UNL     1      26.316   1.337  53.048  1.00  0.00    -0.348 N 
HETATM   17  C1  UNL     1      27.719   1.504  53.312  1.00  0.00     0.243 C 
HETATM   18  O1  UNL     1      28.352   2.482  52.778  1.00  0.00    -0.271 OA
HETATM   19  C2  UNL     1      28.655   0.705  54.146  1.00  0.00     0.270 C 
HETATM   20  O2  UNL     1      27.963  -0.302  54.809  1.00  0.00    -0.380 OA
HETATM   21  C3  UNL     1      26.672   0.089  55.063  1.00  0.00     0.188 C 
HETATM   22  C4  UNL     1      25.849   0.182  53.769  1.00  0.00     0.152 C 
ENDBRANCH  15  16
ENDBRANCH  14  15
ENDBRANCH  13  14
ENDBRANCH   1  13
TORSDOF 4
ENDMDL
MODEL 9
REMARK VINA RESULT:      -6.2      3.240      4.342
REMARK  4 active torsions:
REMARK  status: ('A' for Active; 'I' for Inactive)
REMARK    1  A    between atoms: N1_7  and  C5_8 
REMARK    2  A    between atoms: C5_8  and  C6_9 
REMARK    3  A    between atoms: C6_9  and  C7_10 
REMARK    4  A    between atoms: C7_10  and  S1_11 
ROOT
HETATM    1  S1  UNL     1      22.808   2.592  51.195  1.00  0.00    -0.212 SA
HETATM    2  C8  UNL     1      21.851   4.117  51.456  1.00  0.00     0.232 C 
HETATM    3  N2  UNL     1      21.884   5.312  51.460  1.00  0.00    -0.338 NA
HETATM    4  N3  UNL     1      21.834   6.605  51.488  1.00  0.00    -0.269 N 
HETATM    5  C9  UNL     1      23.089   6.686  50.636  1.00  0.00     0.181 C 
HETATM    6  C10 UNL     1      24.014   5.787  51.319  1.00  0.00    -0.005 C 
HETATM    7  C11 UNL     1      23.942   4.766  50.559  1.00  0.00    -0.003 C 
HETATM    8  C12 UNL     1      23.212   4.567  49.373  1.00  0.00    -0.004 C 
HETATM    9  C13 UNL     1      23.093   3.451  48.728  1.00  0.00    -0.018 C 
HETATM   10  C14 UNL     1      23.897   2.945  49.821  1.00  0.00     0.085 C 
HETATM   11  H13 UNL     1      21.671   1.457  50.687  1.00  0.00     0.088 HD
HETATM   12  H15 UNL     1      20.994   6.919  52.055  1.00  0.00     0.195 HD
ENDROOT
BRANCH   1  13
HETATM   13  C7  UNL     1      23.657   1.981  52.648  1.00  0.00     0.060 C 
BRANCH  13  14
HETATM   14  C6  UNL     1      24.705   0.988  52.283  1.00  0.00     0.029 C 
BRANCH  14  15
HETATM   15  C5  UNL     1      25.339   0.401  53.495  1.00  0.00     0.126 C 
BRANCH  15  16
HETATM   16  N1  UNL     1      26.771   0.223  53.400  1.00  0.00    -0.348 N 
HETATM   17  C1  UNL     1      27.577   1.325  53.848  1.00  0.00     0.243 C 
HETATM   18  O1  UNL     1      27.011   2.381  54.303  1.00  0.00    -0.271 OA
HETATM   19  C2  UNL     1      29.054   1.497  53.894  1.00  0.00     0.270 C 
HETATM   20  O2  UNL     1      29.683   0.324  53.495  1.00  0.00    -0.380 OA
HETATM   21  C3  UNL     1      28.914  -0.768  53.815  1.00  0.00     0.188 C 
HETATM   22  C4  UNL     1      27.644  -0.830  52.952  1.00  0.00     0.152 C 
ENDBRANCH  15  16
ENDBRANCH  14  15
ENDBRANCH  13  14
ENDBRANCH   1  13
TORSDOF 4
ENDMDL
