MODEL 1
REMARK VINA RESULT:      -7.6      0.000      0.000
REMARK  8 active torsions:
REMARK  status: ('A' for Active; 'I' for Inactive)
REMARK    1  A    between atoms: C7_7  and  C8_8 
REMARK    2  A    between atoms: C8_8  and  N1_10 
REMARK    3  A    between atoms: N1_10  and  C10_11 
REMARK    4  A    between atoms: C12_13  and  N2_14 
REMARK    5  A    between atoms: N2_14  and  C13_15 
REMARK    6  A    between atoms: C15_17  and  C16_18 
REMARK    7  A    between atoms: C16_18  and  C17_19 
REMARK    8  A    between atoms: C17_19  and  O1_20 
ROOT
HETATM    1  C10 UNL     1      24.332   2.694  50.938  1.00  0.00     0.129 A 
HETATM    2  C11 UNL     1      25.319   2.414  51.853  1.00  0.00     0.100 A 
HETATM    3  C12 UNL     1      26.626   2.700  51.586  1.00  0.00     0.133 A 
HETATM    4  N3  UNL     1      26.979   3.259  50.428  1.00  0.00    -0.224 NA
HETATM    5  C18 UNL     1      26.044   3.541  49.522  1.00  0.00     0.237 A 
HETATM    6  N4  UNL     1      24.744   3.260  49.780  1.00  0.00    -0.225 NA
ENDROOT
BRANCH   1   7
HETATM    7  N1  UNL     1      22.951   2.411  51.175  1.00  0.00    -0.366 N 
HETATM    8  H12 UNL     1      22.332   3.233  51.353  1.00  0.00     0.161 HD
BRANCH   7   9
HETATM    9  C8  UNL     1      22.519   1.027  51.153  1.00  0.00     0.113 C 
HETATM   10  C9  UNL     1      21.503   0.770  50.075  1.00  0.00     0.037 C 
BRANCH   9  11
HETATM   11  C7  UNL     1      22.197   0.474  52.472  1.00  0.00    -0.030 A 
HETATM   12  C2  UNL     1      23.071  -0.323  53.218  1.00  0.00    -0.054 A 
HETATM   13  C1  UNL     1      24.390  -0.634  52.669  1.00  0.00     0.049 C 
HETATM   14  C3  UNL     1      22.669  -0.803  54.471  1.00  0.00     0.007 A 
HETATM   15  C4  UNL     1      21.444  -0.522  54.998  1.00  0.00     0.001 A 
HETATM   16  C5  UNL     1      20.552   0.246  54.319  1.00  0.00     0.001 A 
HETATM   17  C6  UNL     1      20.965   0.711  53.089  1.00  0.00     0.010 A 
ENDBRANCH   9  11
ENDBRANCH   7   9
ENDBRANCH   1   7
BRANCH   3  18
HETATM   18  N2  UNL     1      27.594   2.394  52.553  1.00  0.00    -0.339 N 
HETATM   19  H14 UNL     1      28.442   2.978  52.722  1.00  0.00     0.167 HD
BRANCH  18  20
HETATM   20  C13 UNL     1      27.629   1.299  53.451  1.00  0.00     0.057 A 
HETATM   21  C14 UNL     1      27.408   0.597  54.529  1.00  0.00     0.018 A 
HETATM   22  C15 UNL     1      28.119  -0.072  53.650  1.00  0.00     0.007 A 
BRANCH  22  23
HETATM   23  C16 UNL     1      28.829  -1.270  53.241  1.00  0.00     0.038 C 
BRANCH  23  24
HETATM   24  C17 UNL     1      28.103  -2.345  52.948  1.00  0.00     0.132 C 
BRANCH  24  25
HETATM   25  O1  UNL     1      28.638  -3.564  53.403  1.00  0.00    -0.373 OA
HETATM   26  H17 UNL     1      29.321  -3.636  54.124  1.00  0.00     0.216 HD
ENDBRANCH  24  25
ENDBRANCH  23  24
ENDBRANCH  22  23
ENDBRANCH  18  20
ENDBRANCH   3  18
TORSDOF 8
ENDMDL
MODEL 2
REMARK VINA RESULT:      -7.4      2.307      5.436
REMARK  8 active torsions:
REMARK  status: ('A' for Active; 'I' for Inactive)
REMARK    1  A    between atoms: C7_7  and  C8_8 
REMARK    2  A    between atoms: C8_8  and  N1_10 
REMARK    3  A    between atoms: N1_10  and  C10_11 
REMARK    4  A    between atoms: C12_13  and  N2_14 
REMARK    5  A    between atoms: N2_14  and  C13_15 
REMARK    6  A    between atoms: C15_17  and  C16_18 
REMARK    7  A    between atoms: C16_18  and  C17_19 
REMARK    8  A    between atoms: C17_19  and  O1_20 
ROOT
HETATM    1  C10 UNL     1      22.914   1.816  51.457  1.00  0.00     0.129 A 
HETATM    2  C11 UNL     1      23.850   1.141  52.201  1.00  0.00     0.100 A 
HETATM    3  C12 UNL     1      23.513   0.027  52.914  1.00  0.00     0.133 A 
HETATM    4  N3  UNL     1      22.261  -0.434  52.905  1.00  0.00    -0.224 NA
HETATM    5  C18 UNL     1      21.332   0.200  52.192  1.00  0.00     0.237 A 
HETATM    6  N4  UNL     1      21.660   1.306  51.482  1.00  0.00    -0.225 NA
ENDROOT
BRANCH   1   7
HETATM    7  N1  UNL     1      23.224   2.986  50.696  1.00  0.00    -0.366 N 
HETATM    8  H12 UNL     1      22.764   3.068  49.762  1.00  0.00     0.161 HD
BRANCH   7   9
HETATM    9  C8  UNL     1      24.138   3.955  51.268  1.00  0.00     0.113 C 
HETATM   10  C9  UNL     1      23.422   4.990  52.090  1.00  0.00     0.037 C 
BRANCH   9  11
HETATM   11  C7  UNL     1      25.135   4.474  50.326  1.00  0.00    -0.030 A 
HETATM   12  C2  UNL     1      26.329   3.815  50.013  1.00  0.00    -0.054 A 
HETATM   13  C1  UNL     1      26.619   2.533  50.654  1.00  0.00     0.049 C 
HETATM   14  C3  UNL     1      27.217   4.394  49.098  1.00  0.00     0.007 A 
HETATM   15  C4  UNL     1      26.962   5.588  48.493  1.00  0.00     0.001 A 
HETATM   16  C5  UNL     1      25.819   6.274  48.757  1.00  0.00     0.001 A 
HETATM   17  C6  UNL     1      24.956   5.689  49.659  1.00  0.00     0.010 A 
ENDBRANCH   9  11
ENDBRANCH   7   9
ENDBRANCH   1   7
BRANCH   3  18
HETATM   18  N2  UNL     1      24.506  -0.625  53.658  1.00  0.00    -0.339 N 
HETATM   19  H14 UNL     1      24.329  -1.078  54.581  1.00  0.00     0.167 HD
BRANCH  18  20
HETATM   20  C13 UNL     1      25.876  -0.798  53.340  1.00  0.00     0.057 A 
HETATM   21  C14 UNL     1      26.944  -1.282  52.766  1.00  0.00     0.018 A 
HETATM   22  C15 UNL     1      27.239  -0.329  53.621  1.00  0.00     0.007 A 
BRANCH  22  23
HETATM   23  C16 UNL     1      28.210   0.513  54.296  1.00  0.00     0.038 C 
BRANCH  23  24
HETATM   24  C17 UNL     1      28.615   1.611  53.665  1.00  0.00     0.132 C 
BRANCH  24  25
HETATM   25  O1  UNL     1      28.013   2.804  54.106  1.00  0.00    -0.373 OA
HETATM   26  H17 UNL     1      28.522   3.618  54.369  1.00  0.00     0.216 HD
ENDBRANCH  24  25
ENDBRANCH  23  24
ENDBRANCH  22  23
ENDBRANCH  18  20
ENDBRANCH   3  18
TORSDOF 8
ENDMDL
MODEL 3
REMARK VINA RESULT:      -7.3      2.293      4.695
REMARK  8 active torsions:
REMARK  status: ('A' for Active; 'I' for Inactive)
REMARK    1  A    between atoms: C7_7  and  C8_8 
REMARK    2  A    between atoms: C8_8  and  N1_10 
REMARK    3  A    between atoms: N1_10  and  C10_11 
REMARK    4  A    between atoms: C12_13  and  N2_14 
REMARK    5  A    between atoms: N2_14  and  C13_15 
REMARK    6  A    between atoms: C15_17  and  C16_18 
REMARK    7  A    between atoms: C16_18  and  C17_19 
REMARK    8  A    between atoms: C17_19  and  O1_20 
ROOT
HETATM    1  C10 UNL     1      22.114  -0.214  53.079  1.00  0.00     0.129 A 
HETATM    2  C11 UNL     1      23.382  -0.275  53.604  1.00  0.00     0.100 A 
HETATM    3  C12 UNL     1      23.648  -1.021  54.716  1.00  0.00     0.133 A 
HETATM    4  N3  UNL     1      22.679  -1.710  55.322  1.00  0.00    -0.224 NA
HETATM    5  C18 UNL     1      21.441  -1.669  54.835  1.00  0.00     0.237 A 
HETATM    6  N4  UNL     1      21.170  -0.932  53.731  1.00  0.00    -0.225 NA
ENDROOT
BRANCH   1   7
HETATM    7  N1  UNL     1      21.791   0.554  51.917  1.00  0.00    -0.366 N 
HETATM    8  H12 UNL     1      21.512   0.015  51.067  1.00  0.00     0.161 HD
BRANCH   7   9
HETATM    9  C8  UNL     1      21.874   1.999  52.004  1.00  0.00     0.113 C 
HETATM   10  C9  UNL     1      20.522   2.649  51.907  1.00  0.00     0.037 C 
BRANCH   9  11
HETATM   11  C7  UNL     1      22.923   2.593  51.170  1.00  0.00    -0.030 A 
HETATM   12  C2  UNL     1      24.116   3.122  51.677  1.00  0.00    -0.054 A 
HETATM   13  C1  UNL     1      24.348   3.087  53.121  1.00  0.00     0.049 C 
HETATM   14  C3  UNL     1      25.058   3.669  50.797  1.00  0.00     0.007 A 
HETATM   15  C4  UNL     1      24.857   3.708  49.450  1.00  0.00     0.001 A 
HETATM   16  C5  UNL     1      23.718   3.211  48.899  1.00  0.00     0.001 A 
HETATM   17  C6  UNL     1      22.802   2.676  49.780  1.00  0.00     0.010 A 
ENDBRANCH   9  11
ENDBRANCH   7   9
ENDBRANCH   1   7
BRANCH   3  18
HETATM   18  N2  UNL     1      24.958  -1.049  55.212  1.00  0.00    -0.339 N 
HETATM   19  H14 UNL     1      25.244  -1.598  56.052  1.00  0.00     0.167 HD
BRANCH  18  20
HETATM   20  C13 UNL     1      26.105  -0.382  54.714  1.00  0.00     0.057 A 
HETATM   21  C14 UNL     1      26.986   0.566  54.538  1.00  0.00     0.018 A 
HETATM   22  C15 UNL     1      27.271  -0.502  53.828  1.00  0.00     0.007 A 
BRANCH  22  23
HETATM   23  C16 UNL     1      28.122  -1.211  52.890  1.00  0.00     0.038 C 
BRANCH  23  24
HETATM   24  C17 UNL     1      29.034  -2.038  53.390  1.00  0.00     0.132 C 
BRANCH  24  25
HETATM   25  O1  UNL     1      28.681  -3.400  53.358  1.00  0.00    -0.373 OA
HETATM   26  H17 UNL     1      28.928  -4.055  54.067  1.00  0.00     0.216 HD
ENDBRANCH  24  25
ENDBRANCH  23  24
ENDBRANCH  22  23
ENDBRANCH  18  20
ENDBRANCH   3  18
TORSDOF 8
ENDMDL
MODEL 4
REMARK VINA RESULT:      -7.3      1.827      4.968
REMARK  8 active torsions:
REMARK  status: ('A' for Active; 'I' for Inactive)
REMARK    1  A    between atoms: C7_7  and  C8_8 
REMARK    2  A    between atoms: C8_8  and  N1_10 
REMARK    3  A    between atoms: N1_10  and  C10_11 
REMARK    4  A    between atoms: C12_13  and  N2_14 
REMARK    5  A    between atoms: N2_14  and  C13_15 
REMARK    6  A    between atoms: C15_17  and  C16_18 
REMARK    7  A    between atoms: C16_18  and  C17_19 
REMARK    8  A    between atoms: C17_19  and  O1_20 
ROOT
HETATM    1  C10 UNL     1      23.459   1.291  51.993  1.00  0.00     0.129 A 
HETATM    2  C11 UNL     1      24.529   0.950  52.785  1.00  0.00     0.100 A 
HETATM    3  C12 UNL     1      24.467  -0.121  53.628  1.00  0.00     0.133 A 
HETATM    4  N3  UNL     1      23.362  -0.865  53.704  1.00  0.00    -0.224 NA
HETATM    5  C18 UNL     1      22.310  -0.559  52.948  1.00  0.00     0.237 A 
HETATM    6  N4  UNL     1      22.365   0.503  52.108  1.00  0.00    -0.225 NA
ENDROOT
BRANCH   1   7
HETATM    7  N1  UNL     1      23.480   2.404  51.096  1.00  0.00    -0.366 N 
HETATM    8  H12 UNL     1      23.016   2.265  50.171  1.00  0.00     0.161 HD
BRANCH   7   9
HETATM    9  C8  UNL     1      24.134   3.623  51.530  1.00  0.00     0.113 C 
HETATM   10  C9  UNL     1      23.174   4.575  52.188  1.00  0.00     0.037 C 
BRANCH   9  11
HETATM   11  C7  UNL     1      25.029   4.216  50.532  1.00  0.00    -0.030 A 
HETATM   12  C2  UNL     1      26.266   3.671  50.172  1.00  0.00    -0.054 A 
HETATM   13  C1  UNL     1      26.711   2.437  50.818  1.00  0.00     0.049 C 
HETATM   14  C3  UNL     1      27.049   4.314  49.205  1.00  0.00     0.007 A 
HETATM   15  C4  UNL     1      26.649   5.464  48.593  1.00  0.00     0.001 A 
HETATM   16  C5  UNL     1      25.458   6.041  48.902  1.00  0.00     0.001 A 
HETATM   17  C6  UNL     1      24.700   5.394  49.855  1.00  0.00     0.010 A 
ENDBRANCH   9  11
ENDBRANCH   7   9
ENDBRANCH   1   7
BRANCH   3  18
HETATM   18  N2  UNL     1      25.586  -0.425  54.416  1.00  0.00    -0.339 N 
HETATM   19  H14 UNL     1      25.554  -1.069  55.235  1.00  0.00     0.167 HD
BRANCH  18  20
HETATM   20  C13 UNL     1      26.915   0.045  54.279  1.00  0.00     0.057 A 
HETATM   21  C14 UNL     1      27.919   0.880  54.261  1.00  0.00     0.018 A 
HETATM   22  C15 UNL     1      28.300  -0.346  53.980  1.00  0.00     0.007 A 
BRANCH  22  23
HETATM   23  C16 UNL     1      29.334  -1.306  53.639  1.00  0.00     0.038 C 
BRANCH  23  24
HETATM   24  C17 UNL     1      29.000  -2.307  52.831  1.00  0.00     0.132 C 
BRANCH  24  25
HETATM   25  O1  UNL     1      28.642  -3.502  53.484  1.00  0.00    -0.373 OA
HETATM   26  H17 UNL     1      29.250  -4.284  53.584  1.00  0.00     0.216 HD
ENDBRANCH  24  25
ENDBRANCH  23  24
ENDBRANCH  22  23
ENDBRANCH  18  20
ENDBRANCH   3  18
TORSDOF 8
ENDMDL
MODEL 5
REMARK VINA RESULT:      -7.3      2.740      5.065
REMARK  8 active torsions:
REMARK  status: ('A' for Active; 'I' for Inactive)
REMARK    1  A    between atoms: C7_7  and  C8_8 
REMARK    2  A    between atoms: C8_8  and  N1_10 
REMARK    3  A    between atoms: N1_10  and  C10_11 
REMARK    4  A    between atoms: C12_13  and  N2_14 
REMARK    5  A    between atoms: N2_14  and  C13_15 
REMARK    6  A    between atoms: C15_17  and  C16_18 
REMARK    7  A    between atoms: C16_18  and  C17_19 
REMARK    8  A    between atoms: C17_19  and  O1_20 
ROOT
HETATM    1  C10 UNL     1      21.580   0.182  52.932  1.00  0.00     0.129 A 
HETATM    2  C11 UNL     1      22.912   0.059  53.243  1.00  0.00     0.100 A 
HETATM    3  C12 UNL     1      23.328  -0.781  54.235  1.00  0.00     0.133 A 
HETATM    4  N3  UNL     1      22.448  -1.503  54.930  1.00  0.00    -0.224 NA
HETATM    5  C18 UNL     1      21.150  -1.403  54.650  1.00  0.00     0.237 A 
HETATM    6  N4  UNL     1      20.730  -0.573  53.666  1.00  0.00    -0.225 NA
ENDROOT
BRANCH   1   7
HETATM    7  N1  UNL     1      21.100   1.049  51.901  1.00  0.00    -0.366 N 
HETATM    8  H12 UNL     1      20.532   0.604  51.146  1.00  0.00     0.161 HD
BRANCH   7   9
HETATM    9  C8  UNL     1      21.434   2.459  51.978  1.00  0.00     0.113 C 
HETATM   10  C9  UNL     1      20.208   3.329  51.981  1.00  0.00     0.037 C 
BRANCH   9  11
HETATM   11  C7  UNL     1      22.504   2.876  51.067  1.00  0.00    -0.030 A 
HETATM   12  C2  UNL     1      23.704   3.457  51.489  1.00  0.00    -0.054 A 
HETATM   13  C1  UNL     1      23.925   3.669  52.920  1.00  0.00     0.049 C 
HETATM   14  C3  UNL     1      24.667   3.821  50.539  1.00  0.00     0.007 A 
HETATM   15  C4  UNL     1      24.478   3.631  49.203  1.00  0.00     0.001 A 
HETATM   16  C5  UNL     1      23.332   3.072  48.733  1.00  0.00     0.001 A 
HETATM   17  C6  UNL     1      22.396   2.718  49.683  1.00  0.00     0.010 A 
ENDBRANCH   9  11
ENDBRANCH   7   9
ENDBRANCH   1   7
BRANCH   3  18
HETATM   18  N2  UNL     1      24.699  -0.870  54.513  1.00  0.00    -0.339 N 
HETATM   19  H14 UNL     1      25.083  -1.005  55.473  1.00  0.00     0.167 HD
BRANCH  18  20
HETATM   20  C13 UNL     1      25.788  -0.800  53.610  1.00  0.00     0.057 A 
HETATM   21  C14 UNL     1      26.822  -1.186  52.912  1.00  0.00     0.018 A 
HETATM   22  C15 UNL     1      26.534   0.078  52.698  1.00  0.00     0.007 A 
BRANCH  22  23
HETATM   23  C16 UNL     1      26.797   1.344  52.039  1.00  0.00     0.038 C 
BRANCH  23  24
HETATM   24  C17 UNL     1      27.583   2.213  52.667  1.00  0.00     0.132 C 
BRANCH  24  25
HETATM   25  O1  UNL     1      27.181   2.537  53.976  1.00  0.00    -0.373 OA
HETATM   26  H17 UNL     1      26.287   2.911  54.206  1.00  0.00     0.216 HD
ENDBRANCH  24  25
ENDBRANCH  23  24
ENDBRANCH  22  23
ENDBRANCH  18  20
ENDBRANCH   3  18
TORSDOF 8
ENDMDL
MODEL 6
REMARK VINA RESULT:      -7.3      2.818      6.540
REMARK  8 active torsions:
REMARK  status: ('A' for Active; 'I' for Inactive)
REMARK    1  A    between atoms: C7_7  and  C8_8 
REMARK    2  A    between atoms: C8_8  and  N1_10 
REMARK    3  A    between atoms: N1_10  and  C10_11 
REMARK    4  A    between atoms: C12_13  and  N2_14 
REMARK    5  A    between atoms: N2_14  and  C13_15 
REMARK    6  A    between atoms: C15_17  and  C16_18 
REMARK    7  A    between atoms: C16_18  and  C17_19 
REMARK    8  A    between atoms: C17_19  and  O1_20 
ROOT
HETATM    1  C10 UNL     1      23.934  -0.730  54.094  1.00  0.00     0.129 A 
HETATM    2  C11 UNL     1      23.436  -0.012  53.035  1.00  0.00     0.100 A 
HETATM    3  C12 UNL     1      22.097   0.227  52.914  1.00  0.00     0.133 A 
HETATM    4  N3  UNL     1      21.238  -0.234  53.825  1.00  0.00    -0.224 NA
HETATM    5  C18 UNL     1      21.693  -0.934  54.863  1.00  0.00     0.237 A 
HETATM    6  N4  UNL     1      23.020  -1.174  54.989  1.00  0.00    -0.225 NA
ENDROOT
BRANCH   1   7
HETATM    7  N1  UNL     1      25.328  -1.004  54.260  1.00  0.00    -0.366 N 
HETATM    8  H12 UNL     1      25.620  -1.385  55.187  1.00  0.00     0.161 HD
BRANCH   7   9
HETATM    9  C8  UNL     1      26.217  -0.735  53.147  1.00  0.00     0.113 C 
HETATM   10  C9  UNL     1      26.750  -1.999  52.532  1.00  0.00     0.037 C 
BRANCH   9  11
HETATM   11  C7  UNL     1      27.213   0.309  53.409  1.00  0.00    -0.030 A 
HETATM   12  C2  UNL     1      27.337   1.476  52.648  1.00  0.00    -0.054 A 
HETATM   13  C1  UNL     1      26.430   1.687  51.521  1.00  0.00     0.049 C 
HETATM   14  C3  UNL     1      28.322   2.415  52.980  1.00  0.00     0.007 A 
HETATM   15  C4  UNL     1      29.175   2.234  54.027  1.00  0.00     0.001 A 
HETATM   16  C5  UNL     1      29.103   1.120  54.802  1.00  0.00     0.001 A 
HETATM   17  C6  UNL     1      28.127   0.207  54.461  1.00  0.00     0.010 A 
ENDBRANCH   9  11
ENDBRANCH   7   9
ENDBRANCH   1   7
BRANCH   3  18
HETATM   18  N2  UNL     1      21.640   0.965  51.814  1.00  0.00    -0.339 N 
HETATM   19  H14 UNL     1      20.644   0.979  51.505  1.00  0.00     0.167 HD
BRANCH  18  20
HETATM   20  C13 UNL     1      22.383   1.797  50.940  1.00  0.00     0.057 A 
HETATM   21  C14 UNL     1      22.954   2.213  49.842  1.00  0.00     0.018 A 
HETATM   22  C15 UNL     1      23.134   3.055  50.834  1.00  0.00     0.007 A 
BRANCH  22  23
HETATM   23  C16 UNL     1      23.680   4.291  51.365  1.00  0.00     0.038 C 
BRANCH  23  24
HETATM   24  C17 UNL     1      23.529   4.521  52.666  1.00  0.00     0.132 C 
BRANCH  24  25
HETATM   25  O1  UNL     1      24.445   3.851  53.497  1.00  0.00    -0.373 OA
HETATM   26  H17 UNL     1      24.835   4.245  54.324  1.00  0.00     0.216 HD
ENDBRANCH  24  25
ENDBRANCH  23  24
ENDBRANCH  22  23
ENDBRANCH  18  20
ENDBRANCH   3  18
TORSDOF 8
ENDMDL
MODEL 7
REMARK VINA RESULT:      -7.2      1.972      5.600
REMARK  8 active torsions:
REMARK  status: ('A' for Active; 'I' for Inactive)
REMARK    1  A    between atoms: C7_7  and  C8_8 
REMARK    2  A    between atoms: C8_8  and  N1_10 
REMARK    3  A    between atoms: N1_10  and  C10_11 
REMARK    4  A    between atoms: C12_13  and  N2_14 
REMARK    5  A    between atoms: N2_14  and  C13_15 
REMARK    6  A    between atoms: C15_17  and  C16_18 
REMARK    7  A    between atoms: C16_18  and  C17_19 
REMARK    8  A    between atoms: C17_19  and  O1_20 
ROOT
HETATM    1  C10 UNL     1      24.091   3.025  52.083  1.00  0.00     0.129 A 
HETATM    2  C11 UNL     1      23.245   1.947  51.992  1.00  0.00     0.100 A 
HETATM    3  C12 UNL     1      22.042   2.049  51.356  1.00  0.00     0.133 A 
HETATM    4  N3  UNL     1      21.657   3.202  50.807  1.00  0.00    -0.224 NA
HETATM    5  C18 UNL     1      22.457   4.264  50.880  1.00  0.00     0.237 A 
HETATM    6  N4  UNL     1      23.653   4.170  51.510  1.00  0.00    -0.225 NA
ENDROOT
BRANCH   1   7
HETATM    7  N1  UNL     1      25.360   2.964  52.740  1.00  0.00    -0.366 N 
HETATM    8  H12 UNL     1      25.378   3.251  53.744  1.00  0.00     0.161 HD
BRANCH   7   9
HETATM    9  C8  UNL     1      26.508   2.515  51.976  1.00  0.00     0.113 C 
HETATM   10  C9  UNL     1      26.285   2.644  50.495  1.00  0.00     0.037 C 
BRANCH   9  11
HETATM   11  C7  UNL     1      27.066   1.235  52.423  1.00  0.00    -0.030 A 
HETATM   12  C2  UNL     1      28.185   1.120  53.254  1.00  0.00    -0.054 A 
HETATM   13  C1  UNL     1      28.851   2.337  53.717  1.00  0.00     0.049 C 
HETATM   14  C3  UNL     1      28.642  -0.151  53.626  1.00  0.00     0.007 A 
HETATM   15  C4  UNL     1      28.033  -1.294  53.204  1.00  0.00     0.001 A 
HETATM   16  C5  UNL     1      26.943  -1.246  52.394  1.00  0.00     0.001 A 
HETATM   17  C6  UNL     1      26.506   0.013  52.039  1.00  0.00     0.010 A 
ENDBRANCH   9  11
ENDBRANCH   7   9
ENDBRANCH   1   7
BRANCH   3  18
HETATM   18  N2  UNL     1      21.215   0.919  51.291  1.00  0.00    -0.339 N 
HETATM   19  H14 UNL     1      20.965   0.440  50.398  1.00  0.00     0.167 HD
BRANCH  18  20
HETATM   20  C13 UNL     1      20.581   0.227  52.352  1.00  0.00     0.057 A 
HETATM   21  C14 UNL     1      19.648  -0.402  53.015  1.00  0.00     0.018 A 
HETATM   22  C15 UNL     1      20.756  -0.299  53.713  1.00  0.00     0.007 A 
BRANCH  22  23
HETATM   23  C16 UNL     1      21.520  -0.545  54.923  1.00  0.00     0.038 C 
BRANCH  23  24
HETATM   24  C17 UNL     1      22.658  -1.222  54.805  1.00  0.00     0.132 C 
BRANCH  24  25
HETATM   25  O1  UNL     1      23.066  -1.903  55.966  1.00  0.00    -0.373 OA
HETATM   26  H17 UNL     1      23.028  -1.513  56.881  1.00  0.00     0.216 HD
ENDBRANCH  24  25
ENDBRANCH  23  24
ENDBRANCH  22  23
ENDBRANCH  18  20
ENDBRANCH   3  18
TORSDOF 8
ENDMDL
MODEL 8
REMARK VINA RESULT:      -7.2      3.523      5.097
REMARK  8 active torsions:
REMARK  status: ('A' for Active; 'I' for Inactive)
REMARK    1  A    between atoms: C7_7  and  C8_8 
REMARK    2  A    between atoms: C8_8  and  N1_10 
REMARK    3  A    between atoms: N1_10  and  C10_11 
REMARK    4  A    between atoms: C12_13  and  N2_14 
REMARK    5  A    between atoms: N2_14  and  C13_15 
REMARK    6  A    between atoms: C15_17  and  C16_18 
REMARK    7  A    between atoms: C16_18  and  C17_19 
REMARK    8  A    between atoms: C17_19  and  O1_20 
ROOT
HETATM    1  C10 UNL     1      24.329   4.605  50.920  1.00  0.00     0.129 A 
HETATM    2  C11 UNL     1      25.369   4.335  50.066  1.00  0.00     0.100 A 
HETATM    3  C12 UNL     1      26.125   5.341  49.538  1.00  0.00     0.133 A 
HETATM    4  N3  UNL     1      25.871   6.615  49.840  1.00  0.00    -0.224 NA
HETATM    5  C18 UNL     1      24.868   6.907  50.666  1.00  0.00     0.237 A 
HETATM    6  N4  UNL     1      24.113   5.914  51.194  1.00  0.00    -0.225 NA
ENDROOT
BRANCH   1   7
HETATM    7  N1  UNL     1      23.511   3.583  51.496  1.00  0.00    -0.366 N 
HETATM    8  H12 UNL     1      22.850   3.884  52.247  1.00  0.00     0.161 HD
BRANCH   7   9
HETATM    9  C8  UNL     1      23.658   2.227  51.004  1.00  0.00     0.113 C 
HETATM   10  C9  UNL     1      22.649   1.901  49.939  1.00  0.00     0.037 C 
BRANCH   9  11
HETATM   11  C7  UNL     1      23.817   1.218  52.055  1.00  0.00    -0.030 A 
HETATM   12  C2  UNL     1      25.054   0.713  52.470  1.00  0.00    -0.054 A 
HETATM   13  C1  UNL     1      26.272   1.208  51.830  1.00  0.00     0.049 C 
HETATM   14  C3  UNL     1      25.101  -0.251  53.485  1.00  0.00     0.007 A 
HETATM   15  C4  UNL     1      23.976  -0.723  54.092  1.00  0.00     0.001 A 
HETATM   16  C5  UNL     1      22.746  -0.270  53.731  1.00  0.00     0.001 A 
HETATM   17  C6  UNL     1      22.719   0.679  52.732  1.00  0.00     0.010 A 
ENDBRANCH   9  11
ENDBRANCH   7   9
ENDBRANCH   1   7
BRANCH   3  18
HETATM   18  N2  UNL     1      27.176   5.011  48.670  1.00  0.00    -0.339 N 
HETATM   19  H14 UNL     1      27.287   4.071  48.233  1.00  0.00     0.167 HD
BRANCH  18  20
HETATM   20  C13 UNL     1      28.244   5.830  48.228  1.00  0.00     0.057 A 
HETATM   21  C14 UNL     1      28.861   6.847  47.689  1.00  0.00     0.018 A 
HETATM   22  C15 UNL     1      29.706   5.950  48.145  1.00  0.00     0.007 A 
BRANCH  22  23
HETATM   23  C16 UNL     1      31.063   5.485  48.369  1.00  0.00     0.038 C 
BRANCH  23  24
HETATM   24  C17 UNL     1      31.722   5.989  49.408  1.00  0.00     0.132 C 
BRANCH  24  25
HETATM   25  O1  UNL     1      31.408   5.405  50.649  1.00  0.00    -0.373 OA
HETATM   26  H17 UNL     1      30.894   4.559  50.750  1.00  0.00     0.216 HD
ENDBRANCH  24  25
ENDBRANCH  23  24
ENDBRANCH  22  23
ENDBRANCH  18  20
ENDBRANCH   3  18
TORSDOF 8
ENDMDL
MODEL 9
REMARK VINA RESULT:      -7.1      3.278      5.125
REMARK  8 active torsions:
REMARK  status: ('A' for Active; 'I' for Inactive)
REMARK    1  A    between atoms: C7_7  and  C8_8 
REMARK    2  A    between atoms: C8_8  and  N1_10 
REMARK    3  A    between atoms: N1_10  and  C10_11 
REMARK    4  A    between atoms: C12_13  and  N2_14 
REMARK    5  A    between atoms: N2_14  and  C13_15 
REMARK    6  A    between atoms: C15_17  and  C16_18 
REMARK    7  A    between atoms: C16_18  and  C17_19 
REMARK    8  A    between atoms: C17_19  and  O1_20 
ROOT
HETATM    1  C10 UNL     1      22.815   3.472  51.562  1.00  0.00     0.129 A 
HETATM    2  C11 UNL     1      23.826   3.235  50.662  1.00  0.00     0.100 A 
HETATM    3  C12 UNL     1      24.665   4.236  50.267  1.00  0.00     0.133 A 
HETATM    4  N3  UNL     1      24.523   5.473  50.746  1.00  0.00    -0.224 NA
HETATM    5  C18 UNL     1      23.553   5.732  51.620  1.00  0.00     0.237 A 
HETATM    6  N4  UNL     1      22.716   4.743  52.017  1.00  0.00    -0.225 NA
ENDROOT
BRANCH   1   7
HETATM    7  N1  UNL     1      21.913   2.454  52.003  1.00  0.00    -0.366 N 
HETATM    8  H12 UNL     1      21.059   2.777  52.510  1.00  0.00     0.161 HD
BRANCH   7   9
HETATM    9  C8  UNL     1      22.247   1.071  51.720  1.00  0.00     0.113 C 
HETATM   10  C9  UNL     1      21.321   0.465  50.702  1.00  0.00     0.037 C 
BRANCH   9  11
HETATM   11  C7  UNL     1      22.499   0.255  52.911  1.00  0.00    -0.030 A 
HETATM   12  C2  UNL     1      23.777  -0.072  53.376  1.00  0.00    -0.054 A 
HETATM   13  C1  UNL     1      24.944   0.420  52.644  1.00  0.00     0.049 C 
HETATM   14  C3  UNL     1      23.913  -0.859  54.526  1.00  0.00     0.007 A 
HETATM   15  C4  UNL     1      22.837  -1.325  55.220  1.00  0.00     0.001 A 
HETATM   16  C5  UNL     1      21.571  -1.040  54.817  1.00  0.00     0.001 A 
HETATM   17  C6  UNL     1      21.456  -0.264  53.683  1.00  0.00     0.010 A 
ENDBRANCH   9  11
ENDBRANCH   7   9
ENDBRANCH   1   7
BRANCH   3  18
HETATM   18  N2  UNL     1      25.680   3.941  49.346  1.00  0.00    -0.339 N 
HETATM   19  H14 UNL     1      25.744   3.036  48.832  1.00  0.00     0.167 HD
BRANCH  18  20
HETATM   20  C13 UNL     1      26.767   4.755  48.941  1.00  0.00     0.057 A 
HETATM   21  C14 UNL     1      27.981   5.084  48.590  1.00  0.00     0.018 A 
HETATM   22  C15 UNL     1      27.178   6.124  48.603  1.00  0.00     0.007 A 
BRANCH  22  23
HETATM   23  C16 UNL     1      26.938   7.543  48.413  1.00  0.00     0.038 C 
BRANCH  23  24
HETATM   24  C17 UNL     1      26.765   8.288  49.500  1.00  0.00     0.132 C 
BRANCH  24  25
HETATM   25  O1  UNL     1      26.475   7.567  50.673  1.00  0.00    -0.373 OA
HETATM   26  H17 UNL     1      27.041   6.827  51.025  1.00  0.00     0.216 HD
ENDBRANCH  24  25
ENDBRANCH  23  24
ENDBRANCH  22  23
ENDBRANCH  18  20
ENDBRANCH   3  18
TORSDOF 8
ENDMDL
