MODEL 1
REMARK VINA RESULT:      -7.5      0.000      0.000
REMARK  6 active torsions:
REMARK  status: ('A' for Active; 'I' for Inactive)
REMARK    1  A    between atoms: C3_3  and  C4_4 
REMARK    2  A    between atoms: C6_6  and  C7_7 
REMARK    3  A    between atoms: C7_7  and  N1_8 
REMARK    4  A    between atoms: N1_8  and  C8_9 
REMARK    5  A    between atoms: C12_15  and  O1_16 
REMARK    6  A    between atoms: C14_18  and  O2_19 
ROOT
HETATM    1  C8  UNL     1      26.319   2.426  51.873  1.00  0.00     0.137 A 
HETATM    2  N2  UNL     1      27.562   2.154  52.262  1.00  0.00    -0.224 NA
HETATM    3  C9  UNL     1      27.966   1.139  53.017  1.00  0.00     0.235 A 
HETATM    4  N3  UNL     1      27.014   0.304  53.427  1.00  0.00    -0.241 NA
HETATM    5  C10 UNL     1      25.706   0.473  53.096  1.00  0.00     0.075 A 
HETATM    6  C11 UNL     1      24.782  -0.447  53.515  1.00  0.00     0.072 A 
HETATM    7  C12 UNL     1      23.481  -0.250  53.113  1.00  0.00     0.103 A 
HETATM    8  C14 UNL     1      23.124   0.848  52.314  1.00  0.00     0.102 A 
HETATM    9  C16 UNL     1      24.035   1.775  51.893  1.00  0.00     0.057 A 
HETATM   10  C17 UNL     1      25.352   1.547  52.311  1.00  0.00     0.041 A 
ENDROOT
BRANCH   1  11
HETATM   11  N1  UNL     1      26.090   3.597  51.059  1.00  0.00    -0.371 N 
HETATM   12  H12 UNL     1      25.837   4.523  51.457  1.00  0.00     0.161 HD
BRANCH  11  13
HETATM   13  C7  UNL     1      26.219   3.472  49.627  1.00  0.00     0.149 C 
BRANCH  13  14
HETATM   14  C6  UNL     1      27.272   4.311  49.056  1.00  0.00    -0.001 C 
HETATM   15  C4  UNL     1      26.917   5.507  48.700  1.00  0.00    -0.065 C 
HETATM   16  C5  UNL     1      25.738   6.398  48.684  1.00  0.00     0.048 C 
BRANCH  15  17
HETATM   17  C3  UNL     1      28.088   6.200  48.153  1.00  0.00     0.002 C 
HETATM   18  C2  UNL     1      29.311   5.660  48.130  1.00  0.00    -0.030 C 
HETATM   19  C1  UNL     1      30.754   5.898  47.725  1.00  0.00     0.036 C 
ENDBRANCH  15  17
ENDBRANCH  13  14
ENDBRANCH  11  13
ENDBRANCH   1  11
BRANCH   8  20
HETATM   20  O2  UNL     1      21.789   0.844  52.040  1.00  0.00    -0.353 OA
HETATM   21  C15 UNL     1      20.895   1.814  52.500  1.00  0.00     0.210 C 
ENDBRANCH   8  20
BRANCH   7  22
HETATM   22  O1  UNL     1      22.531  -1.145  53.505  1.00  0.00    -0.353 OA
HETATM   23  C13 UNL     1      22.001  -1.396  54.757  1.00  0.00     0.210 C 
ENDBRANCH   7  22
TORSDOF 6
ENDMDL
MODEL 2
REMARK VINA RESULT:      -7.4      2.575      3.972
REMARK  6 active torsions:
REMARK  status: ('A' for Active; 'I' for Inactive)
REMARK    1  A    between atoms: C3_3  and  C4_4 
REMARK    2  A    between atoms: C6_6  and  C7_7 
REMARK    3  A    between atoms: C7_7  and  N1_8 
REMARK    4  A    between atoms: N1_8  and  C8_9 
REMARK    5  A    between atoms: C12_15  and  O1_16 
REMARK    6  A    between atoms: C14_18  and  O2_19 
ROOT
HETATM    1  C8  UNL     1      23.848   1.901  52.317  1.00  0.00     0.137 A 
HETATM    2  N2  UNL     1      22.680   1.285  52.481  1.00  0.00    -0.224 NA
HETATM    3  C9  UNL     1      22.475   0.061  52.954  1.00  0.00     0.235 A 
HETATM    4  N3  UNL     1      23.565  -0.619  53.301  1.00  0.00    -0.241 NA
HETATM    5  C10 UNL     1      24.816  -0.099  53.182  1.00  0.00     0.075 A 
HETATM    6  C11 UNL     1      25.893  -0.836  53.597  1.00  0.00     0.072 A 
HETATM    7  C12 UNL     1      27.130  -0.243  53.495  1.00  0.00     0.103 A 
HETATM    8  C14 UNL     1      27.274   1.057  52.983  1.00  0.00     0.102 A 
HETATM    9  C16 UNL     1      26.208   1.801  52.562  1.00  0.00     0.057 A 
HETATM   10  C17 UNL     1      24.960   1.176  52.683  1.00  0.00     0.041 A 
ENDROOT
BRANCH   1  11
HETATM   11  N1  UNL     1      23.853   3.238  51.770  1.00  0.00    -0.371 N 
HETATM   12  H12 UNL     1      23.871   4.093  52.360  1.00  0.00     0.161 HD
BRANCH  11  13
HETATM   13  C7  UNL     1      23.829   3.391  50.335  1.00  0.00     0.149 C 
BRANCH  13  14
HETATM   14  C6  UNL     1      25.158   3.416  49.725  1.00  0.00    -0.001 C 
HETATM   15  C4  UNL     1      25.713   4.583  49.616  1.00  0.00    -0.065 C 
HETATM   16  C5  UNL     1      25.466   6.006  49.933  1.00  0.00     0.048 C 
BRANCH  15  17
HETATM   17  C3  UNL     1      27.028   4.421  48.988  1.00  0.00     0.002 C 
HETATM   18  C2  UNL     1      27.792   5.455  48.617  1.00  0.00    -0.030 C 
HETATM   19  C1  UNL     1      29.114   5.842  47.980  1.00  0.00     0.036 C 
ENDBRANCH  15  17
ENDBRANCH  13  14
ENDBRANCH  11  13
ENDBRANCH   1  11
BRANCH   8  20
HETATM   20  O2  UNL     1      28.582   1.440  52.972  1.00  0.00    -0.353 OA
HETATM   21  C15 UNL     1      29.106   2.451  53.781  1.00  0.00     0.210 C 
ENDBRANCH   8  20
BRANCH   7  22
HETATM   22  O1  UNL     1      28.228  -0.941  53.901  1.00  0.00    -0.353 OA
HETATM   23  C13 UNL     1      28.901  -1.981  53.290  1.00  0.00     0.210 C 
ENDBRANCH   7  22
TORSDOF 6
ENDMDL
MODEL 3
REMARK VINA RESULT:      -7.3      3.493      8.022
REMARK  6 active torsions:
REMARK  status: ('A' for Active; 'I' for Inactive)
REMARK    1  A    between atoms: C3_3  and  C4_4 
REMARK    2  A    between atoms: C6_6  and  C7_7 
REMARK    3  A    between atoms: C7_7  and  N1_8 
REMARK    4  A    between atoms: N1_8  and  C8_9 
REMARK    5  A    between atoms: C12_15  and  O1_16 
REMARK    6  A    between atoms: C14_18  and  O2_19 
ROOT
HETATM    1  C8  UNL     1      23.060  -0.512  53.698  1.00  0.00     0.137 A 
HETATM    2  N2  UNL     1      22.789  -1.186  54.812  1.00  0.00    -0.224 NA
HETATM    3  C9  UNL     1      23.643  -1.552  55.761  1.00  0.00     0.235 A 
HETATM    4  N3  UNL     1      24.912  -1.200  55.568  1.00  0.00    -0.241 NA
HETATM    5  C10 UNL     1      25.316  -0.509  54.469  1.00  0.00     0.075 A 
HETATM    6  C11 UNL     1      26.631  -0.141  54.352  1.00  0.00     0.072 A 
HETATM    7  C12 UNL     1      26.974   0.596  53.242  1.00  0.00     0.103 A 
HETATM    8  C14 UNL     1      26.017   0.947  52.276  1.00  0.00     0.102 A 
HETATM    9  C16 UNL     1      24.705   0.584  52.379  1.00  0.00     0.057 A 
HETATM   10  C17 UNL     1      24.381  -0.161  53.521  1.00  0.00     0.041 A 
ENDROOT
BRANCH   1  11
HETATM   11  N1  UNL     1      21.980  -0.225  52.783  1.00  0.00    -0.371 N 
HETATM   12  H12 UNL     1      22.004  -0.487  51.777  1.00  0.00     0.161 HD
BRANCH  11  13
HETATM   13  C7  UNL     1      20.814   0.457  53.290  1.00  0.00     0.149 C 
BRANCH  13  14
HETATM   14  C6  UNL     1      19.641  -0.405  53.425  1.00  0.00    -0.001 C 
HETATM   15  C4  UNL     1      18.780  -0.351  52.457  1.00  0.00    -0.065 C 
HETATM   16  C5  UNL     1      18.557   0.312  51.155  1.00  0.00     0.048 C 
BRANCH  15  17
HETATM   17  C3  UNL     1      17.677  -1.270  52.757  1.00  0.00     0.002 C 
HETATM   18  C2  UNL     1      17.860  -2.469  53.321  1.00  0.00    -0.030 C 
HETATM   19  C1  UNL     1      17.153  -3.719  53.811  1.00  0.00     0.036 C 
ENDBRANCH  15  17
ENDBRANCH  13  14
ENDBRANCH  11  13
ENDBRANCH   1  11
BRANCH   8  20
HETATM   20  O2  UNL     1      26.579   1.672  51.268  1.00  0.00    -0.353 OA
HETATM   21  C15 UNL     1      26.112   2.921  50.851  1.00  0.00     0.210 C 
ENDBRANCH   8  20
BRANCH   7  22
HETATM   22  O1  UNL     1      28.271   0.986  53.090  1.00  0.00    -0.353 OA
HETATM   23  C13 UNL     1      29.393   0.670  53.832  1.00  0.00     0.210 C 
ENDBRANCH   7  22
TORSDOF 6
ENDMDL
MODEL 4
REMARK VINA RESULT:      -7.3      2.092      3.305
REMARK  6 active torsions:
REMARK  status: ('A' for Active; 'I' for Inactive)
REMARK    1  A    between atoms: C3_3  and  C4_4 
REMARK    2  A    between atoms: C6_6  and  C7_7 
REMARK    3  A    between atoms: C7_7  and  N1_8 
REMARK    4  A    between atoms: N1_8  and  C8_9 
REMARK    5  A    between atoms: C12_15  and  O1_16 
REMARK    6  A    between atoms: C14_18  and  O2_19 
ROOT
HETATM    1  C8  UNL     1      25.541   2.897  50.883  1.00  0.00     0.137 A 
HETATM    2  N2  UNL     1      24.367   3.057  50.279  1.00  0.00    -0.224 NA
HETATM    3  C9  UNL     1      23.244   2.387  50.510  1.00  0.00     0.235 A 
HETATM    4  N3  UNL     1      23.309   1.452  51.454  1.00  0.00    -0.241 NA
HETATM    5  C10 UNL     1      24.452   1.192  52.144  1.00  0.00     0.075 A 
HETATM    6  C11 UNL     1      24.440   0.245  53.133  1.00  0.00     0.072 A 
HETATM    7  C12 UNL     1      25.611   0.056  53.828  1.00  0.00     0.103 A 
HETATM    8  C14 UNL     1      26.764   0.801  53.529  1.00  0.00     0.102 A 
HETATM    9  C16 UNL     1      26.790   1.746  52.543  1.00  0.00     0.057 A 
HETATM   10  C17 UNL     1      25.583   1.922  51.855  1.00  0.00     0.041 A 
ENDROOT
BRANCH   1  11
HETATM   11  N1  UNL     1      26.650   3.726  50.469  1.00  0.00    -0.371 N 
HETATM   12  H12 UNL     1      27.537   3.795  51.006  1.00  0.00     0.161 HD
BRANCH  11  13
HETATM   13  C7  UNL     1      26.517   4.491  49.254  1.00  0.00     0.149 C 
BRANCH  13  14
HETATM   14  C6  UNL     1      27.796   4.869  48.654  1.00  0.00    -0.001 C 
HETATM   15  C4  UNL     1      27.927   6.119  48.331  1.00  0.00    -0.065 C 
HETATM   16  C5  UNL     1      27.190   7.399  48.376  1.00  0.00     0.048 C 
BRANCH  15  17
HETATM   17  C3  UNL     1      29.258   6.316  47.748  1.00  0.00     0.002 C 
HETATM   18  C2  UNL     1      30.264   5.450  47.916  1.00  0.00    -0.030 C 
HETATM   19  C1  UNL     1      31.716   5.172  47.577  1.00  0.00     0.036 C 
ENDBRANCH  15  17
ENDBRANCH  13  14
ENDBRANCH  11  13
ENDBRANCH   1  11
BRANCH   8  20
HETATM   20  O2  UNL     1      27.801   0.447  54.339  1.00  0.00    -0.353 OA
HETATM   21  C15 UNL     1      29.021   1.128  54.386  1.00  0.00     0.210 C 
ENDBRANCH   8  20
BRANCH   7  22
HETATM   22  O1  UNL     1      25.641  -0.875  54.824  1.00  0.00    -0.353 OA
HETATM   23  C13 UNL     1      24.638  -1.314  55.667  1.00  0.00     0.210 C 
ENDBRANCH   7  22
TORSDOF 6
ENDMDL
MODEL 5
REMARK VINA RESULT:      -7.1      2.709      7.184
REMARK  6 active torsions:
REMARK  status: ('A' for Active; 'I' for Inactive)
REMARK    1  A    between atoms: C3_3  and  C4_4 
REMARK    2  A    between atoms: C6_6  and  C7_7 
REMARK    3  A    between atoms: C7_7  and  N1_8 
REMARK    4  A    between atoms: N1_8  and  C8_9 
REMARK    5  A    between atoms: C12_15  and  O1_16 
REMARK    6  A    between atoms: C14_18  and  O2_19 
ROOT
HETATM    1  C8  UNL     1      24.285   1.914  51.255  1.00  0.00     0.137 A 
HETATM    2  N2  UNL     1      24.730   2.859  50.431  1.00  0.00    -0.224 NA
HETATM    3  C9  UNL     1      25.972   3.319  50.327  1.00  0.00     0.235 A 
HETATM    4  N3  UNL     1      26.866   2.766  51.144  1.00  0.00    -0.241 NA
HETATM    5  C10 UNL     1      26.536   1.791  52.032  1.00  0.00     0.075 A 
HETATM    6  C11 UNL     1      27.513   1.234  52.814  1.00  0.00     0.072 A 
HETATM    7  C12 UNL     1      27.131   0.221  53.661  1.00  0.00     0.103 A 
HETATM    8  C14 UNL     1      25.797  -0.215  53.720  1.00  0.00     0.102 A 
HETATM    9  C16 UNL     1      24.812   0.334  52.948  1.00  0.00     0.057 A 
HETATM   10  C17 UNL     1      25.230   1.359  52.090  1.00  0.00     0.041 A 
ENDROOT
BRANCH   1  11
HETATM   11  N1  UNL     1      22.883   1.569  51.218  1.00  0.00    -0.371 N 
HETATM   12  H12 UNL     1      22.421   1.162  50.380  1.00  0.00     0.161 HD
BRANCH  11  13
HETATM   13  C7  UNL     1      22.089   1.801  52.400  1.00  0.00     0.149 C 
BRANCH  13  14
HETATM   14  C6  UNL     1      20.798   1.113  52.385  1.00  0.00    -0.001 C 
HETATM   15  C4  UNL     1      20.634   0.192  53.284  1.00  0.00    -0.065 C 
HETATM   16  C5  UNL     1      21.337  -0.444  54.418  1.00  0.00     0.048 C 
BRANCH  15  17
HETATM   17  C3  UNL     1      19.297  -0.388  53.123  1.00  0.00     0.002 C 
HETATM   18  C2  UNL     1      18.969  -1.604  53.575  1.00  0.00    -0.030 C 
HETATM   19  C1  UNL     1      17.844  -2.616  53.678  1.00  0.00     0.036 C 
ENDBRANCH  15  17
ENDBRANCH  13  14
ENDBRANCH  11  13
ENDBRANCH   1  11
BRANCH   8  20
HETATM   20  O2  UNL     1      25.648  -1.222  54.625  1.00  0.00    -0.353 OA
HETATM   21  C15 UNL     1      24.696  -1.218  55.648  1.00  0.00     0.210 C 
ENDBRANCH   8  20
BRANCH   7  22
HETATM   22  O1  UNL     1      28.073  -0.362  54.454  1.00  0.00    -0.353 OA
HETATM   23  C13 UNL     1      29.380  -0.717  54.176  1.00  0.00     0.210 C 
ENDBRANCH   7  22
TORSDOF 6
ENDMDL
MODEL 6
REMARK VINA RESULT:      -7.0      1.133      2.133
REMARK  6 active torsions:
REMARK  status: ('A' for Active; 'I' for Inactive)
REMARK    1  A    between atoms: C3_3  and  C4_4 
REMARK    2  A    between atoms: C6_6  and  C7_7 
REMARK    3  A    between atoms: C7_7  and  N1_8 
REMARK    4  A    between atoms: N1_8  and  C8_9 
REMARK    5  A    between atoms: C12_15  and  O1_16 
REMARK    6  A    between atoms: C14_18  and  O2_19 
ROOT
HETATM    1  C8  UNL     1      26.237   2.022  52.032  1.00  0.00     0.137 A 
HETATM    2  N2  UNL     1      27.274   1.231  52.294  1.00  0.00    -0.224 NA
HETATM    3  C9  UNL     1      27.252   0.045  52.890  1.00  0.00     0.235 A 
HETATM    4  N3  UNL     1      26.054  -0.397  53.263  1.00  0.00    -0.241 NA
HETATM    5  C10 UNL     1      24.917   0.318  53.051  1.00  0.00     0.075 A 
HETATM    6  C11 UNL     1      23.709  -0.213  53.421  1.00  0.00     0.072 A 
HETATM    7  C12 UNL     1      22.589   0.534  53.142  1.00  0.00     0.103 A 
HETATM    8  C14 UNL     1      22.686   1.784  52.510  1.00  0.00     0.102 A 
HETATM    9  C16 UNL     1      23.884   2.327  52.138  1.00  0.00     0.057 A 
HETATM   10  C17 UNL     1      25.008   1.543  52.429  1.00  0.00     0.041 A 
ENDROOT
BRANCH   1  11
HETATM   11  N1  UNL     1      26.481   3.290  51.384  1.00  0.00    -0.371 N 
HETATM   12  H12 UNL     1      26.651   4.171  51.909  1.00  0.00     0.161 HD
BRANCH  11  13
HETATM   13  C7  UNL     1      26.487   3.333  49.942  1.00  0.00     0.149 C 
BRANCH  13  14
HETATM   14  C6  UNL     1      26.097   4.630  49.391  1.00  0.00    -0.001 C 
HETATM   15  C4  UNL     1      27.030   5.297  48.786  1.00  0.00    -0.065 C 
HETATM   16  C5  UNL     1      28.456   5.193  48.412  1.00  0.00     0.048 C 
BRANCH  15  17
HETATM   17  C3  UNL     1      26.466   6.561  48.302  1.00  0.00     0.002 C 
HETATM   18  C2  UNL     1      25.151   6.793  48.230  1.00  0.00    -0.030 C 
HETATM   19  C1  UNL     1      24.102   7.819  47.843  1.00  0.00     0.036 C 
ENDBRANCH  15  17
ENDBRANCH  13  14
ENDBRANCH  11  13
ENDBRANCH   1  11
BRANCH   8  20
HETATM   20  O2  UNL     1      21.456   2.344  52.335  1.00  0.00    -0.353 OA
HETATM   21  C15 UNL     1      21.234   3.718  52.211  1.00  0.00     0.210 C 
ENDBRANCH   8  20
BRANCH   7  22
HETATM   22  O1  UNL     1      21.368   0.040  53.490  1.00  0.00    -0.353 OA
HETATM   23  C13 UNL     1      21.028  -1.144  54.115  1.00  0.00     0.210 C 
ENDBRANCH   7  22
TORSDOF 6
ENDMDL
MODEL 7
REMARK VINA RESULT:      -7.0      1.696      3.066
REMARK  6 active torsions:
REMARK  status: ('A' for Active; 'I' for Inactive)
REMARK    1  A    between atoms: C3_3  and  C4_4 
REMARK    2  A    between atoms: C6_6  and  C7_7 
REMARK    3  A    between atoms: C7_7  and  N1_8 
REMARK    4  A    between atoms: N1_8  and  C8_9 
REMARK    5  A    between atoms: C12_15  and  O1_16 
REMARK    6  A    between atoms: C14_18  and  O2_19 
ROOT
HETATM    1  C8  UNL     1      24.236   3.808  51.375  1.00  0.00     0.137 A 
HETATM    2  N2  UNL     1      23.267   4.714  51.264  1.00  0.00    -0.224 NA
HETATM    3  C9  UNL     1      21.997   4.584  51.631  1.00  0.00     0.235 A 
HETATM    4  N3  UNL     1      21.664   3.415  52.171  1.00  0.00    -0.241 NA
HETATM    5  C10 UNL     1      22.564   2.408  52.339  1.00  0.00     0.075 A 
HETATM    6  C11 UNL     1      22.165   1.244  52.940  1.00  0.00     0.072 A 
HETATM    7  C12 UNL     1      23.127   0.278  53.125  1.00  0.00     0.103 A 
HETATM    8  C14 UNL     1      24.453   0.482  52.710  1.00  0.00     0.102 A 
HETATM    9  C16 UNL     1      24.863   1.637  52.105  1.00  0.00     0.057 A 
HETATM   10  C17 UNL     1      23.865   2.606  51.935  1.00  0.00     0.041 A 
ENDROOT
BRANCH   1  11
HETATM   11  N1  UNL     1      25.556   4.147  50.897  1.00  0.00    -0.371 N 
HETATM   12  H12 UNL     1      26.281   4.587  51.497  1.00  0.00     0.161 HD
BRANCH  11  13
HETATM   13  C7  UNL     1      25.881   3.859  49.520  1.00  0.00     0.149 C 
BRANCH  13  14
HETATM   14  C6  UNL     1      27.105   4.512  49.057  1.00  0.00    -0.001 C 
HETATM   15  C4  UNL     1      26.970   5.721  48.606  1.00  0.00    -0.065 C 
HETATM   16  C5  UNL     1      25.939   6.760  48.397  1.00  0.00     0.048 C 
BRANCH  15  17
HETATM   17  C3  UNL     1      28.285   6.215  48.187  1.00  0.00     0.002 C 
HETATM   18  C2  UNL     1      29.375   5.440  48.138  1.00  0.00    -0.030 C 
HETATM   19  C1  UNL     1      30.856   5.420  47.814  1.00  0.00     0.036 C 
ENDBRANCH  15  17
ENDBRANCH  13  14
ENDBRANCH  11  13
ENDBRANCH   1  11
BRANCH   8  20
HETATM   20  O2  UNL     1      25.229  -0.603  52.990  1.00  0.00    -0.353 OA
HETATM   21  C15 UNL     1      26.365  -0.561  53.801  1.00  0.00     0.210 C 
ENDBRANCH   8  20
BRANCH   7  22
HETATM   22  O1  UNL     1      22.773  -0.894  53.723  1.00  0.00    -0.353 OA
HETATM   23  C13 UNL     1      22.258  -1.135  54.982  1.00  0.00     0.210 C 
ENDBRANCH   7  22
TORSDOF 6
ENDMDL
MODEL 8
REMARK VINA RESULT:      -6.8      5.170      9.269
REMARK  6 active torsions:
REMARK  status: ('A' for Active; 'I' for Inactive)
REMARK    1  A    between atoms: C3_3  and  C4_4 
REMARK    2  A    between atoms: C6_6  and  C7_7 
REMARK    3  A    between atoms: C7_7  and  N1_8 
REMARK    4  A    between atoms: N1_8  and  C8_9 
REMARK    5  A    between atoms: C12_15  and  O1_16 
REMARK    6  A    between atoms: C14_18  and  O2_19 
ROOT
HETATM    1  C8  UNL     1      29.355   7.484  48.187  1.00  0.00     0.137 A 
HETATM    2  N2  UNL     1      29.249   8.708  48.698  1.00  0.00    -0.224 NA
HETATM    3  C9  UNL     1      30.198   9.414  49.301  1.00  0.00     0.235 A 
HETATM    4  N3  UNL     1      31.387   8.824  49.401  1.00  0.00    -0.241 NA
HETATM    5  C10 UNL     1      31.622   7.575  48.919  1.00  0.00     0.075 A 
HETATM    6  C11 UNL     1      32.880   7.042  49.017  1.00  0.00     0.072 A 
HETATM    7  C12 UNL     1      33.072   5.794  48.472  1.00  0.00     0.103 A 
HETATM    8  C14 UNL     1      32.021   5.103  47.848  1.00  0.00     0.102 A 
HETATM    9  C16 UNL     1      30.761   5.620  47.747  1.00  0.00     0.057 A 
HETATM   10  C17 UNL     1      30.595   6.895  48.305  1.00  0.00     0.041 A 
ENDROOT
BRANCH   1  11
HETATM   11  N1  UNL     1      28.189   6.884  47.581  1.00  0.00    -0.371 N 
HETATM   12  H12 UNL     1      28.076   6.774  46.554  1.00  0.00     0.161 HD
BRANCH  11  13
HETATM   13  C7  UNL     1      27.132   6.416  48.446  1.00  0.00     0.149 C 
BRANCH  13  14
HETATM   14  C6  UNL     1      27.257   5.007  48.817  1.00  0.00    -0.001 C 
HETATM   15  C4  UNL     1      26.201   4.457  49.332  1.00  0.00    -0.065 C 
HETATM   16  C5  UNL     1      24.801   4.771  49.686  1.00  0.00     0.048 C 
BRANCH  15  17
HETATM   17  C3  UNL     1      26.504   3.057  49.643  1.00  0.00     0.002 C 
HETATM   18  C2  UNL     1      26.472   2.562  50.885  1.00  0.00    -0.030 C 
HETATM   19  C1  UNL     1      26.678   1.309  51.715  1.00  0.00     0.036 C 
ENDBRANCH  15  17
ENDBRANCH  13  14
ENDBRANCH  11  13
ENDBRANCH   1  11
BRANCH   8  20
HETATM   20  O2  UNL     1      32.437   3.890  47.385  1.00  0.00    -0.353 OA
HETATM   21  C15 UNL     1      32.527   3.562  46.029  1.00  0.00     0.210 C 
ENDBRANCH   8  20
BRANCH   7  22
HETATM   22  O1  UNL     1      34.311   5.230  48.545  1.00  0.00    -0.353 OA
HETATM   23  C13 UNL     1      35.423   5.607  49.273  1.00  0.00     0.210 C 
ENDBRANCH   7  22
TORSDOF 6
ENDMDL
MODEL 9
REMARK VINA RESULT:      -6.7      2.513      3.986
REMARK  6 active torsions:
REMARK  status: ('A' for Active; 'I' for Inactive)
REMARK    1  A    between atoms: C3_3  and  C4_4 
REMARK    2  A    between atoms: C6_6  and  C7_7 
REMARK    3  A    between atoms: C7_7  and  N1_8 
REMARK    4  A    between atoms: N1_8  and  C8_9 
REMARK    5  A    between atoms: C12_15  and  O1_16 
REMARK    6  A    between atoms: C14_18  and  O2_19 
ROOT
HETATM    1  C8  UNL     1      24.258  -0.201  53.524  1.00  0.00     0.137 A 
HETATM    2  N2  UNL     1      24.850  -0.736  54.588  1.00  0.00    -0.224 NA
HETATM    3  C9  UNL     1      24.269  -1.365  55.603  1.00  0.00     0.235 A 
HETATM    4  N3  UNL     1      22.944  -1.467  55.542  1.00  0.00    -0.241 NA
HETATM    5  C10 UNL     1      22.222  -0.961  54.506  1.00  0.00     0.075 A 
HETATM    6  C11 UNL     1      20.864  -1.137  54.483  1.00  0.00     0.072 A 
HETATM    7  C12 UNL     1      20.191  -0.644  53.390  1.00  0.00     0.103 A 
HETATM    8  C14 UNL     1      20.871   0.013  52.351  1.00  0.00     0.102 A 
HETATM    9  C16 UNL     1      22.224   0.199  52.364  1.00  0.00     0.057 A 
HETATM   10  C17 UNL     1      22.886  -0.319  53.485  1.00  0.00     0.041 A 
ENDROOT
BRANCH   1  11
HETATM   11  N1  UNL     1      25.078   0.456  52.533  1.00  0.00    -0.371 N 
HETATM   12  H12 UNL     1      25.341   0.013  51.630  1.00  0.00     0.161 HD
BRANCH  11  13
HETATM   13  C7  UNL     1      25.555   1.789  52.813  1.00  0.00     0.149 C 
BRANCH  13  14
HETATM   14  C6  UNL     1      24.811   2.837  52.117  1.00  0.00    -0.001 C 
HETATM   15  C4  UNL     1      25.312   3.240  50.990  1.00  0.00    -0.065 C 
HETATM   16  C5  UNL     1      26.449   2.981  50.082  1.00  0.00     0.048 C 
BRANCH  15  17
HETATM   17  C3  UNL     1      24.445   4.285  50.437  1.00  0.00     0.002 C 
HETATM   18  C2  UNL     1      24.763   4.997  49.350  1.00  0.00    -0.030 C 
HETATM   19  C1  UNL     1      24.291   6.101  48.422  1.00  0.00     0.036 C 
ENDBRANCH  15  17
ENDBRANCH  13  14
ENDBRANCH  11  13
ENDBRANCH   1  11
BRANCH   8  20
HETATM   20  O2  UNL     1      20.008   0.417  51.377  1.00  0.00    -0.353 OA
HETATM   21  C15 UNL     1      20.099   1.644  50.714  1.00  0.00     0.210 C 
ENDBRANCH   8  20
BRANCH   7  22
HETATM   22  O1  UNL     1      18.839  -0.802  53.326  1.00  0.00    -0.353 OA
HETATM   23  C13 UNL     1      18.059  -1.923  53.537  1.00  0.00     0.210 C 
ENDBRANCH   7  22
TORSDOF 6
ENDMDL
