MODEL 1
REMARK VINA RESULT:      -8.4      0.000      0.000
REMARK  2 active torsions:
REMARK  status: ('A' for Active; 'I' for Inactive)
REMARK    1  A    between atoms: C10_11  and  C11_12 
REMARK       I    between atoms: C11_12  and  N1_14 
REMARK    2  A    between atoms: N1_14  and  C12_15 
ROOT
HETATM    1  C1  UNL     1      21.177   1.167  49.207  1.00  0.00     0.049 C 
HETATM    2  C2  UNL     1      22.393   1.730  49.873  1.00  0.00    -0.052 A 
HETATM    3  C3  UNL     1      23.233   2.621  49.197  1.00  0.00     0.007 A 
HETATM    4  C4  UNL     1      24.355   3.135  49.819  1.00  0.00     0.001 A 
HETATM    5  C5  UNL     1      24.615   2.739  51.127  1.00  0.00     0.009 A 
HETATM    6  C6  UNL     1      23.786   1.854  51.809  1.00  0.00    -0.031 A 
HETATM    7  C7  UNL     1      22.682   1.358  51.174  1.00  0.00    -0.005 A 
HETATM    8  C8  UNL     1      22.294   0.562  52.354  1.00  0.00     0.144 A 
HETATM    9  C9  UNL     1      20.952   1.092  52.872  1.00  0.00     0.058 C 
HETATM   10  F1  UNL     1      22.228  -0.761  52.017  1.00  0.00    -0.237 F 
HETATM   11  C10 UNL     1      23.466   1.097  53.010  1.00  0.00     0.156 A 
ENDROOT
BRANCH  11  12
HETATM   12  C11 UNL     1      24.583   0.237  53.406  1.00  0.00     0.234 C 
HETATM   13  O1  UNL     1      24.520  -0.487  54.436  1.00  0.00    -0.272 OA
HETATM   14  N1  UNL     1      25.785   0.158  52.681  1.00  0.00    -0.326 N 
HETATM   15  H11 UNL     1      25.782   0.781  51.836  1.00  0.00     0.169 HD
BRANCH  14  16
HETATM   16  C12 UNL     1      26.973  -0.594  52.882  1.00  0.00     0.034 A 
HETATM   17  C13 UNL     1      28.119   0.017  53.341  1.00  0.00     0.029 A 
HETATM   18  C14 UNL     1      29.288  -0.655  53.553  1.00  0.00     0.002 A 
HETATM   19  C15 UNL     1      29.394  -2.007  53.317  1.00  0.00     0.000 A 
HETATM   20  C16 UNL     1      28.275  -2.660  52.858  1.00  0.00     0.002 A 
HETATM   21  C17 UNL     1      27.120  -1.942  52.659  1.00  0.00     0.029 A 
ENDBRANCH  14  16
ENDBRANCH  11  12
TORSDOF 2
ENDMDL
MODEL 2
REMARK VINA RESULT:      -8.1      1.197      1.289
REMARK  2 active torsions:
REMARK  status: ('A' for Active; 'I' for Inactive)
REMARK    1  A    between atoms: C10_11  and  C11_12 
REMARK       I    between atoms: C11_12  and  N1_14 
REMARK    2  A    between atoms: N1_14  and  C12_15 
ROOT
HETATM    1  C1  UNL     1      21.931   1.526  49.125  1.00  0.00     0.049 C 
HETATM    2  C2  UNL     1      23.028   2.381  49.678  1.00  0.00    -0.052 A 
HETATM    3  C3  UNL     1      23.698   3.301  48.867  1.00  0.00     0.007 A 
HETATM    4  C4  UNL     1      24.711   4.086  49.386  1.00  0.00     0.001 A 
HETATM    5  C5  UNL     1      25.035   3.929  50.729  1.00  0.00     0.009 A 
HETATM    6  C6  UNL     1      24.374   3.016  51.546  1.00  0.00    -0.031 A 
HETATM    7  C7  UNL     1      23.376   2.250  51.012  1.00  0.00    -0.005 A 
HETATM    8  C8  UNL     1      23.134   1.572  52.298  1.00  0.00     0.144 A 
HETATM    9  C9  UNL     1      21.718   1.926  52.769  1.00  0.00     0.058 C 
HETATM   10  F1  UNL     1      23.303   0.224  52.149  1.00  0.00    -0.237 F 
HETATM   11  C10 UNL     1      24.191   2.390  52.847  1.00  0.00     0.156 A 
ENDROOT
BRANCH  11  12
HETATM   12  C11 UNL     1      25.442   1.804  53.332  1.00  0.00     0.234 C 
HETATM   13  O1  UNL     1      25.967   2.181  54.414  1.00  0.00    -0.272 OA
HETATM   14  N1  UNL     1      26.137   0.797  52.639  1.00  0.00    -0.326 N 
HETATM   15  H11 UNL     1      25.655   0.523  51.747  1.00  0.00     0.169 HD
BRANCH  14  16
HETATM   16  C12 UNL     1      27.342   0.101  52.922  1.00  0.00     0.034 A 
HETATM   17  C13 UNL     1      28.478   0.789  53.287  1.00  0.00     0.029 A 
HETATM   18  C14 UNL     1      29.663   0.175  53.572  1.00  0.00     0.002 A 
HETATM   19  C15 UNL     1      29.797  -1.194  53.510  1.00  0.00     0.000 A 
HETATM   20  C16 UNL     1      28.689  -1.923  53.150  1.00  0.00     0.002 A 
HETATM   21  C17 UNL     1      27.517  -1.261  52.872  1.00  0.00     0.029 A 
ENDBRANCH  14  16
ENDBRANCH  11  12
TORSDOF 2
ENDMDL
MODEL 3
REMARK VINA RESULT:      -8.0      2.843      6.604
REMARK  2 active torsions:
REMARK  status: ('A' for Active; 'I' for Inactive)
REMARK    1  A    between atoms: C10_11  and  C11_12 
REMARK       I    between atoms: C11_12  and  N1_14 
REMARK    2  A    between atoms: N1_14  and  C12_15 
ROOT
HETATM    1  C1  UNL     1      26.750   2.231  51.060  1.00  0.00     0.049 C 
HETATM    2  C2  UNL     1      26.066   1.202  51.905  1.00  0.00    -0.052 A 
HETATM    3  C3  UNL     1      26.739   0.046  52.311  1.00  0.00     0.007 A 
HETATM    4  C4  UNL     1      26.099  -0.900  53.090  1.00  0.00     0.001 A 
HETATM    5  C5  UNL     1      24.777  -0.662  53.451  1.00  0.00     0.009 A 
HETATM    6  C6  UNL     1      24.098   0.486  53.052  1.00  0.00    -0.031 A 
HETATM    7  C7  UNL     1      24.750   1.407  52.282  1.00  0.00    -0.005 A 
HETATM    8  C8  UNL     1      23.564   2.282  52.229  1.00  0.00     0.144 A 
HETATM    9  C9  UNL     1      23.905   3.599  52.937  1.00  0.00     0.058 C 
HETATM   10  F1  UNL     1      23.195   2.480  50.928  1.00  0.00    -0.237 F 
HETATM   11  C10 UNL     1      22.890   1.297  53.043  1.00  0.00     0.156 A 
ENDROOT
BRANCH  11  12
HETATM   12  C11 UNL     1      21.746   0.536  52.538  1.00  0.00     0.234 C 
HETATM   13  O1  UNL     1      21.816  -0.114  51.460  1.00  0.00    -0.272 OA
HETATM   14  N1  UNL     1      20.509   0.477  53.203  1.00  0.00    -0.326 N 
HETATM   15  H11 UNL     1      20.508   1.036  54.092  1.00  0.00     0.169 HD
BRANCH  14  16
HETATM   16  C12 UNL     1      19.292  -0.187  52.897  1.00  0.00     0.034 A 
HETATM   17  C13 UNL     1      18.905  -1.302  53.608  1.00  0.00     0.029 A 
HETATM   18  C14 UNL     1      17.748  -1.981  53.360  1.00  0.00     0.002 A 
HETATM   19  C15 UNL     1      16.881  -1.585  52.367  1.00  0.00     0.000 A 
HETATM   20  C16 UNL     1      17.223  -0.476  51.631  1.00  0.00     0.002 A 
HETATM   21  C17 UNL     1      18.400   0.176  51.916  1.00  0.00     0.029 A 
ENDBRANCH  14  16
ENDBRANCH  11  12
TORSDOF 2
ENDMDL
MODEL 4
REMARK VINA RESULT:      -7.9      2.872      5.589
REMARK  2 active torsions:
REMARK  status: ('A' for Active; 'I' for Inactive)
REMARK    1  A    between atoms: C10_11  and  C11_12 
REMARK       I    between atoms: C11_12  and  N1_14 
REMARK    2  A    between atoms: N1_14  and  C12_15 
ROOT
HETATM    1  C1  UNL     1      20.874   0.319  54.395  1.00  0.00     0.049 C 
HETATM    2  C2  UNL     1      22.267   0.242  53.851  1.00  0.00    -0.052 A 
HETATM    3  C3  UNL     1      23.268  -0.449  54.540  1.00  0.00     0.007 A 
HETATM    4  C4  UNL     1      24.551  -0.514  54.031  1.00  0.00     0.001 A 
HETATM    5  C5  UNL     1      24.807   0.124  52.822  1.00  0.00     0.009 A 
HETATM    6  C6  UNL     1      23.817   0.813  52.127  1.00  0.00    -0.031 A 
HETATM    7  C7  UNL     1      22.556   0.865  52.650  1.00  0.00    -0.005 A 
HETATM    8  C8  UNL     1      22.062   1.671  51.518  1.00  0.00     0.144 A 
HETATM    9  C9  UNL     1      21.010   0.849  50.763  1.00  0.00     0.058 C 
HETATM   10  F1  UNL     1      21.554   2.854  51.980  1.00  0.00    -0.237 F 
HETATM   11  C10 UNL     1      23.402   1.606  50.980  1.00  0.00     0.156 A 
ENDROOT
BRANCH  11  12
HETATM   12  C11 UNL     1      24.231   2.805  50.838  1.00  0.00     0.234 C 
HETATM   13  O1  UNL     1      24.479   3.551  51.823  1.00  0.00    -0.272 OA
HETATM   14  N1  UNL     1      24.799   3.204  49.615  1.00  0.00    -0.326 N 
HETATM   15  H11 UNL     1      24.559   2.547  48.832  1.00  0.00     0.169 HD
BRANCH  14  16
HETATM   16  C12 UNL     1      25.618   4.307  49.259  1.00  0.00     0.034 A 
HETATM   17  C13 UNL     1      26.970   4.137  49.054  1.00  0.00     0.029 A 
HETATM   18  C14 UNL     1      27.807   5.159  48.710  1.00  0.00     0.002 A 
HETATM   19  C15 UNL     1      27.342   6.444  48.544  1.00  0.00     0.000 A 
HETATM   20  C16 UNL     1      25.999   6.663  48.739  1.00  0.00     0.002 A 
HETATM   21  C17 UNL     1      25.195   5.603  49.084  1.00  0.00     0.029 A 
ENDBRANCH  14  16
ENDBRANCH  11  12
TORSDOF 2
ENDMDL
MODEL 5
REMARK VINA RESULT:      -7.6      2.071      2.512
REMARK  2 active torsions:
REMARK  status: ('A' for Active; 'I' for Inactive)
REMARK    1  A    between atoms: C10_11  and  C11_12 
REMARK       I    between atoms: C11_12  and  N1_14 
REMARK    2  A    between atoms: N1_14  and  C12_15 
ROOT
HETATM    1  C1  UNL     1      21.826   3.721  48.593  1.00  0.00     0.049 C 
HETATM    2  C2  UNL     1      23.154   4.213  49.079  1.00  0.00    -0.052 A 
HETATM    3  C3  UNL     1      23.826   5.241  48.411  1.00  0.00     0.007 A 
HETATM    4  C4  UNL     1      25.052   5.688  48.866  1.00  0.00     0.001 A 
HETATM    5  C5  UNL     1      25.587   5.086  50.000  1.00  0.00     0.009 A 
HETATM    6  C6  UNL     1      24.926   4.062  50.672  1.00  0.00    -0.031 A 
HETATM    7  C7  UNL     1      23.715   3.635  50.204  1.00  0.00    -0.005 A 
HETATM    8  C8  UNL     1      23.591   2.634  51.279  1.00  0.00     0.144 A 
HETATM    9  C9  UNL     1      22.387   3.009  52.151  1.00  0.00     0.058 C 
HETATM   10  F1  UNL     1      23.461   1.386  50.736  1.00  0.00    -0.237 F 
HETATM   11  C10 UNL     1      24.873   3.097  51.760  1.00  0.00     0.156 A 
ENDROOT
BRANCH  11  12
HETATM   12  C11 UNL     1      26.053   2.230  51.757  1.00  0.00     0.234 C 
HETATM   13  O1  UNL     1      26.789   2.129  50.738  1.00  0.00    -0.272 OA
HETATM   14  N1  UNL     1      26.443   1.461  52.866  1.00  0.00    -0.326 N 
HETATM   15  H11 UNL     1      25.795   1.584  53.684  1.00  0.00     0.169 HD
BRANCH  14  16
HETATM   16  C12 UNL     1      27.530   0.571  53.076  1.00  0.00     0.034 A 
HETATM   17  C13 UNL     1      28.752   1.047  53.496  1.00  0.00     0.029 A 
HETATM   18  C14 UNL     1      29.832   0.240  53.715  1.00  0.00     0.002 A 
HETATM   19  C15 UNL     1      29.762  -1.121  53.524  1.00  0.00     0.000 A 
HETATM   20  C16 UNL     1      28.561  -1.643  53.105  1.00  0.00     0.002 A 
HETATM   21  C17 UNL     1      27.502  -0.792  52.898  1.00  0.00     0.029 A 
ENDBRANCH  14  16
ENDBRANCH  11  12
TORSDOF 2
ENDMDL
MODEL 6
REMARK VINA RESULT:      -7.5      3.436      5.162
REMARK  2 active torsions:
REMARK  status: ('A' for Active; 'I' for Inactive)
REMARK    1  A    between atoms: C10_11  and  C11_12 
REMARK       I    between atoms: C11_12  and  N1_14 
REMARK    2  A    between atoms: N1_14  and  C12_15 
ROOT
HETATM    1  C1  UNL     1      23.419   6.622  47.828  1.00  0.00     0.049 C 
HETATM    2  C2  UNL     1      23.143   5.163  48.018  1.00  0.00    -0.052 A 
HETATM    3  C3  UNL     1      22.162   4.515  47.262  1.00  0.00     0.007 A 
HETATM    4  C4  UNL     1      21.913   3.168  47.445  1.00  0.00     0.001 A 
HETATM    5  C5  UNL     1      22.666   2.488  48.397  1.00  0.00     0.009 A 
HETATM    6  C6  UNL     1      23.645   3.124  49.154  1.00  0.00    -0.031 A 
HETATM    7  C7  UNL     1      23.874   4.456  48.957  1.00  0.00    -0.005 A 
HETATM    8  C8  UNL     1      24.931   4.482  49.985  1.00  0.00     0.144 A 
HETATM    9  C9  UNL     1      26.261   4.820  49.299  1.00  0.00     0.058 C 
HETATM   10  F1  UNL     1      24.610   5.389  50.956  1.00  0.00    -0.237 F 
HETATM   11  C10 UNL     1      24.676   3.073  50.180  1.00  0.00     0.156 A 
ENDROOT
BRANCH  11  12
HETATM   12  C11 UNL     1      24.141   2.558  51.442  1.00  0.00     0.234 C 
HETATM   13  O1  UNL     1      24.328   3.166  52.530  1.00  0.00    -0.272 OA
HETATM   14  N1  UNL     1      23.396   1.369  51.531  1.00  0.00    -0.326 N 
HETATM   15  H11 UNL     1      23.272   0.906  50.597  1.00  0.00     0.169 HD
BRANCH  14  16
HETATM   16  C12 UNL     1      22.794   0.701  52.630  1.00  0.00     0.034 A 
HETATM   17  C13 UNL     1      23.482  -0.274  53.318  1.00  0.00     0.029 A 
HETATM   18  C14 UNL     1      22.957  -0.950  54.381  1.00  0.00     0.002 A 
HETATM   19  C15 UNL     1      21.684  -0.693  54.838  1.00  0.00     0.000 A 
HETATM   20  C16 UNL     1      20.958   0.274  54.183  1.00  0.00     0.002 A 
HETATM   21  C17 UNL     1      21.529   0.927  53.117  1.00  0.00     0.029 A 
ENDBRANCH  14  16
ENDBRANCH  11  12
TORSDOF 2
ENDMDL
MODEL 7
REMARK VINA RESULT:      -7.0      2.568      3.692
REMARK  2 active torsions:
REMARK  status: ('A' for Active; 'I' for Inactive)
REMARK    1  A    between atoms: C10_11  and  C11_12 
REMARK       I    between atoms: C11_12  and  N1_14 
REMARK    2  A    between atoms: N1_14  and  C12_15 
ROOT
HETATM    1  C1  UNL     1      21.372   6.347  50.803  1.00  0.00     0.049 C 
HETATM    2  C2  UNL     1      21.461   4.887  51.119  1.00  0.00    -0.052 A 
HETATM    3  C3  UNL     1      20.355   4.193  51.617  1.00  0.00     0.007 A 
HETATM    4  C4  UNL     1      20.446   2.844  51.907  1.00  0.00     0.001 A 
HETATM    5  C5  UNL     1      21.665   2.211  51.688  1.00  0.00     0.009 A 
HETATM    6  C6  UNL     1      22.772   2.893  51.192  1.00  0.00    -0.031 A 
HETATM    7  C7  UNL     1      22.659   4.225  50.913  1.00  0.00    -0.005 A 
HETATM    8  C8  UNL     1      24.063   4.307  50.469  1.00  0.00     0.144 A 
HETATM    9  C9  UNL     1      24.077   4.663  48.977  1.00  0.00     0.058 C 
HETATM   10  F1  UNL     1      24.732   5.230  51.223  1.00  0.00    -0.237 F 
HETATM   11  C10 UNL     1      24.165   2.897  50.771  1.00  0.00     0.156 A 
ENDROOT
BRANCH  11  12
HETATM   12  C11 UNL     1      25.041   2.401  51.834  1.00  0.00     0.234 C 
HETATM   13  O1  UNL     1      24.797   2.638  53.048  1.00  0.00    -0.272 OA
HETATM   14  N1  UNL     1      26.197   1.641  51.583  1.00  0.00    -0.326 N 
HETATM   15  H11 UNL     1      26.350   1.476  50.557  1.00  0.00     0.169 HD
BRANCH  14  16
HETATM   16  C12 UNL     1      27.169   1.070  52.446  1.00  0.00     0.034 A 
HETATM   17  C13 UNL     1      27.217  -0.292  52.642  1.00  0.00     0.029 A 
HETATM   18  C14 UNL     1      28.128  -0.898  53.458  1.00  0.00     0.002 A 
HETATM   19  C15 UNL     1      29.071  -0.169  54.148  1.00  0.00     0.000 A 
HETATM   20  C16 UNL     1      29.062   1.195  53.984  1.00  0.00     0.002 A 
HETATM   21  C17 UNL     1      28.126   1.761  53.152  1.00  0.00     0.029 A 
ENDBRANCH  14  16
ENDBRANCH  11  12
TORSDOF 2
ENDMDL
MODEL 8
REMARK VINA RESULT:      -7.0      3.409      4.878
REMARK  2 active torsions:
REMARK  status: ('A' for Active; 'I' for Inactive)
REMARK    1  A    between atoms: C10_11  and  C11_12 
REMARK       I    between atoms: C11_12  and  N1_14 
REMARK    2  A    between atoms: N1_14  and  C12_15 
ROOT
HETATM    1  C1  UNL     1      23.290   8.097  48.618  1.00  0.00     0.049 C 
HETATM    2  C2  UNL     1      23.186   6.606  48.533  1.00  0.00    -0.052 A 
HETATM    3  C3  UNL     1      22.016   5.995  48.073  1.00  0.00     0.007 A 
HETATM    4  C4  UNL     1      21.928   4.617  47.999  1.00  0.00     0.001 A 
HETATM    5  C5  UNL     1      23.033   3.871  48.395  1.00  0.00     0.009 A 
HETATM    6  C6  UNL     1      24.202   4.470  48.854  1.00  0.00    -0.031 A 
HETATM    7  C7  UNL     1      24.267   5.833  48.919  1.00  0.00    -0.005 A 
HETATM    8  C8  UNL     1      25.646   5.797  49.439  1.00  0.00     0.144 A 
HETATM    9  C9  UNL     1      26.568   6.456  48.406  1.00  0.00     0.058 C 
HETATM   10  F1  UNL     1      25.699   6.430  50.650  1.00  0.00    -0.237 F 
HETATM   11  C10 UNL     1      25.560   4.357  49.364  1.00  0.00     0.156 A 
ENDROOT
BRANCH  11  12
HETATM   12  C11 UNL     1      25.606   3.522  50.566  1.00  0.00     0.234 C 
HETATM   13  O1  UNL     1      24.707   3.591  51.447  1.00  0.00    -0.272 OA
HETATM   14  N1  UNL     1      26.637   2.601  50.822  1.00  0.00    -0.326 N 
HETATM   15  H11 UNL     1      27.356   2.586  50.057  1.00  0.00     0.169 HD
BRANCH  14  16
HETATM   16  C12 UNL     1      26.873   1.708  51.901  1.00  0.00     0.034 A 
HETATM   17  C13 UNL     1      27.744   2.048  52.912  1.00  0.00     0.029 A 
HETATM   18  C14 UNL     1      28.010   1.232  53.974  1.00  0.00     0.002 A 
HETATM   19  C15 UNL     1      27.412  -0.002  54.099  1.00  0.00     0.000 A 
HETATM   20  C16 UNL     1      26.533  -0.384  53.114  1.00  0.00     0.002 A 
HETATM   21  C17 UNL     1      26.297   0.470  52.064  1.00  0.00     0.029 A 
ENDBRANCH  14  16
ENDBRANCH  11  12
TORSDOF 2
ENDMDL
MODEL 9
REMARK VINA RESULT:      -6.9      1.945      2.639
REMARK  2 active torsions:
REMARK  status: ('A' for Active; 'I' for Inactive)
REMARK    1  A    between atoms: C10_11  and  C11_12 
REMARK       I    between atoms: C11_12  and  N1_14 
REMARK    2  A    between atoms: N1_14  and  C12_15 
ROOT
HETATM    1  C1  UNL     1      22.512   4.531  48.259  1.00  0.00     0.049 C 
HETATM    2  C2  UNL     1      22.852   4.647  49.712  1.00  0.00    -0.052 A 
HETATM    3  C3  UNL     1      23.435   5.811  50.221  1.00  0.00     0.007 A 
HETATM    4  C4  UNL     1      23.747   5.909  51.564  1.00  0.00     0.001 A 
HETATM    5  C5  UNL     1      23.463   4.820  52.381  1.00  0.00     0.009 A 
HETATM    6  C6  UNL     1      22.882   3.656  51.885  1.00  0.00    -0.031 A 
HETATM    7  C7  UNL     1      22.583   3.581  50.553  1.00  0.00    -0.005 A 
HETATM    8  C8  UNL     1      22.048   2.215  50.695  1.00  0.00     0.144 A 
HETATM    9  C9  UNL     1      20.551   2.246  50.362  1.00  0.00     0.058 C 
HETATM   10  F1  UNL     1      22.737   1.362  49.879  1.00  0.00    -0.237 F 
HETATM   11  C10 UNL     1      22.372   2.311  52.100  1.00  0.00     0.156 A 
ENDROOT
BRANCH  11  12
HETATM   12  C11 UNL     1      23.386   1.452  52.715  1.00  0.00     0.234 C 
HETATM   13  O1  UNL     1      23.068   0.533  53.517  1.00  0.00    -0.272 OA
HETATM   14  N1  UNL     1      24.762   1.589  52.462  1.00  0.00    -0.326 N 
HETATM   15  H11 UNL     1      24.968   2.368  51.789  1.00  0.00     0.169 HD
BRANCH  14  16
HETATM   16  C12 UNL     1      25.895   0.879  52.940  1.00  0.00     0.034 A 
HETATM   17  C13 UNL     1      26.339  -0.251  52.288  1.00  0.00     0.029 A 
HETATM   18  C14 UNL     1      27.421  -0.974  52.700  1.00  0.00     0.002 A 
HETATM   19  C15 UNL     1      28.147  -0.610  53.812  1.00  0.00     0.000 A 
HETATM   20  C16 UNL     1      27.742   0.511  54.496  1.00  0.00     0.002 A 
HETATM   21  C17 UNL     1      26.646   1.207  54.044  1.00  0.00     0.029 A 
ENDBRANCH  14  16
ENDBRANCH  11  12
TORSDOF 2
ENDMDL
