MODEL 1
REMARK VINA RESULT:      -8.1      0.000      0.000
REMARK  7 active torsions:
REMARK  status: ('A' for Active; 'I' for Inactive)
REMARK    1  A    between atoms: O1_2  and  C2_3 
REMARK    2  A    between atoms: C6_9  and  N3_10 
REMARK    3  A    between atoms: N3_10  and  C7_11 
REMARK    4  A    between atoms: C7_11  and  C8_12 
REMARK    5  A    between atoms: C8_12  and  C9_13 
REMARK    6  A    between atoms: C10_14  and  C11_15 
REMARK    7  A    between atoms: C19_24  and  O3_25 
ROOT
HETATM    1  C2  UNL     1      23.710  -0.234  53.275  1.00  0.00     0.103 A 
HETATM    2  C3  UNL     1      24.998  -0.389  53.746  1.00  0.00     0.072 A 
HETATM    3  C4  UNL     1      26.009   0.474  53.332  1.00  0.00     0.075 A 
HETATM    4  N1  UNL     1      27.307   0.389  53.745  1.00  0.00    -0.241 NA
HETATM    5  C5  UNL     1      28.208   1.288  53.267  1.00  0.00     0.236 A 
HETATM    6  N2  UNL     1      27.872   2.274  52.394  1.00  0.00    -0.224 NA
HETATM    7  C6  UNL     1      26.590   2.357  51.987  1.00  0.00     0.141 A 
HETATM    8  C17 UNL     1      25.655   1.461  52.450  1.00  0.00     0.042 A 
HETATM    9  C18 UNL     1      24.375   1.626  51.973  1.00  0.00     0.057 A 
HETATM   10  C19 UNL     1      23.365   0.784  52.370  1.00  0.00     0.102 A 
ENDROOT
BRANCH   7  11
HETATM   11  N3  UNL     1      26.399   3.462  51.078  1.00  0.00    -0.353 N 
HETATM   12  H6  UNL     1      26.228   4.212  51.788  1.00  0.00     0.166 HD
BRANCH  11  13
HETATM   13  C7  UNL     1      26.506   3.212  49.653  1.00  0.00     0.072 C 
BRANCH  13  14
HETATM   14  C8  UNL     1      26.954   4.253  49.027  1.00  0.00     0.059 C 
BRANCH  14  15
HETATM   15  C9  UNL     1      27.435   5.555  48.659  1.00  0.00    -0.016 C 
HETATM   16  C10 UNL     1      28.733   5.412  48.325  1.00  0.00    -0.003 C 
BRANCH  16  17
HETATM   17  C11 UNL     1      29.747   6.344  47.875  1.00  0.00     0.003 C 
HETATM   18  C12 UNL     1      31.025   6.654  47.990  1.00  0.00    -0.076 C 
HETATM   19  C13 UNL     1      31.900   5.839  48.873  1.00  0.00     0.060 C 
HETATM   20  C16 UNL     1      31.514   7.823  47.221  1.00  0.00     0.060 C 
HETATM   21  C14 UNL     1      33.304   6.396  48.660  1.00  0.00     0.171 C 
HETATM   22  O2  UNL     1      33.339   7.756  48.836  1.00  0.00    -0.391 OA
HETATM   23  C15 UNL     1      32.581   8.513  47.994  1.00  0.00     0.171 C 
ENDBRANCH  16  17
ENDBRANCH  14  15
ENDBRANCH  13  14
ENDBRANCH  11  13
ENDBRANCH   7  11
BRANCH  10  24
HETATM   24  O3  UNL     1      22.048   0.824  51.972  1.00  0.00    -0.353 OA
HETATM   25  C20 UNL     1      21.167   1.851  52.318  1.00  0.00     0.210 C 
ENDBRANCH  10  24
BRANCH   1  26
HETATM   26  O1  UNL     1      22.730  -1.085  53.686  1.00  0.00    -0.353 OA
HETATM   27  C1  UNL     1      22.021  -0.995  54.913  1.00  0.00     0.210 C 
ENDBRANCH   1  26
TORSDOF 7
ENDMDL
MODEL 2
REMARK VINA RESULT:      -8.0      3.728      5.430
REMARK  7 active torsions:
REMARK  status: ('A' for Active; 'I' for Inactive)
REMARK    1  A    between atoms: O1_2  and  C2_3 
REMARK    2  A    between atoms: C6_9  and  N3_10 
REMARK    3  A    between atoms: N3_10  and  C7_11 
REMARK    4  A    between atoms: C7_11  and  C8_12 
REMARK    5  A    between atoms: C8_12  and  C9_13 
REMARK    6  A    between atoms: C10_14  and  C11_15 
REMARK    7  A    between atoms: C19_24  and  O3_25 
ROOT
HETATM    1  C2  UNL     1      26.008  -0.411  53.803  1.00  0.00     0.103 A 
HETATM    2  C3  UNL     1      24.998  -0.963  54.568  1.00  0.00     0.072 A 
HETATM    3  C4  UNL     1      23.669  -0.633  54.323  1.00  0.00     0.075 A 
HETATM    4  N1  UNL     1      22.612  -1.128  55.032  1.00  0.00    -0.241 NA
HETATM    5  C5  UNL     1      21.356  -0.728  54.703  1.00  0.00     0.236 A 
HETATM    6  N2  UNL     1      21.102   0.146  53.693  1.00  0.00    -0.224 NA
HETATM    7  C6  UNL     1      22.145   0.635  52.993  1.00  0.00     0.141 A 
HETATM    8  C17 UNL     1      23.429   0.251  53.303  1.00  0.00     0.042 A 
HETATM    9  C18 UNL     1      24.426   0.808  52.535  1.00  0.00     0.057 A 
HETATM   10  C19 UNL     1      25.743   0.494  52.762  1.00  0.00     0.102 A 
ENDROOT
BRANCH   7  11
HETATM   11  N3  UNL     1      21.704   1.532  51.953  1.00  0.00    -0.353 N 
HETATM   12  H6  UNL     1      21.799   2.431  52.480  1.00  0.00     0.166 HD
BRANCH  11  13
HETATM   13  C7  UNL     1      21.332   0.970  50.668  1.00  0.00     0.072 C 
BRANCH  13  14
HETATM   14  C8  UNL     1      21.864   1.636  49.694  1.00  0.00     0.059 C 
BRANCH  14  15
HETATM   15  C9  UNL     1      22.700   2.456  48.861  1.00  0.00    -0.016 C 
HETATM   16  C10 UNL     1      23.769   2.807  49.604  1.00  0.00    -0.003 C 
BRANCH  16  17
HETATM   17  C11 UNL     1      24.942   3.611  49.332  1.00  0.00     0.003 C 
HETATM   18  C12 UNL     1      25.455   4.819  49.479  1.00  0.00    -0.076 C 
HETATM   19  C13 UNL     1      24.663   5.871  50.166  1.00  0.00     0.060 C 
HETATM   20  C16 UNL     1      26.813   5.053  48.933  1.00  0.00     0.060 C 
HETATM   21  C14 UNL     1      25.602   7.069  50.268  1.00  0.00     0.171 C 
HETATM   22  O2  UNL     1      26.140   7.393  49.047  1.00  0.00    -0.391 OA
HETATM   23  C15 UNL     1      26.912   6.451  48.437  1.00  0.00     0.171 C 
ENDBRANCH  16  17
ENDBRANCH  14  15
ENDBRANCH  13  14
ENDBRANCH  11  13
ENDBRANCH   7  11
BRANCH  10  24
HETATM   24  O3  UNL     1      26.839   0.976  52.083  1.00  0.00    -0.353 OA
HETATM   25  C20 UNL     1      27.055   2.332  51.827  1.00  0.00     0.210 C 
ENDBRANCH  10  24
BRANCH   1  26
HETATM   26  O1  UNL     1      27.305  -0.741  54.053  1.00  0.00    -0.353 OA
HETATM   27  C1  UNL     1      28.221   0.033  54.814  1.00  0.00     0.210 C 
ENDBRANCH   1  26
TORSDOF 7
ENDMDL
MODEL 3
REMARK VINA RESULT:      -8.0      2.899      4.477
REMARK  7 active torsions:
REMARK  status: ('A' for Active; 'I' for Inactive)
REMARK    1  A    between atoms: O1_2  and  C2_3 
REMARK    2  A    between atoms: C6_9  and  N3_10 
REMARK    3  A    between atoms: N3_10  and  C7_11 
REMARK    4  A    between atoms: C7_11  and  C8_12 
REMARK    5  A    between atoms: C8_12  and  C9_13 
REMARK    6  A    between atoms: C10_14  and  C11_15 
REMARK    7  A    between atoms: C19_24  and  O3_25 
ROOT
HETATM    1  C2  UNL     1      26.831  -0.197  53.806  1.00  0.00     0.103 A 
HETATM    2  C3  UNL     1      25.670  -0.835  54.193  1.00  0.00     0.072 A 
HETATM    3  C4  UNL     1      24.428  -0.303  53.859  1.00  0.00     0.075 A 
HETATM    4  N1  UNL     1      23.233  -0.866  54.205  1.00  0.00    -0.241 NA
HETATM    5  C5  UNL     1      22.083  -0.250  53.824  1.00  0.00     0.236 A 
HETATM    6  N2  UNL     1      22.068   0.907  53.111  1.00  0.00    -0.224 NA
HETATM    7  C6  UNL     1      23.248   1.463  52.770  1.00  0.00     0.141 A 
HETATM    8  C17 UNL     1      24.430   0.865  53.142  1.00  0.00     0.042 A 
HETATM    9  C18 UNL     1      25.580   1.511  52.751  1.00  0.00     0.057 A 
HETATM   10  C19 UNL     1      26.814   1.001  53.071  1.00  0.00     0.102 A 
ENDROOT
BRANCH   7  11
HETATM   11  N3  UNL     1      23.056   2.672  52.006  1.00  0.00    -0.353 N 
HETATM   12  H6  UNL     1      23.249   3.363  52.767  1.00  0.00     0.166 HD
BRANCH  11  13
HETATM   13  C7  UNL     1      22.715   2.554  50.600  1.00  0.00     0.072 C 
BRANCH  13  14
HETATM   14  C8  UNL     1      23.605   3.124  49.853  1.00  0.00     0.059 C 
BRANCH  14  15
HETATM   15  C9  UNL     1      24.388   4.047  49.079  1.00  0.00    -0.016 C 
HETATM   16  C10 UNL     1      25.677   3.851  49.424  1.00  0.00    -0.003 C 
BRANCH  16  17
HETATM   17  C11 UNL     1      26.918   4.464  48.998  1.00  0.00     0.003 C 
HETATM   18  C12 UNL     1      27.501   5.627  48.770  1.00  0.00    -0.076 C 
HETATM   19  C13 UNL     1      26.736   6.883  48.982  1.00  0.00     0.060 C 
HETATM   20  C16 UNL     1      28.906   5.603  48.301  1.00  0.00     0.060 C 
HETATM   21  C14 UNL     1      27.745   8.003  48.751  1.00  0.00     0.171 C 
HETATM   22  O2  UNL     1      28.388   7.863  47.547  1.00  0.00    -0.391 OA
HETATM   23  C15 UNL     1      29.135   6.738  47.367  1.00  0.00     0.171 C 
ENDBRANCH  16  17
ENDBRANCH  14  15
ENDBRANCH  13  14
ENDBRANCH  11  13
ENDBRANCH   7  11
BRANCH  10  24
HETATM   24  O3  UNL     1      28.041   1.539  52.756  1.00  0.00    -0.353 OA
HETATM   25  C20 UNL     1      28.684   2.505  53.533  1.00  0.00     0.210 C 
ENDBRANCH  10  24
BRANCH   1  26
HETATM   26  O1  UNL     1      28.040  -0.727  54.140  1.00  0.00    -0.353 OA
HETATM   27  C1  UNL     1      28.882  -1.472  53.272  1.00  0.00     0.210 C 
ENDBRANCH   1  26
TORSDOF 7
ENDMDL
MODEL 4
REMARK VINA RESULT:      -8.0      2.310      3.445
REMARK  7 active torsions:
REMARK  status: ('A' for Active; 'I' for Inactive)
REMARK    1  A    between atoms: O1_2  and  C2_3 
REMARK    2  A    between atoms: C6_9  and  N3_10 
REMARK    3  A    between atoms: N3_10  and  C7_11 
REMARK    4  A    between atoms: C7_11  and  C8_12 
REMARK    5  A    between atoms: C8_12  and  C9_13 
REMARK    6  A    between atoms: C10_14  and  C11_15 
REMARK    7  A    between atoms: C19_24  and  O3_25 
ROOT
HETATM    1  C2  UNL     1      25.969   0.305  54.132  1.00  0.00     0.103 A 
HETATM    2  C3  UNL     1      24.779   0.289  53.432  1.00  0.00     0.072 A 
HETATM    3  C4  UNL     1      24.582   1.151  52.358  1.00  0.00     0.075 A 
HETATM    4  N1  UNL     1      23.436   1.202  51.616  1.00  0.00    -0.241 NA
HETATM    5  C5  UNL     1      23.359   2.092  50.591  1.00  0.00     0.236 A 
HETATM    6  N2  UNL     1      24.375   2.935  50.268  1.00  0.00    -0.224 NA
HETATM    7  C6  UNL     1      25.505   2.883  51.001  1.00  0.00     0.141 A 
HETATM    8  C17 UNL     1      25.614   1.996  52.047  1.00  0.00     0.042 A 
HETATM    9  C18 UNL     1      26.804   2.023  52.736  1.00  0.00     0.057 A 
HETATM   10  C19 UNL     1      27.017   1.179  53.799  1.00  0.00     0.102 A 
ENDROOT
BRANCH   7  11
HETATM   11  N3  UNL     1      26.485   3.827  50.520  1.00  0.00    -0.353 N 
HETATM   12  H6  UNL     1      27.236   3.634  51.222  1.00  0.00     0.166 HD
BRANCH  11  13
HETATM   13  C7  UNL     1      26.159   4.629  49.356  1.00  0.00     0.072 C 
BRANCH  13  14
HETATM   14  C8  UNL     1      27.209   5.221  48.886  1.00  0.00     0.059 C 
BRANCH  14  15
HETATM   15  C9  UNL     1      28.133   6.066  48.181  1.00  0.00    -0.016 C 
HETATM   16  C10 UNL     1      29.335   5.457  48.228  1.00  0.00    -0.003 C 
BRANCH  16  17
HETATM   17  C11 UNL     1      30.641   5.806  47.709  1.00  0.00     0.003 C 
HETATM   18  C12 UNL     1      31.744   5.299  47.190  1.00  0.00    -0.076 C 
HETATM   19  C13 UNL     1      31.851   3.830  46.993  1.00  0.00     0.060 C 
HETATM   20  C16 UNL     1      32.828   6.245  46.838  1.00  0.00     0.060 C 
HETATM   21  C14 UNL     1      33.178   3.625  46.269  1.00  0.00     0.171 C 
HETATM   22  O2  UNL     1      34.213   4.241  46.928  1.00  0.00    -0.391 OA
HETATM   23  C15 UNL     1      34.146   5.595  47.064  1.00  0.00     0.171 C 
ENDBRANCH  16  17
ENDBRANCH  14  15
ENDBRANCH  13  14
ENDBRANCH  11  13
ENDBRANCH   7  11
BRANCH  10  24
HETATM   24  O3  UNL     1      28.147   1.100  54.581  1.00  0.00    -0.353 OA
HETATM   25  C20 UNL     1      29.359   0.568  54.136  1.00  0.00     0.210 C 
ENDBRANCH  10  24
BRANCH   1  26
HETATM   26  O1  UNL     1      26.150  -0.543  55.182  1.00  0.00    -0.353 OA
HETATM   27  C1  UNL     1      25.139  -0.964  56.086  1.00  0.00     0.210 C 
ENDBRANCH   1  26
TORSDOF 7
ENDMDL
MODEL 5
REMARK VINA RESULT:      -7.9      2.491      3.877
REMARK  7 active torsions:
REMARK  status: ('A' for Active; 'I' for Inactive)
REMARK    1  A    between atoms: O1_2  and  C2_3 
REMARK    2  A    between atoms: C6_9  and  N3_10 
REMARK    3  A    between atoms: N3_10  and  C7_11 
REMARK    4  A    between atoms: C7_11  and  C8_12 
REMARK    5  A    between atoms: C8_12  and  C9_13 
REMARK    6  A    between atoms: C10_14  and  C11_15 
REMARK    7  A    between atoms: C19_24  and  O3_25 
ROOT
HETATM    1  C2  UNL     1      27.242  -0.243  53.630  1.00  0.00     0.103 A 
HETATM    2  C3  UNL     1      25.984  -0.810  53.683  1.00  0.00     0.072 A 
HETATM    3  C4  UNL     1      24.879  -0.118  53.198  1.00  0.00     0.075 A 
HETATM    4  N1  UNL     1      23.602  -0.602  53.215  1.00  0.00    -0.241 NA
HETATM    5  C5  UNL     1      22.601   0.170  52.716  1.00  0.00     0.236 A 
HETATM    6  N2  UNL     1      22.814   1.408  52.197  1.00  0.00    -0.224 NA
HETATM    7  C6  UNL     1      24.074   1.885  52.181  1.00  0.00     0.141 A 
HETATM    8  C17 UNL     1      25.109   1.130  52.680  1.00  0.00     0.042 A 
HETATM    9  C18 UNL     1      26.357   1.706  52.622  1.00  0.00     0.057 A 
HETATM   10  C19 UNL     1      27.460   1.038  53.096  1.00  0.00     0.102 A 
ENDROOT
BRANCH   7  11
HETATM   11  N3  UNL     1      24.129   3.199  51.585  1.00  0.00    -0.353 N 
HETATM   12  H6  UNL     1      24.115   3.763  52.466  1.00  0.00     0.166 HD
BRANCH  11  13
HETATM   13  C7  UNL     1      24.192   3.300  50.139  1.00  0.00     0.072 C 
BRANCH  13  14
HETATM   14  C8  UNL     1      25.409   3.471  49.735  1.00  0.00     0.059 C 
BRANCH  14  15
HETATM   15  C9  UNL     1      26.645   3.993  49.219  1.00  0.00    -0.016 C 
HETATM   16  C10 UNL     1      26.422   5.284  48.902  1.00  0.00    -0.003 C 
BRANCH  16  17
HETATM   17  C11 UNL     1      27.262   6.326  48.349  1.00  0.00     0.003 C 
HETATM   18  C12 UNL     1      28.502   6.610  47.995  1.00  0.00    -0.076 C 
HETATM   19  C13 UNL     1      29.563   5.582  48.159  1.00  0.00     0.060 C 
HETATM   20  C16 UNL     1      28.763   7.964  47.454  1.00  0.00     0.060 C 
HETATM   21  C14 UNL     1      30.811   6.201  47.540  1.00  0.00     0.171 C 
HETATM   22  O2  UNL     1      31.067   7.446  48.058  1.00  0.00    -0.391 OA
HETATM   23  C15 UNL     1      30.122   8.408  47.864  1.00  0.00     0.171 C 
ENDBRANCH  16  17
ENDBRANCH  14  15
ENDBRANCH  13  14
ENDBRANCH  11  13
ENDBRANCH   7  11
BRANCH  10  24
HETATM   24  O3  UNL     1      28.760   1.490  53.110  1.00  0.00    -0.353 OA
HETATM   25  C20 UNL     1      29.306   2.241  54.153  1.00  0.00     0.210 C 
ENDBRANCH  10  24
BRANCH   1  26
HETATM   26  O1  UNL     1      28.316  -0.929  54.109  1.00  0.00    -0.353 OA
HETATM   27  C1  UNL     1      29.218  -1.700  53.327  1.00  0.00     0.210 C 
ENDBRANCH   1  26
TORSDOF 7
ENDMDL
MODEL 6
REMARK VINA RESULT:      -7.6      4.281      6.109
REMARK  7 active torsions:
REMARK  status: ('A' for Active; 'I' for Inactive)
REMARK    1  A    between atoms: O1_2  and  C2_3 
REMARK    2  A    between atoms: C6_9  and  N3_10 
REMARK    3  A    between atoms: N3_10  and  C7_11 
REMARK    4  A    between atoms: C7_11  and  C8_12 
REMARK    5  A    between atoms: C8_12  and  C9_13 
REMARK    6  A    between atoms: C10_14  and  C11_15 
REMARK    7  A    between atoms: C19_24  and  O3_25 
ROOT
HETATM    1  C2  UNL     1      27.464   1.039  53.345  1.00  0.00     0.103 A 
HETATM    2  C3  UNL     1      27.045   0.174  54.336  1.00  0.00     0.072 A 
HETATM    3  C4  UNL     1      25.713  -0.225  54.407  1.00  0.00     0.075 A 
HETATM    4  N1  UNL     1      25.215  -1.073  55.355  1.00  0.00    -0.241 NA
HETATM    5  C5  UNL     1      23.893  -1.387  55.324  1.00  0.00     0.236 A 
HETATM    6  N2  UNL     1      23.041  -0.895  54.386  1.00  0.00    -0.224 NA
HETATM    7  C6  UNL     1      23.533  -0.059  53.451  1.00  0.00     0.141 A 
HETATM    8  C17 UNL     1      24.866   0.281  53.456  1.00  0.00     0.042 A 
HETATM    9  C18 UNL     1      25.271   1.143  52.464  1.00  0.00     0.057 A 
HETATM   10  C19 UNL     1      26.580   1.549  52.379  1.00  0.00     0.102 A 
ENDROOT
BRANCH   7  11
HETATM   11  N3  UNL     1      22.505   0.357  52.527  1.00  0.00    -0.353 N 
HETATM   12  H6  UNL     1      22.942  -0.001  51.646  1.00  0.00     0.166 HD
BRANCH  11  13
HETATM   13  C7  UNL     1      21.338   1.040  53.053  1.00  0.00     0.072 C 
BRANCH  13  14
HETATM   14  C8  UNL     1      21.162   2.182  52.471  1.00  0.00     0.059 C 
BRANCH  14  15
HETATM   15  C9  UNL     1      21.316   3.490  51.895  1.00  0.00    -0.016 C 
HETATM   16  C10 UNL     1      22.605   3.845  52.069  1.00  0.00    -0.003 C 
BRANCH  16  17
HETATM   17  C11 UNL     1      23.361   5.027  51.712  1.00  0.00     0.003 C 
HETATM   18  C12 UNL     1      23.870   5.690  50.690  1.00  0.00    -0.076 C 
HETATM   19  C13 UNL     1      23.687   5.163  49.312  1.00  0.00     0.060 C 
HETATM   20  C16 UNL     1      24.612   6.937  50.988  1.00  0.00     0.060 C 
HETATM   21  C14 UNL     1      24.280   6.231  48.399  1.00  0.00     0.171 C 
HETATM   22  O2  UNL     1      25.559   6.562  48.773  1.00  0.00    -0.391 OA
HETATM   23  C15 UNL     1      25.726   7.096  50.016  1.00  0.00     0.171 C 
ENDBRANCH  16  17
ENDBRANCH  14  15
ENDBRANCH  13  14
ENDBRANCH  11  13
ENDBRANCH   7  11
BRANCH  10  24
HETATM   24  O3  UNL     1      27.123   2.408  51.451  1.00  0.00    -0.353 OA
HETATM   25  C20 UNL     1      26.407   2.937  50.375  1.00  0.00     0.210 C 
ENDBRANCH  10  24
BRANCH   1  26
HETATM   26  O1  UNL     1      28.769   1.423  53.287  1.00  0.00    -0.353 OA
HETATM   27  C1  UNL     1      29.484   2.071  54.329  1.00  0.00     0.210 C 
ENDBRANCH   1  26
TORSDOF 7
ENDMDL
MODEL 7
REMARK VINA RESULT:      -7.6      3.590      9.590
REMARK  7 active torsions:
REMARK  status: ('A' for Active; 'I' for Inactive)
REMARK    1  A    between atoms: O1_2  and  C2_3 
REMARK    2  A    between atoms: C6_9  and  N3_10 
REMARK    3  A    between atoms: N3_10  and  C7_11 
REMARK    4  A    between atoms: C7_11  and  C8_12 
REMARK    5  A    between atoms: C8_12  and  C9_13 
REMARK    6  A    between atoms: C10_14  and  C11_15 
REMARK    7  A    between atoms: C19_24  and  O3_25 
ROOT
HETATM    1  C2  UNL     1      32.018   7.505  47.942  1.00  0.00     0.103 A 
HETATM    2  C3  UNL     1      31.413   8.569  48.582  1.00  0.00     0.072 A 
HETATM    3  C4  UNL     1      30.048   8.545  48.852  1.00  0.00     0.075 A 
HETATM    4  N1  UNL     1      29.371   9.554  49.476  1.00  0.00    -0.241 NA
HETATM    5  C5  UNL     1      28.035   9.417  49.682  1.00  0.00     0.236 A 
HETATM    6  N2  UNL     1      27.338   8.316  49.295  1.00  0.00    -0.224 NA
HETATM    7  C6  UNL     1      28.006   7.321  48.679  1.00  0.00     0.141 A 
HETATM    8  C17 UNL     1      29.359   7.429  48.454  1.00  0.00     0.042 A 
HETATM    9  C18 UNL     1      29.949   6.363  47.816  1.00  0.00     0.057 A 
HETATM   10  C19 UNL     1      31.295   6.369  47.540  1.00  0.00     0.102 A 
ENDROOT
BRANCH   7  11
HETATM   11  N3  UNL     1      27.127   6.225  48.350  1.00  0.00    -0.353 N 
HETATM   12  H6  UNL     1      27.523   5.993  47.410  1.00  0.00     0.166 HD
BRANCH  11  13
HETATM   13  C7  UNL     1      26.115   5.837  49.315  1.00  0.00     0.072 C 
BRANCH  13  14
HETATM   14  C8  UNL     1      26.079   4.552  49.464  1.00  0.00     0.059 C 
BRANCH  14  15
HETATM   15  C9  UNL     1      26.390   3.152  49.562  1.00  0.00    -0.016 C 
HETATM   16  C10 UNL     1      26.430   2.853  50.876  1.00  0.00    -0.003 C 
BRANCH  16  17
HETATM   17  C11 UNL     1      26.690   1.627  51.603  1.00  0.00     0.003 C 
HETATM   18  C12 UNL     1      27.407   1.108  52.582  1.00  0.00    -0.076 C 
HETATM   19  C13 UNL     1      28.359   1.973  53.328  1.00  0.00     0.060 C 
HETATM   20  C16 UNL     1      27.220  -0.332  52.876  1.00  0.00     0.060 C 
HETATM   21  C14 UNL     1      28.903   1.087  54.445  1.00  0.00     0.171 C 
HETATM   22  O2  UNL     1      29.392  -0.098  53.957  1.00  0.00    -0.391 OA
HETATM   23  C15 UNL     1      28.512  -0.920  53.318  1.00  0.00     0.171 C 
ENDBRANCH  16  17
ENDBRANCH  14  15
ENDBRANCH  13  14
ENDBRANCH  11  13
ENDBRANCH   7  11
BRANCH  10  24
HETATM   24  O3  UNL     1      32.016   5.383  46.905  1.00  0.00    -0.353 OA
HETATM   25  C20 UNL     1      32.263   4.127  47.462  1.00  0.00     0.210 C 
ENDBRANCH  10  24
BRANCH   1  26
HETATM   26  O1  UNL     1      33.354   7.541  47.682  1.00  0.00    -0.353 OA
HETATM   27  C1  UNL     1      34.090   8.696  47.307  1.00  0.00     0.210 C 
ENDBRANCH   1  26
TORSDOF 7
ENDMDL
MODEL 8
REMARK VINA RESULT:      -7.6      2.728      4.271
REMARK  7 active torsions:
REMARK  status: ('A' for Active; 'I' for Inactive)
REMARK    1  A    between atoms: O1_2  and  C2_3 
REMARK    2  A    between atoms: C6_9  and  N3_10 
REMARK    3  A    between atoms: N3_10  and  C7_11 
REMARK    4  A    between atoms: C7_11  and  C8_12 
REMARK    5  A    between atoms: C8_12  and  C9_13 
REMARK    6  A    between atoms: C10_14  and  C11_15 
REMARK    7  A    between atoms: C19_24  and  O3_25 
ROOT
HETATM    1  C2  UNL     1      20.658   2.910  52.363  1.00  0.00     0.103 A 
HETATM    2  C3  UNL     1      20.737   1.607  52.813  1.00  0.00     0.072 A 
HETATM    3  C4  UNL     1      21.975   1.015  53.045  1.00  0.00     0.075 A 
HETATM    4  N1  UNL     1      22.142  -0.267  53.486  1.00  0.00    -0.241 NA
HETATM    5  C5  UNL     1      23.404  -0.737  53.672  1.00  0.00     0.236 A 
HETATM    6  N2  UNL     1      24.512   0.016  53.439  1.00  0.00    -0.224 NA
HETATM    7  C6  UNL     1      24.346   1.280  53.004  1.00  0.00     0.141 A 
HETATM    8  C17 UNL     1      23.082   1.785  52.804  1.00  0.00     0.042 A 
HETATM    9  C18 UNL     1      23.017   3.084  52.355  1.00  0.00     0.057 A 
HETATM   10  C19 UNL     1      21.805   3.684  52.120  1.00  0.00     0.102 A 
ENDROOT
BRANCH   7  11
HETATM   11  N3  UNL     1      25.615   1.943  52.822  1.00  0.00    -0.353 N 
HETATM   12  H6  UNL     1      25.553   2.608  53.627  1.00  0.00     0.166 HD
BRANCH  11  13
HETATM   13  C7  UNL     1      26.467   1.516  51.728  1.00  0.00     0.072 C 
BRANCH  13  14
HETATM   14  C8  UNL     1      26.526   2.418  50.802  1.00  0.00     0.059 C 
BRANCH  14  15
HETATM   15  C9  UNL     1      26.545   3.137  49.558  1.00  0.00    -0.016 C 
HETATM   16  C10 UNL     1      26.224   4.416  49.841  1.00  0.00    -0.003 C 
BRANCH  16  17
HETATM   17  C11 UNL     1      26.079   5.603  49.023  1.00  0.00     0.003 C 
HETATM   18  C12 UNL     1      26.752   6.481  48.304  1.00  0.00    -0.076 C 
HETATM   19  C13 UNL     1      28.227   6.347  48.178  1.00  0.00     0.060 C 
HETATM   20  C16 UNL     1      25.980   7.570  47.662  1.00  0.00     0.060 C 
HETATM   21  C14 UNL     1      28.639   7.434  47.190  1.00  0.00     0.171 C 
HETATM   22  O2  UNL     1      28.157   8.663  47.563  1.00  0.00    -0.391 OA
HETATM   23  C15 UNL     1      26.803   8.808  47.628  1.00  0.00     0.171 C 
ENDBRANCH  16  17
ENDBRANCH  14  15
ENDBRANCH  13  14
ENDBRANCH  11  13
ENDBRANCH   7  11
BRANCH  10  24
HETATM   24  O3  UNL     1      21.588   4.965  51.666  1.00  0.00    -0.353 OA
HETATM   25  C20 UNL     1      22.607   5.812  51.225  1.00  0.00     0.210 C 
ENDBRANCH  10  24
BRANCH   1  26
HETATM   26  O1  UNL     1      19.441   3.477  52.139  1.00  0.00    -0.353 OA
HETATM   27  C1  UNL     1      18.322   2.826  51.556  1.00  0.00     0.210 C 
ENDBRANCH   1  26
TORSDOF 7
ENDMDL
MODEL 9
REMARK VINA RESULT:      -7.5      5.569      8.253
REMARK  7 active torsions:
REMARK  status: ('A' for Active; 'I' for Inactive)
REMARK    1  A    between atoms: O1_2  and  C2_3 
REMARK    2  A    between atoms: C6_9  and  N3_10 
REMARK    3  A    between atoms: N3_10  and  C7_11 
REMARK    4  A    between atoms: C7_11  and  C8_12 
REMARK    5  A    between atoms: C8_12  and  C9_13 
REMARK    6  A    between atoms: C10_14  and  C11_15 
REMARK    7  A    between atoms: C19_24  and  O3_25 
ROOT
HETATM    1  C2  UNL     1      19.205   2.132  50.371  1.00  0.00     0.103 A 
HETATM    2  C3  UNL     1      18.163   1.227  50.424  1.00  0.00     0.072 A 
HETATM    3  C4  UNL     1      18.121   0.259  51.423  1.00  0.00     0.075 A 
HETATM    4  N1  UNL     1      17.132  -0.674  51.546  1.00  0.00    -0.241 NA
HETATM    5  C5  UNL     1      17.200  -1.573  52.564  1.00  0.00     0.236 A 
HETATM    6  N2  UNL     1      18.213  -1.583  53.470  1.00  0.00    -0.224 NA
HETATM    7  C6  UNL     1      19.189  -0.661  53.348  1.00  0.00     0.141 A 
HETATM    8  C17 UNL     1      19.150   0.261  52.328  1.00  0.00     0.042 A 
HETATM    9  C18 UNL     1      20.193   1.156  52.286  1.00  0.00     0.057 A 
HETATM   10  C19 UNL     1      20.252   2.118  51.307  1.00  0.00     0.102 A 
ENDROOT
BRANCH   7  11
HETATM   11  N3  UNL     1      20.174  -0.800  54.394  1.00  0.00    -0.353 N 
HETATM   12  H6  UNL     1      19.813  -0.058  55.038  1.00  0.00     0.166 HD
BRANCH  11  13
HETATM   13  C7  UNL     1      21.208  -1.805  54.241  1.00  0.00     0.072 C 
BRANCH  13  14
HETATM   14  C8  UNL     1      22.386  -1.269  54.239  1.00  0.00     0.059 C 
BRANCH  14  15
HETATM   15  C9  UNL     1      23.589  -0.551  54.556  1.00  0.00    -0.016 C 
HETATM   16  C10 UNL     1      24.173  -0.229  53.384  1.00  0.00    -0.003 C 
BRANCH  16  17
HETATM   17  C11 UNL     1      25.389   0.483  53.047  1.00  0.00     0.003 C 
HETATM   18  C12 UNL     1      26.632   0.698  53.436  1.00  0.00    -0.076 C 
HETATM   19  C13 UNL     1      27.140   0.031  54.663  1.00  0.00     0.060 C 
HETATM   20  C16 UNL     1      27.455   1.612  52.611  1.00  0.00     0.060 C 
HETATM   21  C14 UNL     1      28.619   0.400  54.729  1.00  0.00     0.171 C 
HETATM   22  O2  UNL     1      28.806   1.756  54.635  1.00  0.00    -0.391 OA
HETATM   23  C15 UNL     1      28.391   2.364  53.488  1.00  0.00     0.171 C 
ENDBRANCH  16  17
ENDBRANCH  14  15
ENDBRANCH  13  14
ENDBRANCH  11  13
ENDBRANCH   7  11
BRANCH  10  24
HETATM   24  O3  UNL     1      21.232   3.069  51.138  1.00  0.00    -0.353 OA
HETATM   25  C20 UNL     1      21.472   4.102  52.046  1.00  0.00     0.210 C 
ENDBRANCH  10  24
BRANCH   1  26
HETATM   26  O1  UNL     1      19.236   3.073  49.387  1.00  0.00    -0.353 OA
HETATM   27  C1  UNL     1      19.667   2.856  48.052  1.00  0.00     0.210 C 
ENDBRANCH   1  26
TORSDOF 7
ENDMDL
