MODEL 1
REMARK VINA RESULT:      -8.5      0.000      0.000
REMARK  6 active torsions:
REMARK  status: ('A' for Active; 'I' for Inactive)
REMARK    1  A    between atoms: C2_2  and  C3_3 
REMARK    2  A    between atoms: C4_4  and  C5_5 
REMARK    3  A    between atoms: C5_5  and  C6_6 
REMARK    4  A    between atoms: C6_6  and  N1_8 
REMARK    5  A    between atoms: C9_11  and  C10_12 
REMARK    6  A    between atoms: C13_15  and  O1_16 
ROOT
HETATM    1  N1  UNL     1      22.787   5.259  50.281  1.00  0.00    -0.068 NA
HETATM    2  C8  UNL     1      23.022   4.096  50.780  1.00  0.00     0.724 A 
HETATM    3  N2  UNL     1      24.118   3.358  51.247  1.00  0.00    -0.064 NA
HETATM    4  C9  UNL     1      23.752   2.178  51.660  1.00  0.00     0.093 A 
HETATM    5  C17 UNL     1      22.310   2.003  51.507  1.00  0.00     0.100 A 
HETATM    6  C18 UNL     1      21.549   1.888  52.811  1.00  0.00     0.067 C 
HETATM    7  C19 UNL     1      20.093   1.819  52.440  1.00  0.00    -0.009 C 
HETATM    8  C20 UNL     1      19.666   0.835  51.622  1.00  0.00    -0.015 C 
HETATM    9 BR1  UNL     1      17.820   0.802  51.191  1.00  0.00    -0.056 Br
HETATM   10  C21 UNL     1      20.859  -0.017  51.255  1.00  0.00     0.053 C 
HETATM   11  C22 UNL     1      21.919   0.842  50.630  1.00  0.00     0.021 C 
HETATM   12  C23 UNL     1      21.373   1.391  49.316  1.00  0.00     0.013 C 
HETATM   13  N3  UNL     1      21.877   3.269  50.930  1.00  0.00    -0.207 N 
HETATM   14  H26 UNL     1      20.841   3.355  50.730  1.00  0.00     0.179 HD
ENDROOT
BRANCH   1  15
HETATM   15  C6  UNL     1      23.838   6.178  50.082  1.00  0.00     0.047 C 
HETATM   16  C7  UNL     1      24.159   6.801  51.201  1.00  0.00     0.041 C 
BRANCH  15  17
HETATM   17  C5  UNL     1      24.507   6.423  48.778  1.00  0.00     0.086 C 
BRANCH  17  18
HETATM   18  C4  UNL     1      25.778   5.669  48.716  1.00  0.00    -0.021 C 
HETATM   19  C3  UNL     1      27.002   6.100  48.562  1.00  0.00    -0.008 C 
BRANCH  19  20
HETATM   20  C2  UNL     1      28.092   5.152  48.534  1.00  0.00    -0.027 C 
HETATM   21  C1  UNL     1      29.295   5.499  48.150  1.00  0.00     0.031 C 
ENDBRANCH  19  20
ENDBRANCH  17  18
ENDBRANCH  15  17
ENDBRANCH   1  15
BRANCH   4  22
HETATM   22  C10 UNL     1      24.791   1.296  52.175  1.00  0.00    -0.008 A 
HETATM   23  C11 UNL     1      24.538   0.316  53.111  1.00  0.00     0.016 A 
HETATM   24  C12 UNL     1      25.475  -0.548  53.636  1.00  0.00     0.037 A 
HETATM   25  C13 UNL     1      26.775  -0.447  53.213  1.00  0.00     0.068 A 
HETATM   26  C15 UNL     1      27.103   0.510  52.278  1.00  0.00     0.037 A 
HETATM   27  C16 UNL     1      26.115   1.337  51.798  1.00  0.00     0.016 A 
BRANCH  25  28
HETATM   28  O1  UNL     1      27.802  -1.258  53.669  1.00  0.00    -0.356 OA
HETATM   29  C14 UNL     1      29.156  -0.838  53.745  1.00  0.00     0.210 C 
ENDBRANCH  25  28
ENDBRANCH   4  22
TORSDOF 6
ENDMDL
MODEL 2
REMARK VINA RESULT:      -8.4      1.720      2.652
REMARK  6 active torsions:
REMARK  status: ('A' for Active; 'I' for Inactive)
REMARK    1  A    between atoms: C2_2  and  C3_3 
REMARK    2  A    between atoms: C4_4  and  C5_5 
REMARK    3  A    between atoms: C5_5  and  C6_6 
REMARK    4  A    between atoms: C6_6  and  N1_8 
REMARK    5  A    between atoms: C9_11  and  C10_12 
REMARK    6  A    between atoms: C13_15  and  O1_16 
ROOT
HETATM    1  N1  UNL     1      25.550   5.562  49.065  1.00  0.00    -0.068 NA
HETATM    2  C8  UNL     1      25.473   4.569  49.880  1.00  0.00     0.724 A 
HETATM    3  N2  UNL     1      26.331   3.640  50.483  1.00  0.00    -0.064 NA
HETATM    4  C9  UNL     1      25.675   2.824  51.258  1.00  0.00     0.093 A 
HETATM    5  C17 UNL     1      24.250   3.143  51.253  1.00  0.00     0.100 A 
HETATM    6  C18 UNL     1      23.716   3.657  52.573  1.00  0.00     0.067 C 
HETATM    7  C19 UNL     1      22.276   4.019  52.329  1.00  0.00    -0.009 C 
HETATM    8  C20 UNL     1      21.426   3.074  51.878  1.00  0.00    -0.015 C 
HETATM    9 BR1  UNL     1      19.625   3.591  51.590  1.00  0.00    -0.056 Br
HETATM   10  C21 UNL     1      22.202   1.787  51.717  1.00  0.00     0.053 C 
HETATM   11  C22 UNL     1      23.365   2.011  50.798  1.00  0.00     0.021 C 
HETATM   12  C23 UNL     1      22.821   2.350  49.414  1.00  0.00     0.013 C 
HETATM   13  N3  UNL     1      24.163   4.279  50.344  1.00  0.00    -0.207 N 
HETATM   14  H26 UNL     1      23.192   4.673  50.190  1.00  0.00     0.179 HD
ENDROOT
BRANCH   1  15
HETATM   15  C6  UNL     1      26.795   5.956  48.532  1.00  0.00     0.047 C 
HETATM   16  C7  UNL     1      26.756   7.191  48.066  1.00  0.00     0.041 C 
BRANCH  15  17
HETATM   17  C5  UNL     1      28.004   5.095  48.492  1.00  0.00     0.086 C 
BRANCH  17  18
HETATM   18  C4  UNL     1      29.173   5.890  48.060  1.00  0.00    -0.021 C 
HETATM   19  C3  UNL     1      30.426   5.540  47.932  1.00  0.00    -0.008 C 
BRANCH  19  20
HETATM   20  C2  UNL     1      31.395   6.513  47.486  1.00  0.00    -0.027 C 
HETATM   21  C1  UNL     1      32.040   7.279  48.331  1.00  0.00     0.031 C 
ENDBRANCH  19  20
ENDBRANCH  17  18
ENDBRANCH  15  17
ENDBRANCH   1  15
BRANCH   4  22
HETATM   22  C10 UNL     1      26.441   1.799  51.954  1.00  0.00    -0.008 A 
HETATM   23  C11 UNL     1      26.106   0.462  51.912  1.00  0.00     0.016 A 
HETATM   24  C12 UNL     1      26.789  -0.553  52.547  1.00  0.00     0.037 A 
HETATM   25  C13 UNL     1      27.896  -0.237  53.291  1.00  0.00     0.068 A 
HETATM   26  C15 UNL     1      28.291   1.079  53.381  1.00  0.00     0.037 A 
HETATM   27  C16 UNL     1      27.561   2.039  52.719  1.00  0.00     0.016 A 
BRANCH  25  28
HETATM   28  O1  UNL     1      28.660  -1.170  53.974  1.00  0.00    -0.356 OA
HETATM   29  C14 UNL     1      30.062  -1.313  53.801  1.00  0.00     0.210 C 
ENDBRANCH  25  28
ENDBRANCH   4  22
TORSDOF 6
ENDMDL
MODEL 3
REMARK VINA RESULT:      -8.3      2.487      5.951
REMARK  6 active torsions:
REMARK  status: ('A' for Active; 'I' for Inactive)
REMARK    1  A    between atoms: C2_2  and  C3_3 
REMARK    2  A    between atoms: C4_4  and  C5_5 
REMARK    3  A    between atoms: C5_5  and  C6_6 
REMARK    4  A    between atoms: C6_6  and  N1_8 
REMARK    5  A    between atoms: C9_11  and  C10_12 
REMARK    6  A    between atoms: C13_15  and  O1_16 
ROOT
HETATM    1  N1  UNL     1      24.097  -0.072  52.785  1.00  0.00    -0.068 NA
HETATM    2  C8  UNL     1      24.066   0.926  51.973  1.00  0.00     0.724 A 
HETATM    3  N2  UNL     1      24.963   1.837  51.399  1.00  0.00    -0.064 NA
HETATM    4  C9  UNL     1      24.349   2.672  50.609  1.00  0.00     0.093 A 
HETATM    5  C17 UNL     1      22.917   2.385  50.571  1.00  0.00     0.100 A 
HETATM    6  C18 UNL     1      22.411   1.888  49.233  1.00  0.00     0.067 C 
HETATM    7  C19 UNL     1      20.956   1.559  49.434  1.00  0.00    -0.009 C 
HETATM    8  C20 UNL     1      20.115   2.521  49.864  1.00  0.00    -0.015 C 
HETATM    9 BR1  UNL     1      18.295   2.044  50.097  1.00  0.00    -0.056 Br
HETATM   10  C21 UNL     1      20.915   3.790  50.053  1.00  0.00     0.053 C 
HETATM   11  C22 UNL     1      22.046   3.535  51.006  1.00  0.00     0.021 C 
HETATM   12  C23 UNL     1      21.453   3.204  52.371  1.00  0.00     0.013 C 
HETATM   13  N3  UNL     1      22.778   1.248  51.472  1.00  0.00    -0.207 N 
HETATM   14  H26 UNL     1      21.794   0.876  51.596  1.00  0.00     0.179 HD
ENDROOT
BRANCH   1  15
HETATM   15  C6  UNL     1      25.316  -0.496  53.353  1.00  0.00     0.047 C 
HETATM   16  C7  UNL     1      25.455  -0.058  54.591  1.00  0.00     0.041 C 
BRANCH  15  17
HETATM   17  C5  UNL     1      26.325  -1.332  52.653  1.00  0.00     0.086 C 
BRANCH  17  18
HETATM   18  C4  UNL     1      27.686  -0.935  53.074  1.00  0.00    -0.021 C 
HETATM   19  C3  UNL     1      28.771  -1.653  53.192  1.00  0.00    -0.008 C 
BRANCH  19  20
HETATM   20  C2  UNL     1      29.996  -1.026  53.628  1.00  0.00    -0.027 C 
HETATM   21  C1  UNL     1      30.126   0.277  53.665  1.00  0.00     0.031 C 
ENDBRANCH  19  20
ENDBRANCH  17  18
ENDBRANCH  15  17
ENDBRANCH   1  15
BRANCH   4  22
HETATM   22  C10 UNL     1      25.158   3.681  49.941  1.00  0.00    -0.008 A 
HETATM   23  C11 UNL     1      26.480   3.474  49.607  1.00  0.00     0.016 A 
HETATM   24  C12 UNL     1      27.297   4.387  48.975  1.00  0.00     0.037 A 
HETATM   25  C13 UNL     1      26.780   5.612  48.639  1.00  0.00     0.068 A 
HETATM   26  C15 UNL     1      25.466   5.891  48.942  1.00  0.00     0.037 A 
HETATM   27  C16 UNL     1      24.710   4.930  49.573  1.00  0.00     0.016 A 
BRANCH  25  28
HETATM   28  O1  UNL     1      27.504   6.608  48.004  1.00  0.00    -0.356 OA
HETATM   29  C14 UNL     1      28.918   6.716  48.075  1.00  0.00     0.210 C 
ENDBRANCH  25  28
ENDBRANCH   4  22
TORSDOF 6
ENDMDL
MODEL 4
REMARK VINA RESULT:      -8.1      2.823      6.290
REMARK  6 active torsions:
REMARK  status: ('A' for Active; 'I' for Inactive)
REMARK    1  A    between atoms: C2_2  and  C3_3 
REMARK    2  A    between atoms: C4_4  and  C5_5 
REMARK    3  A    between atoms: C5_5  and  C6_6 
REMARK    4  A    between atoms: C6_6  and  N1_8 
REMARK    5  A    between atoms: C9_11  and  C10_12 
REMARK    6  A    between atoms: C13_15  and  O1_16 
ROOT
HETATM    1  N1  UNL     1      24.141   1.014  52.305  1.00  0.00    -0.068 NA
HETATM    2  C8  UNL     1      24.262   1.947  51.426  1.00  0.00     0.724 A 
HETATM    3  N2  UNL     1      25.266   2.783  50.919  1.00  0.00    -0.064 NA
HETATM    4  C9  UNL     1      24.800   3.572  49.992  1.00  0.00     0.093 A 
HETATM    5  C17 UNL     1      23.375   3.328  49.777  1.00  0.00     0.100 A 
HETATM    6  C18 UNL     1      23.036   2.745  48.421  1.00  0.00     0.067 C 
HETATM    7  C19 UNL     1      21.555   2.478  48.442  1.00  0.00    -0.009 C 
HETATM    8  C20 UNL     1      20.704   3.495  48.680  1.00  0.00    -0.015 C 
HETATM    9 BR1  UNL     1      18.851   3.095  48.692  1.00  0.00    -0.056 Br
HETATM   10  C21 UNL     1      21.523   4.750  48.886  1.00  0.00     0.053 C 
HETATM   11  C22 UNL     1      22.502   4.535  50.002  1.00  0.00     0.021 C 
HETATM   12  C23 UNL     1      21.716   4.328  51.293  1.00  0.00     0.013 C 
HETATM   13  N3  UNL     1      23.068   2.269  50.730  1.00  0.00    -0.207 N 
HETATM   14  H26 UNL     1      22.062   1.938  50.743  1.00  0.00     0.179 HD
ENDROOT
BRANCH   1  15
HETATM   15  C6  UNL     1      25.253   0.598  53.065  1.00  0.00     0.047 C 
HETATM   16  C7  UNL     1      25.708   1.569  53.836  1.00  0.00     0.041 C 
BRANCH  15  17
HETATM   17  C5  UNL     1      25.847  -0.762  53.012  1.00  0.00     0.086 C 
BRANCH  17  18
HETATM   18  C4  UNL     1      27.305  -0.684  53.249  1.00  0.00    -0.021 C 
HETATM   19  C3  UNL     1      28.238  -1.574  53.043  1.00  0.00    -0.008 C 
BRANCH  19  20
HETATM   20  C2  UNL     1      29.611  -1.254  53.359  1.00  0.00    -0.027 C 
HETATM   21  C1  UNL     1      29.991  -0.025  53.606  1.00  0.00     0.031 C 
ENDBRANCH  19  20
ENDBRANCH  17  18
ENDBRANCH  15  17
ENDBRANCH   1  15
BRANCH   4  22
HETATM   22  C10 UNL     1      25.733   4.501  49.371  1.00  0.00    -0.008 A 
HETATM   23  C11 UNL     1      25.364   5.766  48.964  1.00  0.00     0.016 A 
HETATM   24  C12 UNL     1      26.199   6.690  48.372  1.00  0.00     0.037 A 
HETATM   25  C13 UNL     1      27.509   6.351  48.156  1.00  0.00     0.068 A 
HETATM   26  C15 UNL     1      27.950   5.103  48.536  1.00  0.00     0.037 A 
HETATM   27  C16 UNL     1      27.061   4.233  49.122  1.00  0.00     0.016 A 
BRANCH  25  28
HETATM   28  O1  UNL     1      28.439   7.194  47.568  1.00  0.00    -0.356 OA
HETATM   29  C14 UNL     1      28.090   8.381  46.873  1.00  0.00     0.210 C 
ENDBRANCH  25  28
ENDBRANCH   4  22
TORSDOF 6
ENDMDL
MODEL 5
REMARK VINA RESULT:      -8.0      3.472      5.991
REMARK  6 active torsions:
REMARK  status: ('A' for Active; 'I' for Inactive)
REMARK    1  A    between atoms: C2_2  and  C3_3 
REMARK    2  A    between atoms: C4_4  and  C5_5 
REMARK    3  A    between atoms: C5_5  and  C6_6 
REMARK    4  A    between atoms: C6_6  and  N1_8 
REMARK    5  A    between atoms: C9_11  and  C10_12 
REMARK    6  A    between atoms: C13_15  and  O1_16 
ROOT
HETATM    1  N1  UNL     1      25.297   3.723  50.796  1.00  0.00    -0.068 NA
HETATM    2  C8  UNL     1      24.881   2.688  51.438  1.00  0.00     0.724 A 
HETATM    3  N2  UNL     1      23.662   2.086  51.777  1.00  0.00    -0.064 NA
HETATM    4  C9  UNL     1      23.849   0.999  52.472  1.00  0.00     0.093 A 
HETATM    5  C17 UNL     1      25.275   0.755  52.673  1.00  0.00     0.100 A 
HETATM    6  C18 UNL     1      25.806  -0.479  51.973  1.00  0.00     0.067 C 
HETATM    7  C19 UNL     1      27.290  -0.491  52.218  1.00  0.00    -0.009 C 
HETATM    8  C20 UNL     1      27.750  -0.503  53.486  1.00  0.00    -0.015 C 
HETATM    9 BR1  UNL     1      29.630  -0.518  53.728  1.00  0.00    -0.056 Br
HETATM   10  C21 UNL     1      26.557  -0.498  54.414  1.00  0.00     0.053 C 
HETATM   11  C22 UNL     1      25.693   0.692  54.119  1.00  0.00     0.021 C 
HETATM   12  C23 UNL     1      26.488   1.952  54.447  1.00  0.00     0.013 C 
HETATM   13  N3  UNL     1      25.907   1.876  51.989  1.00  0.00    -0.207 N 
HETATM   14  H26 UNL     1      26.966   1.896  52.017  1.00  0.00     0.179 HD
ENDROOT
BRANCH   1  15
HETATM   15  C6  UNL     1      24.379   4.611  50.198  1.00  0.00     0.047 C 
HETATM   16  C7  UNL     1      23.899   5.476  51.073  1.00  0.00     0.041 C 
BRANCH  15  17
HETATM   17  C5  UNL     1      23.993   4.584  48.765  1.00  0.00     0.086 C 
BRANCH  17  18
HETATM   18  C4  UNL     1      22.866   3.648  48.565  1.00  0.00    -0.021 C 
HETATM   19  C3  UNL     1      22.872   2.392  48.202  1.00  0.00    -0.008 C 
BRANCH  19  20
HETATM   20  C2  UNL     1      21.622   1.681  48.076  1.00  0.00    -0.027 C 
HETATM   21  C1  UNL     1      21.043   1.118  49.108  1.00  0.00     0.031 C 
ENDBRANCH  19  20
ENDBRANCH  17  18
ENDBRANCH  15  17
ENDBRANCH   1  15
BRANCH   4  22
HETATM   22  C10 UNL     1      22.666   0.264  52.897  1.00  0.00    -0.008 A 
HETATM   23  C11 UNL     1      22.736  -0.880  53.665  1.00  0.00     0.016 A 
HETATM   24  C12 UNL     1      21.656  -1.618  54.097  1.00  0.00     0.037 A 
HETATM   25  C13 UNL     1      20.395  -1.208  53.751  1.00  0.00     0.068 A 
HETATM   26  C15 UNL     1      20.246  -0.074  52.984  1.00  0.00     0.037 A 
HETATM   27  C16 UNL     1      21.370   0.614  52.589  1.00  0.00     0.016 A 
BRANCH  25  28
HETATM   28  O1  UNL     1      19.237  -1.870  54.126  1.00  0.00    -0.356 OA
HETATM   29  C14 UNL     1      18.010  -1.762  53.420  1.00  0.00     0.210 C 
ENDBRANCH  25  28
ENDBRANCH   4  22
TORSDOF 6
ENDMDL
MODEL 6
REMARK VINA RESULT:      -8.0      2.750      6.845
REMARK  6 active torsions:
REMARK  status: ('A' for Active; 'I' for Inactive)
REMARK    1  A    between atoms: C2_2  and  C3_3 
REMARK    2  A    between atoms: C4_4  and  C5_5 
REMARK    3  A    between atoms: C5_5  and  C6_6 
REMARK    4  A    between atoms: C6_6  and  N1_8 
REMARK    5  A    between atoms: C9_11  and  C10_12 
REMARK    6  A    between atoms: C13_15  and  O1_16 
ROOT
HETATM    1  N1  UNL     1      19.686   1.716  50.635  1.00  0.00    -0.068 NA
HETATM    2  C8  UNL     1      20.907   1.882  51.005  1.00  0.00     0.724 A 
HETATM    3  N2  UNL     1      21.840   1.262  51.847  1.00  0.00    -0.064 NA
HETATM    4  C9  UNL     1      22.981   1.891  51.833  1.00  0.00     0.093 A 
HETATM    5  C17 UNL     1      22.923   3.044  50.937  1.00  0.00     0.100 A 
HETATM    6  C18 UNL     1      23.805   2.932  49.711  1.00  0.00     0.067 C 
HETATM    7  C19 UNL     1      23.524   4.156  48.882  1.00  0.00    -0.009 C 
HETATM    8  C20 UNL     1      23.715   5.377  49.421  1.00  0.00    -0.015 C 
HETATM    9 BR1  UNL     1      23.343   6.879  48.326  1.00  0.00    -0.056 Br
HETATM   10  C21 UNL     1      24.202   5.189  50.840  1.00  0.00     0.053 C 
HETATM   11  C22 UNL     1      23.213   4.362  51.607  1.00  0.00     0.021 C 
HETATM   12  C23 UNL     1      21.911   5.149  51.709  1.00  0.00     0.013 C 
HETATM   13  N3  UNL     1      21.559   3.002  50.424  1.00  0.00    -0.207 N 
HETATM   14  H26 UNL     1      21.298   3.771  49.744  1.00  0.00     0.179 HD
ENDROOT
BRANCH   1  15
HETATM   15  C6  UNL     1      18.926   0.640  51.137  1.00  0.00     0.047 C 
HETATM   16  C7  UNL     1      18.025   0.231  50.263  1.00  0.00     0.041 C 
BRANCH  15  17
HETATM   17  C5  UNL     1      19.108   0.034  52.481  1.00  0.00     0.086 C 
BRANCH  17  18
HETATM   18  C4  UNL     1      18.085  -1.009  52.706  1.00  0.00    -0.021 C 
HETATM   19  C3  UNL     1      18.157  -2.123  53.384  1.00  0.00    -0.008 C 
BRANCH  19  20
HETATM   20  C2  UNL     1      17.003  -2.989  53.456  1.00  0.00    -0.027 C 
HETATM   21  C1  UNL     1      17.118  -4.268  53.713  1.00  0.00     0.031 C 
ENDBRANCH  19  20
ENDBRANCH  17  18
ENDBRANCH  15  17
ENDBRANCH   1  15
BRANCH   4  22
HETATM   22  C10 UNL     1      24.051   1.359  52.665  1.00  0.00    -0.008 A 
HETATM   23  C11 UNL     1      25.090   2.137  53.130  1.00  0.00     0.016 A 
HETATM   24  C12 UNL     1      26.130   1.692  53.919  1.00  0.00     0.037 A 
HETATM   25  C13 UNL     1      26.160   0.373  54.287  1.00  0.00     0.068 A 
HETATM   26  C15 UNL     1      25.155  -0.466  53.860  1.00  0.00     0.037 A 
HETATM   27  C16 UNL     1      24.149   0.048  53.075  1.00  0.00     0.016 A 
BRANCH  25  28
HETATM   28  O1  UNL     1      27.153  -0.187  55.076  1.00  0.00    -0.356 OA
HETATM   29  C14 UNL     1      28.539   0.030  54.860  1.00  0.00     0.210 C 
ENDBRANCH  25  28
ENDBRANCH   4  22
TORSDOF 6
ENDMDL
MODEL 7
REMARK VINA RESULT:      -7.9      3.282      5.548
REMARK  6 active torsions:
REMARK  status: ('A' for Active; 'I' for Inactive)
REMARK    1  A    between atoms: C2_2  and  C3_3 
REMARK    2  A    between atoms: C4_4  and  C5_5 
REMARK    3  A    between atoms: C5_5  and  C6_6 
REMARK    4  A    between atoms: C6_6  and  N1_8 
REMARK    5  A    between atoms: C9_11  and  C10_12 
REMARK    6  A    between atoms: C13_15  and  O1_16 
ROOT
HETATM    1  N1  UNL     1      26.032   3.423  50.153  1.00  0.00    -0.068 NA
HETATM    2  C8  UNL     1      25.464   2.550  50.909  1.00  0.00     0.724 A 
HETATM    3  N2  UNL     1      24.167   2.129  51.231  1.00  0.00    -0.064 NA
HETATM    4  C9  UNL     1      24.187   1.156  52.098  1.00  0.00     0.093 A 
HETATM    5  C17 UNL     1      25.562   0.811  52.453  1.00  0.00     0.100 A 
HETATM    6  C18 UNL     1      26.003  -0.564  51.999  1.00  0.00     0.067 C 
HETATM    7  C19 UNL     1      27.457  -0.679  52.367  1.00  0.00    -0.009 C 
HETATM    8  C20 UNL     1      27.825  -0.530  53.656  1.00  0.00    -0.015 C 
HETATM    9 BR1  UNL     1      29.671  -0.686  54.057  1.00  0.00    -0.056 Br
HETATM   10  C21 UNL     1      26.579  -0.261  54.469  1.00  0.00     0.053 C 
HETATM   11  C22 UNL     1      25.871   0.943  53.922  1.00  0.00     0.021 C 
HETATM   12  C23 UNL     1      26.772   2.157  54.120  1.00  0.00     0.013 C 
HETATM   13  N3  UNL     1      26.357   1.742  51.662  1.00  0.00    -0.207 N 
HETATM   14  H26 UNL     1      27.407   1.665  51.776  1.00  0.00     0.179 HD
ENDROOT
BRANCH   1  15
HETATM   15  C6  UNL     1      25.259   4.287  49.351  1.00  0.00     0.047 C 
HETATM   16  C7  UNL     1      24.111   3.732  49.004  1.00  0.00     0.041 C 
BRANCH  15  17
HETATM   17  C5  UNL     1      25.675   5.652  48.940  1.00  0.00     0.086 C 
BRANCH  17  18
HETATM   18  C4  UNL     1      27.108   5.654  48.579  1.00  0.00    -0.021 C 
HETATM   19  C3  UNL     1      27.855   6.618  48.108  1.00  0.00    -0.008 C 
BRANCH  19  20
HETATM   20  C2  UNL     1      29.250   6.368  47.831  1.00  0.00    -0.027 C 
HETATM   21  C1  UNL     1      30.012   7.272  47.268  1.00  0.00     0.031 C 
ENDBRANCH  19  20
ENDBRANCH  17  18
ENDBRANCH  15  17
ENDBRANCH   1  15
BRANCH   4  22
HETATM   22  C10 UNL     1      22.906   0.615  52.528  1.00  0.00    -0.008 A 
HETATM   23  C11 UNL     1      21.766   0.698  51.757  1.00  0.00     0.016 A 
HETATM   24  C12 UNL     1      20.526   0.207  52.108  1.00  0.00     0.037 A 
HETATM   25  C13 UNL     1      20.384  -0.420  53.318  1.00  0.00     0.068 A 
HETATM   26  C15 UNL     1      21.480  -0.541  54.143  1.00  0.00     0.037 A 
HETATM   27  C16 UNL     1      22.686  -0.027  53.727  1.00  0.00     0.016 A 
BRANCH  25  28
HETATM   28  O1  UNL     1      19.190  -0.952  53.777  1.00  0.00    -0.356 OA
HETATM   29  C14 UNL     1      18.006  -1.011  52.995  1.00  0.00     0.210 C 
ENDBRANCH  25  28
ENDBRANCH   4  22
TORSDOF 6
ENDMDL
MODEL 8
REMARK VINA RESULT:      -7.9      2.622      6.026
REMARK  6 active torsions:
REMARK  status: ('A' for Active; 'I' for Inactive)
REMARK    1  A    between atoms: C2_2  and  C3_3 
REMARK    2  A    between atoms: C4_4  and  C5_5 
REMARK    3  A    between atoms: C5_5  and  C6_6 
REMARK    4  A    between atoms: C6_6  and  N1_8 
REMARK    5  A    between atoms: C9_11  and  C10_12 
REMARK    6  A    between atoms: C13_15  and  O1_16 
ROOT
HETATM    1  N1  UNL     1      19.951   2.276  50.494  1.00  0.00    -0.068 NA
HETATM    2  C8  UNL     1      21.179   2.368  50.867  1.00  0.00     0.724 A 
HETATM    3  N2  UNL     1      22.067   1.699  51.720  1.00  0.00    -0.064 NA
HETATM    4  C9  UNL     1      23.246   2.253  51.705  1.00  0.00     0.093 A 
HETATM    5  C17 UNL     1      23.265   3.398  50.798  1.00  0.00     0.100 A 
HETATM    6  C18 UNL     1      24.143   3.218  49.578  1.00  0.00     0.067 C 
HETATM    7  C19 UNL     1      23.944   4.449  48.735  1.00  0.00    -0.009 C 
HETATM    8  C20 UNL     1      24.210   5.660  49.263  1.00  0.00    -0.015 C 
HETATM    9 BR1  UNL     1      23.940   7.172  48.151  1.00  0.00    -0.056 Br
HETATM   10  C21 UNL     1      24.678   5.456  50.686  1.00  0.00     0.053 C 
HETATM   11  C22 UNL     1      23.636   4.702  51.456  1.00  0.00     0.021 C 
HETATM   12  C23 UNL     1      22.386   5.571  51.544  1.00  0.00     0.013 C 
HETATM   13  N3  UNL     1      21.903   3.438  50.279  1.00  0.00    -0.207 N 
HETATM   14  H26 UNL     1      21.695   4.215  49.590  1.00  0.00     0.179 HD
ENDROOT
BRANCH   1  15
HETATM   15  C6  UNL     1      19.122   1.256  51.003  1.00  0.00     0.047 C 
HETATM   16  C7  UNL     1      18.639   0.494  50.037  1.00  0.00     0.041 C 
BRANCH  15  17
HETATM   17  C5  UNL     1      18.822   1.054  52.443  1.00  0.00     0.086 C 
BRANCH  17  18
HETATM   18  C4  UNL     1      19.538  -0.138  52.944  1.00  0.00    -0.021 C 
HETATM   19  C3  UNL     1      20.448  -0.241  53.876  1.00  0.00    -0.008 C 
BRANCH  19  20
HETATM   20  C2  UNL     1      21.004  -1.537  54.189  1.00  0.00    -0.027 C 
HETATM   21  C1  UNL     1      22.030  -1.670  54.992  1.00  0.00     0.031 C 
ENDBRANCH  19  20
ENDBRANCH  17  18
ENDBRANCH  15  17
ENDBRANCH   1  15
BRANCH   4  22
HETATM   22  C10 UNL     1      24.276   1.662  52.548  1.00  0.00    -0.008 A 
HETATM   23  C11 UNL     1      25.280   2.407  53.130  1.00  0.00     0.016 A 
HETATM   24  C12 UNL     1      26.281   1.907  53.935  1.00  0.00     0.037 A 
HETATM   25  C13 UNL     1      26.307   0.562  54.196  1.00  0.00     0.068 A 
HETATM   26  C15 UNL     1      25.336  -0.247  53.647  1.00  0.00     0.037 A 
HETATM   27  C16 UNL     1      24.368   0.322  52.854  1.00  0.00     0.016 A 
BRANCH  25  28
HETATM   28  O1  UNL     1      27.263  -0.054  54.988  1.00  0.00    -0.356 OA
HETATM   29  C14 UNL     1      28.659   0.037  54.744  1.00  0.00     0.210 C 
ENDBRANCH  25  28
ENDBRANCH   4  22
TORSDOF 6
ENDMDL
MODEL 9
REMARK VINA RESULT:      -7.7      3.351      7.222
REMARK  6 active torsions:
REMARK  status: ('A' for Active; 'I' for Inactive)
REMARK    1  A    between atoms: C2_2  and  C3_3 
REMARK    2  A    between atoms: C4_4  and  C5_5 
REMARK    3  A    between atoms: C5_5  and  C6_6 
REMARK    4  A    between atoms: C6_6  and  N1_8 
REMARK    5  A    between atoms: C9_11  and  C10_12 
REMARK    6  A    between atoms: C13_15  and  O1_16 
ROOT
HETATM    1  N1  UNL     1      26.247   1.617  52.781  1.00  0.00    -0.068 NA
HETATM    2  C8  UNL     1      25.138   1.961  52.226  1.00  0.00     0.724 A 
HETATM    3  N2  UNL     1      23.892   1.390  51.935  1.00  0.00    -0.064 NA
HETATM    4  C9  UNL     1      23.110   2.242  51.335  1.00  0.00     0.093 A 
HETATM    5  C17 UNL     1      23.785   3.526  51.160  1.00  0.00     0.100 A 
HETATM    6  C18 UNL     1      23.189   4.663  51.963  1.00  0.00     0.067 C 
HETATM    7  C19 UNL     1      24.079   5.853  51.725  1.00  0.00    -0.009 C 
HETATM    8  C20 UNL     1      24.272   6.291  50.464  1.00  0.00    -0.015 C 
HETATM    9 BR1  UNL     1      25.404   7.793  50.230  1.00  0.00    -0.056 Br
HETATM   10  C21 UNL     1      23.481   5.399  49.534  1.00  0.00     0.053 C 
HETATM   11  C22 UNL     1      23.901   3.972  49.726  1.00  0.00     0.021 C 
HETATM   12  C23 UNL     1      25.358   3.842  49.296  1.00  0.00     0.013 C 
HETATM   13  N3  UNL     1      25.098   3.297  51.750  1.00  0.00    -0.207 N 
HETATM   14  H26 UNL     1      25.764   4.120  51.723  1.00  0.00     0.179 HD
ENDROOT
BRANCH   1  15
HETATM   15  C6  UNL     1      26.416   0.317  53.299  1.00  0.00     0.047 C 
HETATM   16  C7  UNL     1      26.755  -0.543  52.355  1.00  0.00     0.041 C 
BRANCH  15  17
HETATM   17  C5  UNL     1      26.237  -0.051  54.727  1.00  0.00     0.086 C 
BRANCH  17  18
HETATM   18  C4  UNL     1      24.997  -0.841  54.890  1.00  0.00    -0.021 C 
HETATM   19  C3  UNL     1      23.762  -0.534  54.595  1.00  0.00    -0.008 C 
BRANCH  19  20
HETATM   20  C2  UNL     1      22.710  -1.490  54.853  1.00  0.00    -0.027 C 
HETATM   21  C1  UNL     1      21.634  -1.547  54.108  1.00  0.00     0.031 C 
ENDBRANCH  19  20
ENDBRANCH  17  18
ENDBRANCH  15  17
ENDBRANCH   1  15
BRANCH   4  22
HETATM   22  C10 UNL     1      21.776   1.786  50.970  1.00  0.00    -0.008 A 
HETATM   23  C11 UNL     1      20.857   1.352  51.902  1.00  0.00     0.016 A 
HETATM   24  C12 UNL     1      19.582   0.909  51.620  1.00  0.00     0.037 A 
HETATM   25  C13 UNL     1      19.166   0.886  50.314  1.00  0.00     0.068 A 
HETATM   26  C15 UNL     1      20.031   1.304  49.327  1.00  0.00     0.037 A 
HETATM   27  C16 UNL     1      21.288   1.734  49.683  1.00  0.00     0.016 A 
BRANCH  25  28
HETATM   28  O1  UNL     1      17.910   0.461  49.910  1.00  0.00    -0.356 OA
HETATM   29  C14 UNL     1      16.972  -0.150  50.783  1.00  0.00     0.210 C 
ENDBRANCH  25  28
ENDBRANCH   4  22
TORSDOF 6
ENDMDL
