MODEL 1
REMARK VINA RESULT:      -7.7      0.000      0.000
REMARK  4 active torsions:
REMARK  status: ('A' for Active; 'I' for Inactive)
REMARK    1  A    between atoms: C6_6  and  C7_7 
REMARK    2  A    between atoms: C6_6  and  N2_9 
REMARK    3  A    between atoms: C7_7  and  N1_8 
REMARK    4  A    between atoms: C9_11  and  N3_12 
ROOT
HETATM    1  C1  UNL     1      19.204   2.239  51.903  1.00  0.00     0.018 C 
HETATM    2  C2  UNL     1      20.205   1.653  52.229  1.00  0.00    -0.077 C 
HETATM    3  C3  UNL     1      21.407   0.969  52.616  1.00  0.00     0.023 A 
HETATM    4  C4  UNL     1      22.609   1.422  52.285  1.00  0.00     0.030 A 
HETATM    5  C5  UNL     1      23.842   0.746  52.665  1.00  0.00    -0.029 A 
HETATM    6  C6  UNL     1      25.026   1.219  52.316  1.00  0.00     0.046 C 
HETATM    7  C13 UNL     1      23.811  -0.505  53.459  1.00  0.00     0.068 A 
HETATM    8  C14 UNL     1      22.404  -0.838  53.723  1.00  0.00    -0.014 A 
HETATM    9  C15 UNL     1      21.262  -0.254  53.395  1.00  0.00    -0.047 A 
HETATM   10  C16 UNL     1      19.973  -0.846  53.817  1.00  0.00     0.049 C 
ENDROOT
BRANCH   6  11
HETATM   11  C7  UNL     1      25.403   2.422  51.536  1.00  0.00     0.324 C 
BRANCH  11  12
HETATM   12  N1  UNL     1      24.912   3.657  52.109  1.00  0.00     0.083 N 
HETATM   13  H5  UNL     1      23.870   3.605  52.131  1.00  0.00     0.313 HD
HETATM   14  H6  UNL     1      25.261   3.848  53.063  1.00  0.00     0.313 HD
ENDBRANCH  11  12
ENDBRANCH   6  11
BRANCH   6  15
HETATM   15  N2  UNL     1      26.236   0.569  52.679  1.00  0.00    -0.352 N 
HETATM   16  C8  UNL     1      27.068   1.307  53.553  1.00  0.00     0.122 A 
HETATM   17  C9  UNL     1      28.218   0.832  53.962  1.00  0.00     0.063 A 
HETATM   18  C10 UNL     1      28.729  -0.478  53.560  1.00  0.00     0.059 A 
HETATM   19 CL1  UNL     1      30.261  -1.145  54.088  1.00  0.00    -0.082 Cl
HETATM   20  C11 UNL     1      27.935  -1.162  52.743  1.00  0.00     0.019 A 
HETATM   21  C12 UNL     1      26.629  -0.749  52.211  1.00  0.00     0.157 A 
BRANCH  17  22
HETATM   22  N3  UNL     1      29.078   1.571  54.852  1.00  0.00    -0.397 N 
HETATM   23  H8  UNL     1      28.901   2.549  55.224  1.00  0.00     0.156 HD
HETATM   24  H9  UNL     1      29.928   0.994  55.089  1.00  0.00     0.156 HD
ENDBRANCH  17  22
ENDBRANCH   6  15
TORSDOF 4
ENDMDL
MODEL 2
REMARK VINA RESULT:      -7.4      3.629      5.499
REMARK  4 active torsions:
REMARK  status: ('A' for Active; 'I' for Inactive)
REMARK    1  A    between atoms: C6_6  and  C7_7 
REMARK    2  A    between atoms: C6_6  and  N2_9 
REMARK    3  A    between atoms: C7_7  and  N1_8 
REMARK    4  A    between atoms: C9_11  and  N3_12 
ROOT
HETATM    1  C1  UNL     1      21.546  -1.763  54.198  1.00  0.00     0.018 C 
HETATM    2  C2  UNL     1      22.289  -0.899  53.808  1.00  0.00    -0.077 C 
HETATM    3  C3  UNL     1      23.162   0.140  53.338  1.00  0.00     0.023 A 
HETATM    4  C4  UNL     1      22.747   1.077  52.496  1.00  0.00     0.030 A 
HETATM    5  C5  UNL     1      23.612   2.141  52.006  1.00  0.00    -0.029 A 
HETATM    6  C6  UNL     1      23.172   3.059  51.163  1.00  0.00     0.046 C 
HETATM    7  C13 UNL     1      25.028   2.231  52.436  1.00  0.00     0.068 A 
HETATM    8  C14 UNL     1      25.291   1.116  53.358  1.00  0.00    -0.014 A 
HETATM    9  C15 UNL     1      24.536   0.134  53.824  1.00  0.00    -0.047 A 
HETATM   10  C16 UNL     1      25.102  -0.862  54.762  1.00  0.00     0.049 C 
ENDROOT
BRANCH   6  11
HETATM   11  C7  UNL     1      21.838   3.254  50.545  1.00  0.00     0.324 C 
BRANCH  11  12
HETATM   12  N1  UNL     1      21.674   2.547  49.293  1.00  0.00     0.083 N 
HETATM   13  H5  UNL     1      21.753   1.526  49.492  1.00  0.00     0.313 HD
HETATM   14  H6  UNL     1      20.775   2.731  48.819  1.00  0.00     0.313 HD
ENDBRANCH  11  12
ENDBRANCH   6  11
BRANCH   6  15
HETATM   15  N2  UNL     1      24.006   4.100  50.676  1.00  0.00    -0.352 N 
HETATM   16  C8  UNL     1      23.784   5.366  51.268  1.00  0.00     0.122 A 
HETATM   17  C9  UNL     1      24.476   6.417  50.908  1.00  0.00     0.063 A 
HETATM   18  C10 UNL     1      25.520   6.374  49.884  1.00  0.00     0.059 A 
HETATM   19 CL1  UNL     1      26.465   7.761  49.378  1.00  0.00    -0.082 Cl
HETATM   20  C11 UNL     1      25.721   5.178  49.340  1.00  0.00     0.019 A 
HETATM   21  C12 UNL     1      25.019   3.925  49.650  1.00  0.00     0.157 A 
BRANCH  17  22
HETATM   22  N3  UNL     1      24.262   7.714  51.501  1.00  0.00    -0.397 N 
HETATM   23  H8  UNL     1      24.887   8.184  52.218  1.00  0.00     0.156 HD
HETATM   24  H9  UNL     1      23.380   8.142  51.116  1.00  0.00     0.156 HD
ENDBRANCH  17  22
ENDBRANCH   6  15
TORSDOF 4
ENDMDL
MODEL 3
REMARK VINA RESULT:      -7.4      3.306      6.570
REMARK  4 active torsions:
REMARK  status: ('A' for Active; 'I' for Inactive)
REMARK    1  A    between atoms: C6_6  and  C7_7 
REMARK    2  A    between atoms: C6_6  and  N2_9 
REMARK    3  A    between atoms: C7_7  and  N1_8 
REMARK    4  A    between atoms: C9_11  and  N3_12 
ROOT
HETATM    1  C1  UNL     1      29.801   2.107  54.353  1.00  0.00     0.018 C 
HETATM    2  C2  UNL     1      28.763   1.606  54.003  1.00  0.00    -0.077 C 
HETATM    3  C3  UNL     1      27.520   1.024  53.581  1.00  0.00     0.023 A 
HETATM    4  C4  UNL     1      26.420   1.752  53.429  1.00  0.00     0.030 A 
HETATM    5  C5  UNL     1      25.148   1.185  53.002  1.00  0.00    -0.029 A 
HETATM    6  C6  UNL     1      24.069   1.934  52.865  1.00  0.00     0.046 C 
HETATM    7  C13 UNL     1      25.020  -0.262  52.708  1.00  0.00     0.068 A 
HETATM    8  C14 UNL     1      26.332  -0.887  52.932  1.00  0.00    -0.014 A 
HETATM    9  C15 UNL     1      27.504  -0.409  53.319  1.00  0.00    -0.047 A 
HETATM   10  C16 UNL     1      28.669  -1.312  53.457  1.00  0.00     0.049 C 
ENDROOT
BRANCH   6  11
HETATM   11  C7  UNL     1      23.857   3.387  53.075  1.00  0.00     0.324 C 
BRANCH  11  12
HETATM   12  N1  UNL     1      24.324   4.202  51.975  1.00  0.00     0.083 N 
HETATM   13  H5  UNL     1      25.299   4.502  52.192  1.00  0.00     0.313 HD
HETATM   14  H6  UNL     1      24.314   3.721  51.060  1.00  0.00     0.313 HD
ENDBRANCH  11  12
ENDBRANCH   6  11
BRANCH   6  15
HETATM   15  N2  UNL     1      22.822   1.394  52.451  1.00  0.00    -0.352 N 
HETATM   16  C8  UNL     1      22.027   0.865  53.496  1.00  0.00     0.122 A 
HETATM   17  C9  UNL     1      20.857   0.328  53.257  1.00  0.00     0.063 A 
HETATM   18  C10 UNL     1      20.281   0.232  51.916  1.00  0.00     0.059 A 
HETATM   19 CL1  UNL     1      18.720  -0.480  51.561  1.00  0.00    -0.082 Cl
HETATM   20  C11 UNL     1      21.037   0.736  50.945  1.00  0.00     0.019 A 
HETATM   21  C12 UNL     1      22.359   1.363  51.075  1.00  0.00     0.157 A 
BRANCH  17  22
HETATM   22  N3  UNL     1      20.035  -0.215  54.310  1.00  0.00    -0.397 N 
HETATM   23  H8  UNL     1      19.497   0.344  55.034  1.00  0.00     0.156 HD
HETATM   24  H9  UNL     1      20.042  -1.267  54.262  1.00  0.00     0.156 HD
ENDBRANCH  17  22
ENDBRANCH   6  15
TORSDOF 4
ENDMDL
MODEL 4
REMARK VINA RESULT:      -7.4      1.695      2.264
REMARK  4 active torsions:
REMARK  status: ('A' for Active; 'I' for Inactive)
REMARK    1  A    between atoms: C6_6  and  C7_7 
REMARK    2  A    between atoms: C6_6  and  N2_9 
REMARK    3  A    between atoms: C7_7  and  N1_8 
REMARK    4  A    between atoms: C9_11  and  N3_12 
ROOT
HETATM    1  C1  UNL     1      17.827   0.534  50.429  1.00  0.00     0.018 C 
HETATM    2  C2  UNL     1      18.820   0.389  51.095  1.00  0.00    -0.077 C 
HETATM    3  C3  UNL     1      20.011   0.230  51.882  1.00  0.00     0.023 A 
HETATM    4  C4  UNL     1      21.160   0.797  51.537  1.00  0.00     0.030 A 
HETATM    5  C5  UNL     1      22.381   0.651  52.318  1.00  0.00    -0.029 A 
HETATM    6  C6  UNL     1      23.512   1.224  51.947  1.00  0.00     0.046 C 
HETATM    7  C13 UNL     1      22.397  -0.153  53.563  1.00  0.00     0.068 A 
HETATM    8  C14 UNL     1      21.044  -0.691  53.771  1.00  0.00    -0.014 A 
HETATM    9  C15 UNL     1      19.916  -0.582  53.087  1.00  0.00    -0.047 A 
HETATM   10  C16 UNL     1      18.688  -1.259  53.563  1.00  0.00     0.049 C 
ENDROOT
BRANCH   6  11
HETATM   11  C7  UNL     1      23.835   2.077  50.777  1.00  0.00     0.324 C 
BRANCH  11  12
HETATM   12  N1  UNL     1      23.399   3.449  50.927  1.00  0.00     0.083 N 
HETATM   13  H5  UNL     1      24.094   3.938  51.533  1.00  0.00     0.313 HD
HETATM   14  H6  UNL     1      23.308   3.962  50.035  1.00  0.00     0.313 HD
ENDBRANCH  11  12
ENDBRANCH   6  11
BRANCH   6  15
HETATM   15  N2  UNL     1      24.710   1.088  52.698  1.00  0.00    -0.352 N 
HETATM   16  C8  UNL     1      25.345  -0.171  52.581  1.00  0.00     0.122 A 
HETATM   17  C9  UNL     1      26.453  -0.437  53.226  1.00  0.00     0.063 A 
HETATM   18  C10 UNL     1      27.118   0.526  54.102  1.00  0.00     0.059 A 
HETATM   19 CL1  UNL     1      28.601   0.203  54.980  1.00  0.00    -0.082 Cl
HETATM   20  C11 UNL     1      26.513   1.706  54.199  1.00  0.00     0.019 A 
HETATM   21  C12 UNL     1      25.275   2.133  53.534  1.00  0.00     0.157 A 
BRANCH  17  22
HETATM   22  N3  UNL     1      27.112  -1.715  53.119  1.00  0.00    -0.397 N 
HETATM   23  H8  UNL     1      27.086  -2.364  52.280  1.00  0.00     0.156 HD
HETATM   24  H9  UNL     1      27.635  -1.923  54.010  1.00  0.00     0.156 HD
ENDBRANCH  17  22
ENDBRANCH   6  15
TORSDOF 4
ENDMDL
MODEL 5
REMARK VINA RESULT:      -7.3      3.090      4.812
REMARK  4 active torsions:
REMARK  status: ('A' for Active; 'I' for Inactive)
REMARK    1  A    between atoms: C6_6  and  C7_7 
REMARK    2  A    between atoms: C6_6  and  N2_9 
REMARK    3  A    between atoms: C7_7  and  N1_8 
REMARK    4  A    between atoms: C9_11  and  N3_12 
ROOT
HETATM    1  C1  UNL     1      21.569  -1.771  54.469  1.00  0.00     0.018 C 
HETATM    2  C2  UNL     1      21.887  -0.917  53.681  1.00  0.00    -0.077 C 
HETATM    3  C3  UNL     1      22.283   0.098  52.746  1.00  0.00     0.023 A 
HETATM    4  C4  UNL     1      23.508   0.608  52.741  1.00  0.00     0.030 A 
HETATM    5  C5  UNL     1      23.934   1.638  51.802  1.00  0.00    -0.029 A 
HETATM    6  C6  UNL     1      25.159   2.130  51.825  1.00  0.00     0.046 C 
HETATM    7  C13 UNL     1      22.999   2.174  50.784  1.00  0.00     0.068 A 
HETATM    8  C14 UNL     1      21.708   1.489  50.951  1.00  0.00    -0.014 A 
HETATM    9  C15 UNL     1      21.285   0.555  51.787  1.00  0.00    -0.047 A 
HETATM   10  C16 UNL     1      19.893   0.055  51.705  1.00  0.00     0.049 C 
ENDROOT
BRANCH   6  11
HETATM   11  C7  UNL     1      26.318   1.822  52.698  1.00  0.00     0.324 C 
BRANCH  11  12
HETATM   12  N1  UNL     1      26.415   2.690  53.852  1.00  0.00     0.083 N 
HETATM   13  H5  UNL     1      26.857   3.583  53.542  1.00  0.00     0.313 HD
HETATM   14  H6  UNL     1      25.508   2.899  54.301  1.00  0.00     0.313 HD
ENDBRANCH  11  12
ENDBRANCH   6  11
BRANCH   6  15
HETATM   15  N2  UNL     1      25.587   3.135  50.917  1.00  0.00    -0.352 N 
HETATM   16  C8  UNL     1      24.884   4.361  51.013  1.00  0.00     0.122 A 
HETATM   17  C9  UNL     1      25.168   5.371  50.231  1.00  0.00     0.063 A 
HETATM   18  C10 UNL     1      26.217   5.323  49.212  1.00  0.00     0.059 A 
HETATM   19 CL1  UNL     1      26.623   6.656  48.149  1.00  0.00    -0.082 Cl
HETATM   20  C11 UNL     1      26.871   4.168  49.136  1.00  0.00     0.019 A 
HETATM   21  C12 UNL     1      26.654   2.963  49.947  1.00  0.00     0.157 A 
BRANCH  17  22
HETATM   22  N3  UNL     1      24.463   6.626  50.315  1.00  0.00    -0.397 N 
HETATM   23  H8  UNL     1      23.936   7.101  49.526  1.00  0.00     0.156 HD
HETATM   24  H9  UNL     1      24.544   7.017  51.290  1.00  0.00     0.156 HD
ENDBRANCH  17  22
ENDBRANCH   6  15
TORSDOF 4
ENDMDL
MODEL 6
REMARK VINA RESULT:      -7.2      4.392      7.467
REMARK  4 active torsions:
REMARK  status: ('A' for Active; 'I' for Inactive)
REMARK    1  A    between atoms: C6_6  and  C7_7 
REMARK    2  A    between atoms: C6_6  and  N2_9 
REMARK    3  A    between atoms: C7_7  and  N1_8 
REMARK    4  A    between atoms: C9_11  and  N3_12 
ROOT
HETATM    1  C1  UNL     1      27.077   8.631  47.334  1.00  0.00     0.018 C 
HETATM    2  C2  UNL     1      26.822   7.589  47.883  1.00  0.00    -0.077 C 
HETATM    3  C3  UNL     1      26.502   6.351  48.536  1.00  0.00     0.023 A 
HETATM    4  C4  UNL     1      25.307   6.126  49.066  1.00  0.00     0.030 A 
HETATM    5  C5  UNL     1      24.958   4.879  49.733  1.00  0.00    -0.029 A 
HETATM    6  C6  UNL     1      23.760   4.686  50.256  1.00  0.00     0.046 C 
HETATM    7  C13 UNL     1      25.943   3.777  49.850  1.00  0.00     0.068 A 
HETATM    8  C14 UNL     1      27.191   4.216  49.208  1.00  0.00    -0.014 A 
HETATM    9  C15 UNL     1      27.545   5.335  48.597  1.00  0.00    -0.047 A 
HETATM   10  C16 UNL     1      28.909   5.481  48.040  1.00  0.00     0.049 C 
ENDROOT
BRANCH   6  11
HETATM   11  C7  UNL     1      22.568   5.566  50.312  1.00  0.00     0.324 C 
BRANCH  11  12
HETATM   12  N1  UNL     1      22.491   6.353  51.524  1.00  0.00     0.083 N 
HETATM   13  H5  UNL     1      22.852   5.766  52.308  1.00  0.00     0.313 HD
HETATM   14  H6  UNL     1      23.027   7.236  51.488  1.00  0.00     0.313 HD
ENDBRANCH  11  12
ENDBRANCH   6  11
BRANCH   6  15
HETATM   15  N2  UNL     1      23.408   3.475  50.910  1.00  0.00    -0.352 N 
HETATM   16  C8  UNL     1      22.596   2.602  50.148  1.00  0.00     0.122 A 
HETATM   17  C9  UNL     1      22.190   1.454  50.631  1.00  0.00     0.063 A 
HETATM   18  C10 UNL     1      22.536   0.985  51.972  1.00  0.00     0.059 A 
HETATM   19 CL1  UNL     1      22.010  -0.544  52.649  1.00  0.00    -0.082 Cl
HETATM   20  C11 UNL     1      23.302   1.813  52.675  1.00  0.00     0.019 A 
HETATM   21  C12 UNL     1      23.824   3.121  52.256  1.00  0.00     0.157 A 
BRANCH  17  22
HETATM   22  N3  UNL     1      21.363   0.553  49.868  1.00  0.00    -0.397 N 
HETATM   23  H8  UNL     1      21.077  -0.428  50.155  1.00  0.00     0.156 HD
HETATM   24  H9  UNL     1      21.074   1.011  48.964  1.00  0.00     0.156 HD
ENDBRANCH  17  22
ENDBRANCH   6  15
TORSDOF 4
ENDMDL
MODEL 7
REMARK VINA RESULT:      -7.1      1.900      3.524
REMARK  4 active torsions:
REMARK  status: ('A' for Active; 'I' for Inactive)
REMARK    1  A    between atoms: C6_6  and  C7_7 
REMARK    2  A    between atoms: C6_6  and  N2_9 
REMARK    3  A    between atoms: C7_7  and  N1_8 
REMARK    4  A    between atoms: C9_11  and  N3_12 
ROOT
HETATM    1  C1  UNL     1      20.713   4.705  50.474  1.00  0.00     0.018 C 
HETATM    2  C2  UNL     1      21.797   4.200  50.620  1.00  0.00    -0.077 C 
HETATM    3  C3  UNL     1      23.082   3.585  50.801  1.00  0.00     0.023 A 
HETATM    4  C4  UNL     1      23.275   2.610  51.681  1.00  0.00     0.030 A 
HETATM    5  C5  UNL     1      24.568   1.970  51.883  1.00  0.00    -0.029 A 
HETATM    6  C6  UNL     1      24.731   1.004  52.770  1.00  0.00     0.046 C 
HETATM    7  C13 UNL     1      25.754   2.385  51.096  1.00  0.00     0.068 A 
HETATM    8  C14 UNL     1      25.339   3.463  50.187  1.00  0.00    -0.014 A 
HETATM    9  C15 UNL     1      24.181   4.069  49.977  1.00  0.00    -0.047 A 
HETATM   10  C16 UNL     1      24.077   5.148  48.968  1.00  0.00     0.049 C 
ENDROOT
BRANCH   6  11
HETATM   11  C7  UNL     1      23.771   0.366  53.703  1.00  0.00     0.324 C 
BRANCH  11  12
HETATM   12  N1  UNL     1      22.937  -0.635  53.074  1.00  0.00     0.083 N 
HETATM   13  H5  UNL     1      22.468  -0.190  52.254  1.00  0.00     0.313 HD
HETATM   14  H6  UNL     1      23.451  -1.473  52.756  1.00  0.00     0.313 HD
ENDBRANCH  11  12
ENDBRANCH   6  11
BRANCH   6  15
HETATM   15  N2  UNL     1      25.986   0.374  52.978  1.00  0.00    -0.352 N 
HETATM   16  C8  UNL     1      26.864   1.067  53.845  1.00  0.00     0.122 A 
HETATM   17  C9  UNL     1      28.057   0.605  54.119  1.00  0.00     0.063 A 
HETATM   18  C10 UNL     1      28.576  -0.646  53.566  1.00  0.00     0.059 A 
HETATM   19 CL1  UNL     1      30.167  -1.295  53.912  1.00  0.00    -0.082 Cl
HETATM   20  C11 UNL     1      27.740  -1.289  52.757  1.00  0.00     0.019 A 
HETATM   21  C12 UNL     1      26.382  -0.884  52.368  1.00  0.00     0.157 A 
BRANCH  17  22
HETATM   22  N3  UNL     1      28.964   1.299  55.000  1.00  0.00    -0.397 N 
HETATM   23  H8  UNL     1      29.296   2.300  54.892  1.00  0.00     0.156 HD
HETATM   24  H9  UNL     1      29.259   0.661  55.785  1.00  0.00     0.156 HD
ENDBRANCH  17  22
ENDBRANCH   6  15
TORSDOF 4
ENDMDL
MODEL 8
REMARK VINA RESULT:      -7.1      4.059      6.648
REMARK  4 active torsions:
REMARK  status: ('A' for Active; 'I' for Inactive)
REMARK    1  A    between atoms: C6_6  and  C7_7 
REMARK    2  A    between atoms: C6_6  and  N2_9 
REMARK    3  A    between atoms: C7_7  and  N1_8 
REMARK    4  A    between atoms: C9_11  and  N3_12 
ROOT
HETATM    1  C1  UNL     1      28.494  -0.805  53.285  1.00  0.00     0.018 C 
HETATM    2  C2  UNL     1      27.464  -0.235  53.030  1.00  0.00    -0.077 C 
HETATM    3  C3  UNL     1      26.242   0.449  52.711  1.00  0.00     0.023 A 
HETATM    4  C4  UNL     1      26.177   1.353  51.741  1.00  0.00     0.030 A 
HETATM    5  C5  UNL     1      24.950   2.060  51.399  1.00  0.00    -0.029 A 
HETATM    6  C6  UNL     1      24.917   2.958  50.431  1.00  0.00     0.046 C 
HETATM    7  C13 UNL     1      23.688   1.794  52.131  1.00  0.00     0.068 A 
HETATM    8  C14 UNL     1      23.965   0.774  53.153  1.00  0.00    -0.014 A 
HETATM    9  C15 UNL     1      25.060   0.113  53.494  1.00  0.00    -0.047 A 
HETATM   10  C16 UNL     1      25.022  -0.876  54.594  1.00  0.00     0.049 C 
ENDROOT
BRANCH   6  11
HETATM   11  C7  UNL     1      25.980   3.452  49.522  1.00  0.00     0.324 C 
BRANCH  11  12
HETATM   12  N1  UNL     1      26.774   4.520  50.092  1.00  0.00     0.083 N 
HETATM   13  H5  UNL     1      26.747   4.417  51.130  1.00  0.00     0.313 HD
HETATM   14  H6  UNL     1      27.758   4.527  49.779  1.00  0.00     0.313 HD
ENDBRANCH  11  12
ENDBRANCH   6  11
BRANCH   6  15
HETATM   15  N2  UNL     1      23.728   3.656  50.088  1.00  0.00    -0.352 N 
HETATM   16  C8  UNL     1      23.448   4.785  50.894  1.00  0.00     0.122 A 
HETATM   17  C9  UNL     1      22.380   5.516  50.695  1.00  0.00     0.063 A 
HETATM   18  C10 UNL     1      21.405   5.235  49.641  1.00  0.00     0.059 A 
HETATM   19 CL1  UNL     1      19.966   6.191  49.347  1.00  0.00    -0.082 Cl
HETATM   20  C11 UNL     1      21.683   4.174  48.890  1.00  0.00     0.019 A 
HETATM   21  C12 UNL     1      22.839   3.275  49.005  1.00  0.00     0.157 A 
BRANCH  17  22
HETATM   22  N3  UNL     1      22.079   6.669  51.506  1.00  0.00    -0.397 N 
HETATM   23  H8  UNL     1      22.782   7.259  52.039  1.00  0.00     0.156 HD
HETATM   24  H9  UNL     1      21.041   6.850  51.500  1.00  0.00     0.156 HD
ENDBRANCH  17  22
ENDBRANCH   6  15
TORSDOF 4
ENDMDL
MODEL 9
REMARK VINA RESULT:      -7.0      4.129      5.193
REMARK  4 active torsions:
REMARK  status: ('A' for Active; 'I' for Inactive)
REMARK    1  A    between atoms: C6_6  and  C7_7 
REMARK    2  A    between atoms: C6_6  and  N2_9 
REMARK    3  A    between atoms: C7_7  and  N1_8 
REMARK    4  A    between atoms: C9_11  and  N3_12 
ROOT
HETATM    1  C1  UNL     1      18.298  -1.424  53.460  1.00  0.00     0.018 C 
HETATM    2  C2  UNL     1      19.285  -0.787  53.194  1.00  0.00    -0.077 C 
HETATM    3  C3  UNL     1      20.451  -0.014  52.871  1.00  0.00     0.023 A 
HETATM    4  C4  UNL     1      20.401   1.017  52.036  1.00  0.00     0.030 A 
HETATM    5  C5  UNL     1      21.569   1.816  51.693  1.00  0.00    -0.029 A 
HETATM    6  C6  UNL     1      21.489   2.834  50.855  1.00  0.00     0.046 C 
HETATM    7  C13 UNL     1      22.898   1.511  52.276  1.00  0.00     0.068 A 
HETATM    8  C14 UNL     1      22.746   0.350  53.165  1.00  0.00    -0.014 A 
HETATM    9  C15 UNL     1      21.708  -0.400  53.499  1.00  0.00    -0.047 A 
HETATM   10  C16 UNL     1      21.876  -1.529  54.442  1.00  0.00     0.049 C 
ENDROOT
BRANCH   6  11
HETATM   11  C7  UNL     1      20.336   3.394  50.109  1.00  0.00     0.324 C 
BRANCH  11  12
HETATM   12  N1  UNL     1      19.456   4.197  50.930  1.00  0.00     0.083 N 
HETATM   13  H5  UNL     1      18.623   3.616  51.167  1.00  0.00     0.313 HD
HETATM   14  H6  UNL     1      19.889   4.539  51.804  1.00  0.00     0.313 HD
ENDBRANCH  11  12
ENDBRANCH   6  11
BRANCH   6  15
HETATM   15  N2  UNL     1      22.621   3.619  50.510  1.00  0.00    -0.352 N 
HETATM   16  C8  UNL     1      22.881   4.702  51.383  1.00  0.00     0.122 A 
HETATM   17  C9  UNL     1      23.888   5.514  51.181  1.00  0.00     0.063 A 
HETATM   18  C10 UNL     1      24.815   5.373  50.058  1.00  0.00     0.059 A 
HETATM   19 CL1  UNL     1      26.172   6.440  49.757  1.00  0.00    -0.082 Cl
HETATM   20  C11 UNL     1      24.561   4.349  49.249  1.00  0.00     0.019 A 
HETATM   21  C12 UNL     1      23.473   3.369  49.360  1.00  0.00     0.157 A 
BRANCH  17  22
HETATM   22  N3  UNL     1      24.167   6.622  52.060  1.00  0.00    -0.397 N 
HETATM   23  H8  UNL     1      25.117   7.064  52.227  1.00  0.00     0.156 HD
HETATM   24  H9  UNL     1      23.278   6.941  52.527  1.00  0.00     0.156 HD
ENDBRANCH  17  22
ENDBRANCH   6  15
TORSDOF 4
ENDMDL
