MODEL 1
REMARK VINA RESULT:      -8.5      0.000      0.000
REMARK  6 active torsions:
REMARK  status: ('A' for Active; 'I' for Inactive)
REMARK    1  A    between atoms: C1_2  and  C2_3 
REMARK    2  A    between atoms: C2_3  and  C3_4 
REMARK    3  A    between atoms: C3_4  and  C4_5 
REMARK       I    between atoms: C4_5  and  N1_7 
REMARK    4  A    between atoms: N1_7  and  C5_8 
REMARK    5  A    between atoms: C10_15  and  N4_16 
REMARK    6  A    between atoms: N4_16  and  C11_17 
ROOT
HETATM    1  C5  UNL     1      25.296  -0.517  54.368  1.00  0.00     0.035 A 
HETATM    2  C6  UNL     1      24.845  -1.228  55.461  1.00  0.00     0.032 A 
HETATM    3  C7  UNL     1      23.496  -1.449  55.584  1.00  0.00     0.035 A 
HETATM    4  C8  UNL     1      22.627  -0.968  54.628  1.00  0.00     0.072 A 
HETATM    5  N2  UNL     1      21.336  -1.239  54.844  1.00  0.00    -0.241 NA
HETATM    6  C9  UNL     1      20.462  -0.783  53.931  1.00  0.00     0.236 A 
HETATM    7  N3  UNL     1      20.849  -0.091  52.855  1.00  0.00    -0.224 NA
HETATM    8  C10 UNL     1      22.121   0.207  52.593  1.00  0.00     0.142 A 
HETATM    9  C17 UNL     1      23.018  -0.250  53.512  1.00  0.00     0.041 A 
HETATM   10  C18 UNL     1      24.376  -0.061  53.446  1.00  0.00     0.047 A 
ENDROOT
BRANCH   8  11
HETATM   11  N4  UNL     1      22.584   0.933  51.473  1.00  0.00    -0.340 N 
HETATM   12  H10 UNL     1      22.649   0.507  50.530  1.00  0.00     0.167 HD
BRANCH  11  13
HETATM   13  C11 UNL     1      23.017   2.280  51.426  1.00  0.00     0.035 A 
HETATM   14  C12 UNL     1      22.408   3.288  52.136  1.00  0.00     0.029 A 
HETATM   15  C13 UNL     1      22.795   4.609  52.106  1.00  0.00     0.004 A 
HETATM   16  C14 UNL     1      23.862   4.993  51.328  1.00  0.00     0.019 A 
HETATM   17  C15 UNL     1      24.499   4.030  50.605  1.00  0.00     0.013 A 
HETATM   18 BR1  UNL     1      25.979   4.493  49.510  1.00  0.00    -0.051 Br
HETATM   19  C16 UNL     1      24.071   2.726  50.670  1.00  0.00     0.048 A 
ENDBRANCH  11  13
ENDBRANCH   8  11
BRANCH   1  20
HETATM   20  N1  UNL     1      26.695  -0.295  54.254  1.00  0.00    -0.327 N 
HETATM   21  C4  UNL     1      27.685  -1.038  53.549  1.00  0.00     0.222 C 
HETATM   22  O2  UNL     1      27.202  -2.038  52.946  1.00  0.00    -0.273 OA
HETATM   23  H6  UNL     1      26.783   0.580  54.846  1.00  0.00     0.169 HD
BRANCH  21  24
HETATM   24  C3  UNL     1      29.004  -0.379  53.755  1.00  0.00     0.110 C 
BRANCH  24  25
HETATM   25  C2  UNL     1      28.793   0.845  54.612  1.00  0.00     0.078 C 
BRANCH  25  26
HETATM   26  C1  UNL     1      29.084   2.115  53.894  1.00  0.00     0.231 C 
HETATM   27  O1  UNL     1      28.036   2.605  54.254  1.00  0.00    -0.307 OA
ENDBRANCH  25  26
ENDBRANCH  24  25
ENDBRANCH  21  24
ENDBRANCH   1  20
TORSDOF 6
ENDMDL
MODEL 2
REMARK VINA RESULT:      -7.7      1.506      2.355
REMARK  6 active torsions:
REMARK  status: ('A' for Active; 'I' for Inactive)
REMARK    1  A    between atoms: C1_2  and  C2_3 
REMARK    2  A    between atoms: C2_3  and  C3_4 
REMARK    3  A    between atoms: C3_4  and  C4_5 
REMARK       I    between atoms: C4_5  and  N1_7 
REMARK    4  A    between atoms: N1_7  and  C5_8 
REMARK    5  A    between atoms: C10_15  and  N4_16 
REMARK    6  A    between atoms: N4_16  and  C11_17 
ROOT
HETATM    1  C5  UNL     1      25.048   0.373  53.156  1.00  0.00     0.035 A 
HETATM    2  C6  UNL     1      24.074  -0.258  53.903  1.00  0.00     0.032 A 
HETATM    3  C7  UNL     1      22.760  -0.049  53.569  1.00  0.00     0.035 A 
HETATM    4  C8  UNL     1      22.437   0.771  52.509  1.00  0.00     0.072 A 
HETATM    5  N2  UNL     1      21.129   0.905  52.269  1.00  0.00    -0.241 NA
HETATM    6  C9  UNL     1      20.781   1.699  51.242  1.00  0.00     0.236 A 
HETATM    7  N3  UNL     1      21.686   2.331  50.489  1.00  0.00    -0.224 NA
HETATM    8  C10 UNL     1      23.000   2.232  50.684  1.00  0.00     0.142 A 
HETATM    9  C17 UNL     1      23.367   1.429  51.723  1.00  0.00     0.041 A 
HETATM   10  C18 UNL     1      24.662   1.182  52.107  1.00  0.00     0.047 A 
ENDROOT
BRANCH   8  11
HETATM   11  N4  UNL     1      23.999   2.875  49.919  1.00  0.00    -0.340 N 
HETATM   12  H10 UNL     1      24.504   2.389  49.155  1.00  0.00     0.167 HD
BRANCH  11  13
HETATM   13  C11 UNL     1      24.465   4.206  50.038  1.00  0.00     0.035 A 
HETATM   14  C12 UNL     1      23.878   5.135  50.864  1.00  0.00     0.029 A 
HETATM   15  C13 UNL     1      24.298   6.440  50.997  1.00  0.00     0.004 A 
HETATM   16  C14 UNL     1      25.379   6.888  50.275  1.00  0.00     0.019 A 
HETATM   17  C15 UNL     1      25.996   6.005  49.441  1.00  0.00     0.013 A 
HETATM   18 BR1  UNL     1      27.493   6.559  48.415  1.00  0.00    -0.051 Br
HETATM   19  C16 UNL     1      25.535   4.714  49.345  1.00  0.00     0.048 A 
ENDBRANCH  11  13
ENDBRANCH   8  11
BRANCH   1  20
HETATM   20  N1  UNL     1      26.405   0.148  53.513  1.00  0.00    -0.327 N 
HETATM   21  C4  UNL     1      27.334  -0.814  53.023  1.00  0.00     0.222 C 
HETATM   22  O2  UNL     1      26.833  -1.562  52.136  1.00  0.00    -0.273 OA
HETATM   23  H6  UNL     1      26.521   0.904  54.247  1.00  0.00     0.169 HD
BRANCH  21  24
HETATM   24  C3  UNL     1      28.629  -0.623  53.733  1.00  0.00     0.110 C 
BRANCH  24  25
HETATM   25  C2  UNL     1      28.497   0.571  54.645  1.00  0.00     0.078 C 
BRANCH  25  26
HETATM   26  C1  UNL     1      29.329   1.726  54.213  1.00  0.00     0.231 C 
HETATM   27  O1  UNL     1      28.395   2.490  54.319  1.00  0.00    -0.307 OA
ENDBRANCH  25  26
ENDBRANCH  24  25
ENDBRANCH  21  24
ENDBRANCH   1  20
TORSDOF 6
ENDMDL
MODEL 3
REMARK VINA RESULT:      -7.7      1.821      2.442
REMARK  6 active torsions:
REMARK  status: ('A' for Active; 'I' for Inactive)
REMARK    1  A    between atoms: C1_2  and  C2_3 
REMARK    2  A    between atoms: C2_3  and  C3_4 
REMARK    3  A    between atoms: C3_4  and  C4_5 
REMARK       I    between atoms: C4_5  and  N1_7 
REMARK    4  A    between atoms: N1_7  and  C5_8 
REMARK    5  A    between atoms: C10_15  and  N4_16 
REMARK    6  A    between atoms: N4_16  and  C11_17 
ROOT
HETATM    1  C5  UNL     1      25.046  -0.295  53.960  1.00  0.00     0.035 A 
HETATM    2  C6  UNL     1      24.773  -1.099  55.047  1.00  0.00     0.032 A 
HETATM    3  C7  UNL     1      23.465  -1.423  55.306  1.00  0.00     0.035 A 
HETATM    4  C8  UNL     1      22.460  -0.950  54.489  1.00  0.00     0.072 A 
HETATM    5  N2  UNL     1      21.224  -1.327  54.830  1.00  0.00    -0.241 NA
HETATM    6  C9  UNL     1      20.221  -0.882  54.054  1.00  0.00     0.236 A 
HETATM    7  N3  UNL     1      20.434  -0.102  52.990  1.00  0.00    -0.224 NA
HETATM    8  C10 UNL     1      21.644   0.301  52.606  1.00  0.00     0.142 A 
HETATM    9  C17 UNL     1      22.671  -0.142  53.385  1.00  0.00     0.041 A 
HETATM   10  C18 UNL     1      23.997   0.147  53.180  1.00  0.00     0.047 A 
ENDROOT
BRANCH   8  11
HETATM   11  N4  UNL     1      21.925   1.123  51.491  1.00  0.00    -0.340 N 
HETATM   12  H10 UNL     1      22.316   0.740  50.611  1.00  0.00     0.167 HD
BRANCH  11  13
HETATM   13  C11 UNL     1      21.742   2.522  51.372  1.00  0.00     0.035 A 
HETATM   14  C12 UNL     1      22.617   3.440  51.902  1.00  0.00     0.029 A 
HETATM   15  C13 UNL     1      22.465   4.806  51.814  1.00  0.00     0.004 A 
HETATM   16  C14 UNL     1      21.377   5.333  51.158  1.00  0.00     0.019 A 
HETATM   17  C15 UNL     1      20.480   4.463  50.615  1.00  0.00     0.013 A 
HETATM   18 BR1  UNL     1      18.958   5.125  49.696  1.00  0.00    -0.051 Br
HETATM   19  C16 UNL     1      20.680   3.109  50.732  1.00  0.00     0.048 A 
ENDBRANCH  11  13
ENDBRANCH   8  11
BRANCH   1  20
HETATM   20  N1  UNL     1      26.405   0.034  53.703  1.00  0.00    -0.327 N 
HETATM   21  C4  UNL     1      27.108   1.254  53.920  1.00  0.00     0.222 C 
HETATM   22  O2  UNL     1      26.374   2.154  54.418  1.00  0.00    -0.273 OA
HETATM   23  H6  UNL     1      26.737  -0.891  53.306  1.00  0.00     0.169 HD
BRANCH  21  24
HETATM   24  C3  UNL     1      28.518   1.069  53.478  1.00  0.00     0.110 C 
BRANCH  24  25
HETATM   25  C2  UNL     1      29.150   0.006  54.342  1.00  0.00     0.078 C 
BRANCH  25  26
HETATM   26  C1  UNL     1      29.834  -1.053  53.553  1.00  0.00     0.231 C 
HETATM   27  O1  UNL     1      28.872  -1.786  53.629  1.00  0.00    -0.307 OA
ENDBRANCH  25  26
ENDBRANCH  24  25
ENDBRANCH  21  24
ENDBRANCH   1  20
TORSDOF 6
ENDMDL
MODEL 4
REMARK VINA RESULT:      -7.6      2.732      5.139
REMARK  6 active torsions:
REMARK  status: ('A' for Active; 'I' for Inactive)
REMARK    1  A    between atoms: C1_2  and  C2_3 
REMARK    2  A    between atoms: C2_3  and  C3_4 
REMARK    3  A    between atoms: C3_4  and  C4_5 
REMARK       I    between atoms: C4_5  and  N1_7 
REMARK    4  A    between atoms: N1_7  and  C5_8 
REMARK    5  A    between atoms: C10_15  and  N4_16 
REMARK    6  A    between atoms: N4_16  and  C11_17 
ROOT
HETATM    1  C5  UNL     1      26.270   1.602  52.214  1.00  0.00     0.035 A 
HETATM    2  C6  UNL     1      26.733   2.174  51.047  1.00  0.00     0.032 A 
HETATM    3  C7  UNL     1      25.838   2.837  50.246  1.00  0.00     0.035 A 
HETATM    4  C8  UNL     1      24.512   2.922  50.613  1.00  0.00     0.072 A 
HETATM    5  N2  UNL     1      23.727   3.590  49.762  1.00  0.00    -0.241 NA
HETATM    6  C9  UNL     1      22.427   3.690  50.091  1.00  0.00     0.236 A 
HETATM    7  N3  UNL     1      21.930   3.155  51.210  1.00  0.00    -0.224 NA
HETATM    8  C10 UNL     1      22.668   2.481  52.091  1.00  0.00     0.142 A 
HETATM    9  C17 UNL     1      23.988   2.371  51.769  1.00  0.00     0.041 A 
HETATM   10  C18 UNL     1      24.931   1.721  52.527  1.00  0.00     0.047 A 
ENDROOT
BRANCH   8  11
HETATM   11  N4  UNL     1      22.195   1.896  53.287  1.00  0.00    -0.340 N 
HETATM   12  H10 UNL     1      22.401   2.304  54.217  1.00  0.00     0.167 HD
BRANCH  11  13
HETATM   13  C11 UNL     1      21.409   0.728  53.434  1.00  0.00     0.035 A 
HETATM   14  C12 UNL     1      21.847  -0.392  54.100  1.00  0.00     0.029 A 
HETATM   15  C13 UNL     1      21.114  -1.548  54.254  1.00  0.00     0.004 A 
HETATM   16  C14 UNL     1      19.849  -1.632  53.722  1.00  0.00     0.019 A 
HETATM   17  C15 UNL     1      19.369  -0.547  53.052  1.00  0.00     0.013 A 
HETATM   18 BR1  UNL     1      17.630  -0.597  52.293  1.00  0.00    -0.051 Br
HETATM   19  C16 UNL     1      20.143   0.582  52.927  1.00  0.00     0.048 A 
ENDBRANCH  11  13
ENDBRANCH   8  11
BRANCH   1  20
HETATM   20  N1  UNL     1      27.208   0.918  53.034  1.00  0.00    -0.327 N 
HETATM   21  C4  UNL     1      28.109   1.426  54.013  1.00  0.00     0.222 C 
HETATM   22  O2  UNL     1      28.028   2.681  54.141  1.00  0.00    -0.273 OA
HETATM   23  H6  UNL     1      27.039  -0.075  52.702  1.00  0.00     0.169 HD
BRANCH  21  24
HETATM   24  C3  UNL     1      28.875   0.284  54.585  1.00  0.00     0.110 C 
BRANCH  24  25
HETATM   25  C2  UNL     1      29.668  -0.358  53.474  1.00  0.00     0.078 C 
BRANCH  25  26
HETATM   26  C1  UNL     1      29.612  -1.844  53.505  1.00  0.00     0.231 C 
HETATM   27  O1  UNL     1      28.425  -1.844  53.262  1.00  0.00    -0.307 OA
ENDBRANCH  25  26
ENDBRANCH  24  25
ENDBRANCH  21  24
ENDBRANCH   1  20
TORSDOF 6
ENDMDL
MODEL 5
REMARK VINA RESULT:      -7.6      2.446      3.802
REMARK  6 active torsions:
REMARK  status: ('A' for Active; 'I' for Inactive)
REMARK    1  A    between atoms: C1_2  and  C2_3 
REMARK    2  A    between atoms: C2_3  and  C3_4 
REMARK    3  A    between atoms: C3_4  and  C4_5 
REMARK       I    between atoms: C4_5  and  N1_7 
REMARK    4  A    between atoms: N1_7  and  C5_8 
REMARK    5  A    between atoms: C10_15  and  N4_16 
REMARK    6  A    between atoms: N4_16  and  C11_17 
ROOT
HETATM    1  C5  UNL     1      24.928   2.348  53.154  1.00  0.00     0.035 A 
HETATM    2  C6  UNL     1      24.266   1.137  53.135  1.00  0.00     0.032 A 
HETATM    3  C7  UNL     1      22.949   1.120  52.750  1.00  0.00     0.035 A 
HETATM    4  C8  UNL     1      22.318   2.292  52.393  1.00  0.00     0.072 A 
HETATM    5  N2  UNL     1      21.037   2.163  52.034  1.00  0.00    -0.241 NA
HETATM    6  C9  UNL     1      20.392   3.288  51.680  1.00  0.00     0.236 A 
HETATM    7  N3  UNL     1      20.988   4.484  51.681  1.00  0.00    -0.224 NA
HETATM    8  C10 UNL     1      22.261   4.668  52.029  1.00  0.00     0.142 A 
HETATM    9  C17 UNL     1      22.927   3.535  52.391  1.00  0.00     0.041 A 
HETATM   10  C18 UNL     1      24.241   3.486  52.785  1.00  0.00     0.047 A 
ENDROOT
BRANCH   8  11
HETATM   11  N4  UNL     1      22.940   5.907  52.048  1.00  0.00    -0.340 N 
HETATM   12  H10 UNL     1      23.038   6.467  52.915  1.00  0.00     0.167 HD
BRANCH  11  13
HETATM   13  C11 UNL     1      23.570   6.571  50.968  1.00  0.00     0.035 A 
HETATM   14  C12 UNL     1      23.053   7.701  50.379  1.00  0.00     0.029 A 
HETATM   15  C13 UNL     1      23.632   8.367  49.322  1.00  0.00     0.004 A 
HETATM   16  C14 UNL     1      24.812   7.906  48.787  1.00  0.00     0.019 A 
HETATM   17  C15 UNL     1      25.365   6.788  49.336  1.00  0.00     0.013 A 
HETATM   18 BR1  UNL     1      26.993   6.100  48.644  1.00  0.00    -0.051 Br
HETATM   19  C16 UNL     1      24.744   6.162  50.390  1.00  0.00     0.048 A 
ENDBRANCH  11  13
ENDBRANCH   8  11
BRANCH   1  20
HETATM   20  N1  UNL     1      26.291   2.351  53.555  1.00  0.00    -0.327 N 
HETATM   21  C4  UNL     1      27.477   2.280  52.769  1.00  0.00     0.222 C 
HETATM   22  O2  UNL     1      27.233   2.205  51.532  1.00  0.00    -0.273 OA
HETATM   23  H6  UNL     1      26.165   2.421  54.606  1.00  0.00     0.169 HD
BRANCH  21  24
HETATM   24  C3  UNL     1      28.651   2.319  53.684  1.00  0.00     0.110 C 
BRANCH  24  25
HETATM   25  C2  UNL     1      29.199   0.918  53.811  1.00  0.00     0.078 C 
BRANCH  25  26
HETATM   26  C1  UNL     1      28.527   0.127  54.875  1.00  0.00     0.231 C 
HETATM   27  O1  UNL     1      28.494  -0.861  54.174  1.00  0.00    -0.307 OA
ENDBRANCH  25  26
ENDBRANCH  24  25
ENDBRANCH  21  24
ENDBRANCH   1  20
TORSDOF 6
ENDMDL
MODEL 6
REMARK VINA RESULT:      -7.4      1.767      1.978
REMARK  6 active torsions:
REMARK  status: ('A' for Active; 'I' for Inactive)
REMARK    1  A    between atoms: C1_2  and  C2_3 
REMARK    2  A    between atoms: C2_3  and  C3_4 
REMARK    3  A    between atoms: C3_4  and  C4_5 
REMARK       I    between atoms: C4_5  and  N1_7 
REMARK    4  A    between atoms: N1_7  and  C5_8 
REMARK    5  A    between atoms: C10_15  and  N4_16 
REMARK    6  A    between atoms: N4_16  and  C11_17 
ROOT
HETATM    1  C5  UNL     1      24.957  -0.374  54.193  1.00  0.00     0.035 A 
HETATM    2  C6  UNL     1      24.174  -1.104  55.063  1.00  0.00     0.032 A 
HETATM    3  C7  UNL     1      22.822  -1.159  54.833  1.00  0.00     0.035 A 
HETATM    4  C8  UNL     1      22.276  -0.497  53.754  1.00  0.00     0.072 A 
HETATM    5  N2  UNL     1      20.951  -0.616  53.623  1.00  0.00    -0.241 NA
HETATM    6  C9  UNL     1      20.388   0.019  52.581  1.00  0.00     0.236 A 
HETATM    7  N3  UNL     1      21.103   0.737  51.711  1.00  0.00    -0.224 NA
HETATM    8  C10 UNL     1      22.424   0.889  51.795  1.00  0.00     0.142 A 
HETATM    9  C17 UNL     1      23.009   0.250  52.848  1.00  0.00     0.041 A 
HETATM   10  C18 UNL     1      24.352   0.267  53.132  1.00  0.00     0.047 A 
ENDROOT
BRANCH   8  11
HETATM   11  N4  UNL     1      23.228   1.635  50.904  1.00  0.00    -0.340 N 
HETATM   12  H10 UNL     1      24.226   1.405  50.741  1.00  0.00     0.167 HD
BRANCH  11  13
HETATM   13  C11 UNL     1      22.854   2.754  50.123  1.00  0.00     0.035 A 
HETATM   14  C12 UNL     1      22.805   2.727  48.750  1.00  0.00     0.029 A 
HETATM   15  C13 UNL     1      22.456   3.799  47.958  1.00  0.00     0.004 A 
HETATM   16  C14 UNL     1      22.125   5.000  48.539  1.00  0.00     0.019 A 
HETATM   17  C15 UNL     1      22.159   5.079  49.899  1.00  0.00     0.013 A 
HETATM   18 BR1  UNL     1      21.714   6.708  50.765  1.00  0.00    -0.051 Br
HETATM   19  C16 UNL     1      22.515   3.978  50.642  1.00  0.00     0.048 A 
ENDBRANCH  11  13
ENDBRANCH   8  11
BRANCH   1  20
HETATM   20  N1  UNL     1      26.356  -0.325  54.443  1.00  0.00    -0.327 N 
HETATM   21  C4  UNL     1      27.451  -0.548  53.561  1.00  0.00     0.222 C 
HETATM   22  O2  UNL     1      27.078  -0.827  52.386  1.00  0.00    -0.273 OA
HETATM   23  H6  UNL     1      26.341  -0.076  55.474  1.00  0.00     0.169 HD
BRANCH  21  24
HETATM   24  C3  UNL     1      28.716  -0.374  54.327  1.00  0.00     0.110 C 
BRANCH  24  25
HETATM   25  C2  UNL     1      29.513   0.732  53.681  1.00  0.00     0.078 C 
BRANCH  25  26
HETATM   26  C1  UNL     1      28.856   2.062  53.792  1.00  0.00     0.231 C 
HETATM   27  O1  UNL     1      29.447   2.312  54.819  1.00  0.00    -0.307 OA
ENDBRANCH  25  26
ENDBRANCH  24  25
ENDBRANCH  21  24
ENDBRANCH   1  20
TORSDOF 6
ENDMDL
MODEL 7
REMARK VINA RESULT:      -7.3      2.324      3.584
REMARK  6 active torsions:
REMARK  status: ('A' for Active; 'I' for Inactive)
REMARK    1  A    between atoms: C1_2  and  C2_3 
REMARK    2  A    between atoms: C2_3  and  C3_4 
REMARK    3  A    between atoms: C3_4  and  C4_5 
REMARK       I    between atoms: C4_5  and  N1_7 
REMARK    4  A    between atoms: N1_7  and  C5_8 
REMARK    5  A    between atoms: C10_15  and  N4_16 
REMARK    6  A    between atoms: N4_16  and  C11_17 
ROOT
HETATM    1  C5  UNL     1      24.982   0.970  52.994  1.00  0.00     0.035 A 
HETATM    2  C6  UNL     1      24.004   0.010  53.148  1.00  0.00     0.032 A 
HETATM    3  C7  UNL     1      22.693   0.386  52.997  1.00  0.00     0.035 A 
HETATM    4  C8  UNL     1      22.378   1.694  52.698  1.00  0.00     0.072 A 
HETATM    5  N2  UNL     1      21.072   1.951  52.573  1.00  0.00    -0.241 NA
HETATM    6  C9  UNL     1      20.732   3.219  52.282  1.00  0.00     0.236 A 
HETATM    7  N3  UNL     1      21.641   4.184  52.122  1.00  0.00    -0.224 NA
HETATM    8  C10 UNL     1      22.953   3.982  52.236  1.00  0.00     0.142 A 
HETATM    9  C17 UNL     1      23.313   2.700  52.532  1.00  0.00     0.041 A 
HETATM   10  C18 UNL     1      24.604   2.263  52.695  1.00  0.00     0.047 A 
ENDROOT
BRANCH   8  11
HETATM   11  N4  UNL     1      23.957   4.964  52.077  1.00  0.00    -0.340 N 
HETATM   12  H10 UNL     1      24.453   5.379  52.888  1.00  0.00     0.167 HD
BRANCH  11  13
HETATM   13  C11 UNL     1      24.441   5.528  50.873  1.00  0.00     0.035 A 
HETATM   14  C12 UNL     1      25.420   4.937  50.109  1.00  0.00     0.029 A 
HETATM   15  C13 UNL     1      25.922   5.461  48.939  1.00  0.00     0.004 A 
HETATM   16  C14 UNL     1      25.438   6.657  48.462  1.00  0.00     0.019 A 
HETATM   17  C15 UNL     1      24.467   7.283  49.183  1.00  0.00     0.013 A 
HETATM   18 BR1  UNL     1      23.757   8.936  48.580  1.00  0.00    -0.051 Br
HETATM   19  C16 UNL     1      24.002   6.715  50.346  1.00  0.00     0.048 A 
ENDBRANCH  11  13
ENDBRANCH   8  11
BRANCH   1  20
HETATM   20  N1  UNL     1      26.336   0.568  53.154  1.00  0.00    -0.327 N 
HETATM   21  C4  UNL     1      27.160   0.568  54.315  1.00  0.00     0.222 C 
HETATM   22  O2  UNL     1      26.555   0.998  55.338  1.00  0.00    -0.273 OA
HETATM   23  H6  UNL     1      26.549   0.271  52.158  1.00  0.00     0.169 HD
BRANCH  21  24
HETATM   24  C3  UNL     1      28.504   0.047  53.939  1.00  0.00     0.110 C 
BRANCH  24  25
HETATM   25  C2  UNL     1      28.313  -1.181  53.083  1.00  0.00     0.078 C 
BRANCH  25  26
HETATM   26  C1  UNL     1      29.349  -2.221  53.321  1.00  0.00     0.231 C 
HETATM   27  O1  UNL     1      30.110  -1.409  53.801  1.00  0.00    -0.307 OA
ENDBRANCH  25  26
ENDBRANCH  24  25
ENDBRANCH  21  24
ENDBRANCH   1  20
TORSDOF 6
ENDMDL
MODEL 8
REMARK VINA RESULT:      -7.1      5.588      8.256
REMARK  6 active torsions:
REMARK  status: ('A' for Active; 'I' for Inactive)
REMARK    1  A    between atoms: C1_2  and  C2_3 
REMARK    2  A    between atoms: C2_3  and  C3_4 
REMARK    3  A    between atoms: C3_4  and  C4_5 
REMARK       I    between atoms: C4_5  and  N1_7 
REMARK    4  A    between atoms: N1_7  and  C5_8 
REMARK    5  A    between atoms: C10_15  and  N4_16 
REMARK    6  A    between atoms: N4_16  and  C11_17 
ROOT
HETATM    1  C5  UNL     1      29.494   5.779  47.920  1.00  0.00     0.035 A 
HETATM    2  C6  UNL     1      29.171   7.040  47.462  1.00  0.00     0.032 A 
HETATM    3  C7  UNL     1      27.876   7.473  47.604  1.00  0.00     0.035 A 
HETATM    4  C8  UNL     1      26.935   6.657  48.195  1.00  0.00     0.072 A 
HETATM    5  N2  UNL     1      25.706   7.177  48.284  1.00  0.00    -0.241 NA
HETATM    6  C9  UNL     1      24.764   6.406  48.854  1.00  0.00     0.236 A 
HETATM    7  N3  UNL     1      25.027   5.179  49.314  1.00  0.00    -0.224 NA
HETATM    8  C10 UNL     1      26.232   4.615  49.250  1.00  0.00     0.142 A 
HETATM    9  C17 UNL     1      27.198   5.386  48.673  1.00  0.00     0.041 A 
HETATM   10  C18 UNL     1      28.506   5.010  48.502  1.00  0.00     0.047 A 
ENDROOT
BRANCH   8  11
HETATM   11  N4  UNL     1      26.565   3.325  49.720  1.00  0.00    -0.340 N 
HETATM   12  H10 UNL     1      27.198   2.694  49.193  1.00  0.00     0.167 HD
BRANCH  11  13
HETATM   13  C11 UNL     1      26.132   2.693  50.910  1.00  0.00     0.035 A 
HETATM   14  C12 UNL     1      26.991   2.316  51.915  1.00  0.00     0.029 A 
HETATM   15  C13 UNL     1      26.607   1.690  53.080  1.00  0.00     0.004 A 
HETATM   16  C14 UNL     1      25.279   1.405  53.297  1.00  0.00     0.019 A 
HETATM   17  C15 UNL     1      24.387   1.758  52.330  1.00  0.00     0.013 A 
HETATM   18 BR1  UNL     1      22.540   1.392  52.567  1.00  0.00    -0.051 Br
HETATM   19  C16 UNL     1      24.825   2.380  51.185  1.00  0.00     0.048 A 
ENDBRANCH  11  13
ENDBRANCH   8  11
BRANCH   1  20
HETATM   20  N1  UNL     1      30.837   5.343  47.766  1.00  0.00    -0.327 N 
HETATM   21  C4  UNL     1      31.938   5.432  48.666  1.00  0.00     0.222 C 
HETATM   22  O2  UNL     1      31.627   5.990  49.756  1.00  0.00    -0.273 OA
HETATM   23  H6  UNL     1      30.778   4.935  46.789  1.00  0.00     0.169 HD
BRANCH  21  24
HETATM   24  C3  UNL     1      33.130   4.822  48.014  1.00  0.00     0.110 C 
BRANCH  24  25
HETATM   25  C2  UNL     1      32.652   3.771  47.044  1.00  0.00     0.078 C 
BRANCH  25  26
HETATM   26  C1  UNL     1      33.086   2.397  47.416  1.00  0.00     0.231 C 
HETATM   27  O1  UNL     1      32.239   1.896  46.709  1.00  0.00    -0.307 OA
ENDBRANCH  25  26
ENDBRANCH  24  25
ENDBRANCH  21  24
ENDBRANCH   1  20
TORSDOF 6
ENDMDL
MODEL 9
REMARK VINA RESULT:      -7.1      2.796      4.388
REMARK  6 active torsions:
REMARK  status: ('A' for Active; 'I' for Inactive)
REMARK    1  A    between atoms: C1_2  and  C2_3 
REMARK    2  A    between atoms: C2_3  and  C3_4 
REMARK    3  A    between atoms: C3_4  and  C4_5 
REMARK       I    between atoms: C4_5  and  N1_7 
REMARK    4  A    between atoms: N1_7  and  C5_8 
REMARK    5  A    between atoms: C10_15  and  N4_16 
REMARK    6  A    between atoms: N4_16  and  C11_17 
ROOT
HETATM    1  C5  UNL     1      24.596   1.489  52.796  1.00  0.00     0.035 A 
HETATM    2  C6  UNL     1      23.263   1.176  52.964  1.00  0.00     0.032 A 
HETATM    3  C7  UNL     1      22.374   1.574  51.998  1.00  0.00     0.035 A 
HETATM    4  C8  UNL     1      22.817   2.267  50.892  1.00  0.00     0.072 A 
HETATM    5  N2  UNL     1      21.868   2.605  50.013  1.00  0.00    -0.241 NA
HETATM    6  C9  UNL     1      22.269   3.282  48.923  1.00  0.00     0.236 A 
HETATM    7  N3  UNL     1      23.548   3.608  48.714  1.00  0.00    -0.224 NA
HETATM    8  C10 UNL     1      24.531   3.296  49.557  1.00  0.00     0.142 A 
HETATM    9  C17 UNL     1      24.139   2.609  50.668  1.00  0.00     0.041 A 
HETATM   10  C18 UNL     1      24.979   2.185  51.667  1.00  0.00     0.047 A 
ENDROOT
BRANCH   8  11
HETATM   11  N4  UNL     1      25.897   3.614  49.385  1.00  0.00    -0.340 N 
HETATM   12  H10 UNL     1      26.640   2.892  49.433  1.00  0.00     0.167 HD
BRANCH  11  13
HETATM   13  C11 UNL     1      26.471   4.883  49.135  1.00  0.00     0.035 A 
HETATM   14  C12 UNL     1      27.689   5.047  48.519  1.00  0.00     0.029 A 
HETATM   15  C13 UNL     1      28.282   6.265  48.268  1.00  0.00     0.004 A 
HETATM   16  C14 UNL     1      27.646   7.426  48.643  1.00  0.00     0.019 A 
HETATM   17  C15 UNL     1      26.435   7.316  49.258  1.00  0.00     0.013 A 
HETATM   18 BR1  UNL     1      25.505   8.879  49.801  1.00  0.00    -0.051 Br
HETATM   19  C16 UNL     1      25.889   6.075  49.484  1.00  0.00     0.048 A 
ENDBRANCH  11  13
ENDBRANCH   8  11
BRANCH   1  20
HETATM   20  N1  UNL     1      25.507   1.072  53.805  1.00  0.00    -0.327 N 
HETATM   21  C4  UNL     1      26.334  -0.086  53.869  1.00  0.00     0.222 C 
HETATM   22  O2  UNL     1      26.209  -0.827  52.853  1.00  0.00    -0.273 OA
HETATM   23  H6  UNL     1      25.388   1.872  54.491  1.00  0.00     0.169 HD
BRANCH  21  24
HETATM   24  C3  UNL     1      27.100  -0.048  55.145  1.00  0.00     0.110 C 
BRANCH  24  25
HETATM   25  C2  UNL     1      28.572  -0.066  54.815  1.00  0.00     0.078 C 
BRANCH  25  26
HETATM   26  C1  UNL     1      29.091   1.267  54.406  1.00  0.00     0.231 C 
HETATM   27  O1  UNL     1      29.590   0.807  53.401  1.00  0.00    -0.307 OA
ENDBRANCH  25  26
ENDBRANCH  24  25
ENDBRANCH  21  24
ENDBRANCH   1  20
TORSDOF 6
ENDMDL
