MODEL 1
REMARK VINA RESULT:      -7.2      0.000      0.000
REMARK  7 active torsions:
REMARK  status: ('A' for Active; 'I' for Inactive)
REMARK    1  A    between atoms: C3_4  and  C4_5 
REMARK    2  A    between atoms: C5_6  and  S1_7 
REMARK    3  A    between atoms: S1_7  and  N1_10 
REMARK    4  A    between atoms: N1_10  and  C6_11 
REMARK    5  A    between atoms: C6_11  and  C7_13 
REMARK    6  A    between atoms: C7_13  and  O3_14 
REMARK    7  A    between atoms: O3_14  and  C8_15 
ROOT
HETATM    1  N1  UNL     1      27.833   2.597  52.343  1.00  0.00    -0.175 NA
HETATM    2  H5  UNL     1      28.570   2.769  51.633  1.00  0.00     0.143 HD
ENDROOT
BRANCH   1   3
HETATM    3  S1  UNL     1      28.383   1.504  53.567  1.00  0.00     0.284 S 
HETATM    4  O1  UNL     1      29.438   0.607  53.032  1.00  0.00    -0.198 OA
HETATM    5  O2  UNL     1      28.945   2.288  54.709  1.00  0.00    -0.198 OA
BRANCH   3   6
HETATM    6  C5  UNL     1      26.974   0.590  54.047  1.00  0.00     0.048 C 
HETATM    7  C4  UNL     1      25.988  -0.037  54.373  1.00  0.00    -0.060 C 
BRANCH   7   8
HETATM    8  C3  UNL     1      24.816  -0.763  54.779  1.00  0.00     0.079 C 
HETATM    9  C2  UNL     1      23.710  -0.524  54.072  1.00  0.00    -0.007 C 
HETATM   10  C1  UNL     1      23.897   0.473  52.968  1.00  0.00     0.057 C 
HETATM   11 BR1  UNL     1      22.061  -1.401  54.472  1.00  0.00    -0.056 Br
ENDBRANCH   7   8
ENDBRANCH   3   6
ENDBRANCH   1   3
BRANCH   1  12
HETATM   12  C6  UNL     1      26.633   2.068  51.724  1.00  0.00     0.281 C 
HETATM   13  F1  UNL     1      26.987   0.980  50.969  1.00  0.00    -0.230 F 
BRANCH  12  14
HETATM   14  C7  UNL     1      25.925   3.124  50.901  1.00  0.00     0.229 C 
BRANCH  14  15
HETATM   15  O3  UNL     1      26.529   3.269  49.622  1.00  0.00    -0.347 OA
BRANCH  15  16
HETATM   16  C8  UNL     1      26.618   4.568  49.122  1.00  0.00     0.068 A 
HETATM   17  C9  UNL     1      27.916   4.815  48.683  1.00  0.00     0.037 A 
HETATM   18  C10 UNL     1      28.248   6.059  48.137  1.00  0.00     0.003 A 
HETATM   19  C11 UNL     1      27.276   7.040  48.037  1.00  0.00     0.000 A 
HETATM   20  C12 UNL     1      26.001   6.760  48.482  1.00  0.00     0.003 A 
HETATM   21  C13 UNL     1      25.653   5.547  49.021  1.00  0.00     0.037 A 
ENDBRANCH  15  16
ENDBRANCH  14  15
ENDBRANCH  12  14
ENDBRANCH   1  12
TORSDOF 7
ENDMDL
MODEL 2
REMARK VINA RESULT:      -7.1      2.332      3.249
REMARK  7 active torsions:
REMARK  status: ('A' for Active; 'I' for Inactive)
REMARK    1  A    between atoms: C3_4  and  C4_5 
REMARK    2  A    between atoms: C5_6  and  S1_7 
REMARK    3  A    between atoms: S1_7  and  N1_10 
REMARK    4  A    between atoms: N1_10  and  C6_11 
REMARK    5  A    between atoms: C6_11  and  C7_13 
REMARK    6  A    between atoms: C7_13  and  O3_14 
REMARK    7  A    between atoms: O3_14  and  C8_15 
ROOT
HETATM    1  N1  UNL     1      26.661   1.441  54.370  1.00  0.00    -0.175 NA
HETATM    2  H5  UNL     1      27.088   1.715  55.275  1.00  0.00     0.143 HD
ENDROOT
BRANCH   1   3
HETATM    3  S1  UNL     1      26.035  -0.171  54.432  1.00  0.00     0.284 S 
HETATM    4  O1  UNL     1      26.942  -1.112  53.728  1.00  0.00    -0.198 OA
HETATM    5  O2  UNL     1      25.910  -0.594  55.860  1.00  0.00    -0.198 OA
BRANCH   3   6
HETATM    6  C5  UNL     1      24.478  -0.100  53.644  1.00  0.00     0.048 C 
HETATM    7  C4  UNL     1      23.399  -0.039  53.094  1.00  0.00    -0.060 C 
BRANCH   7   8
HETATM    8  C3  UNL     1      22.109   0.042  52.465  1.00  0.00     0.079 C 
HETATM    9  C2  UNL     1      21.061  -0.205  53.252  1.00  0.00    -0.007 C 
HETATM   10  C1  UNL     1      21.427  -0.527  54.670  1.00  0.00     0.057 C 
HETATM   11 BR1  UNL     1      19.273  -0.140  52.583  1.00  0.00    -0.056 Br
ENDBRANCH   7   8
ENDBRANCH   3   6
ENDBRANCH   1   3
BRANCH   1  12
HETATM   12  C6  UNL     1      27.625   1.544  53.291  1.00  0.00     0.281 C 
HETATM   13  F1  UNL     1      28.401   2.650  53.518  1.00  0.00    -0.230 F 
BRANCH  12  14
HETATM   14  C7  UNL     1      26.940   1.598  51.941  1.00  0.00     0.229 C 
BRANCH  14  15
HETATM   15  O3  UNL     1      27.191   2.835  51.287  1.00  0.00    -0.347 OA
BRANCH  15  16
HETATM   16  C8  UNL     1      26.140   3.366  50.539  1.00  0.00     0.068 A 
HETATM   17  C9  UNL     1      24.989   2.608  50.743  1.00  0.00     0.037 A 
HETATM   18  C10 UNL     1      23.798   2.951  50.095  1.00  0.00     0.003 A 
HETATM   19  C11 UNL     1      23.775   4.047  49.249  1.00  0.00     0.000 A 
HETATM   20  C12 UNL     1      24.933   4.774  49.070  1.00  0.00     0.003 A 
HETATM   21  C13 UNL     1      26.112   4.456  49.697  1.00  0.00     0.037 A 
ENDBRANCH  15  16
ENDBRANCH  14  15
ENDBRANCH  12  14
ENDBRANCH   1  12
TORSDOF 7
ENDMDL
MODEL 3
REMARK VINA RESULT:      -7.0      2.025      2.629
REMARK  7 active torsions:
REMARK  status: ('A' for Active; 'I' for Inactive)
REMARK    1  A    between atoms: C3_4  and  C4_5 
REMARK    2  A    between atoms: C5_6  and  S1_7 
REMARK    3  A    between atoms: S1_7  and  N1_10 
REMARK    4  A    between atoms: N1_10  and  C6_11 
REMARK    5  A    between atoms: C6_11  and  C7_13 
REMARK    6  A    between atoms: C7_13  and  O3_14 
REMARK    7  A    between atoms: O3_14  and  C8_15 
ROOT
HETATM    1  N1  UNL     1      26.725   0.998  53.243  1.00  0.00    -0.175 NA
HETATM    2  H5  UNL     1      27.759   0.912  53.255  1.00  0.00     0.143 HD
ENDROOT
BRANCH   1   3
HETATM    3  S1  UNL     1      25.968  -0.396  53.936  1.00  0.00     0.284 S 
HETATM    4  O1  UNL     1      26.580  -1.640  53.404  1.00  0.00    -0.198 OA
HETATM    5  O2  UNL     1      26.144  -0.363  55.420  1.00  0.00    -0.198 OA
BRANCH   3   6
HETATM    6  C5  UNL     1      24.285  -0.288  53.485  1.00  0.00     0.048 C 
HETATM    7  C4  UNL     1      23.119  -0.211  53.160  1.00  0.00    -0.060 C 
BRANCH   7   8
HETATM    8  C3  UNL     1      21.738  -0.094  52.777  1.00  0.00     0.079 C 
HETATM    9  C2  UNL     1      20.869  -0.786  53.516  1.00  0.00    -0.007 C 
HETATM   10  C1  UNL     1      21.502  -1.570  54.626  1.00  0.00     0.057 C 
HETATM   11 BR1  UNL     1      18.995  -0.746  53.150  1.00  0.00    -0.056 Br
ENDBRANCH   7   8
ENDBRANCH   3   6
ENDBRANCH   1   3
BRANCH   1  12
HETATM   12  C6  UNL     1      26.238   1.192  51.891  1.00  0.00     0.281 C 
HETATM   13  F1  UNL     1      26.919   0.336  51.066  1.00  0.00    -0.230 F 
BRANCH  12  14
HETATM   14  C7  UNL     1      26.382   2.636  51.454  1.00  0.00     0.229 C 
BRANCH  14  15
HETATM   15  O3  UNL     1      26.823   2.723  50.106  1.00  0.00    -0.347 OA
BRANCH  15  16
HETATM   16  C8  UNL     1      26.734   3.978  49.504  1.00  0.00     0.068 A 
HETATM   17  C9  UNL     1      25.459   4.503  49.698  1.00  0.00     0.037 A 
HETATM   18  C10 UNL     1      25.131   5.761  49.182  1.00  0.00     0.003 A 
HETATM   19  C11 UNL     1      26.084   6.478  48.478  1.00  0.00     0.000 A 
HETATM   20  C12 UNL     1      27.336   5.926  48.304  1.00  0.00     0.003 A 
HETATM   21  C13 UNL     1      27.680   4.694  48.802  1.00  0.00     0.037 A 
ENDBRANCH  15  16
ENDBRANCH  14  15
ENDBRANCH  12  14
ENDBRANCH   1  12
TORSDOF 7
ENDMDL
MODEL 4
REMARK VINA RESULT:      -6.9      2.893      5.465
REMARK  7 active torsions:
REMARK  status: ('A' for Active; 'I' for Inactive)
REMARK    1  A    between atoms: C3_4  and  C4_5 
REMARK    2  A    between atoms: C5_6  and  S1_7 
REMARK    3  A    between atoms: S1_7  and  N1_10 
REMARK    4  A    between atoms: N1_10  and  C6_11 
REMARK    5  A    between atoms: C6_11  and  C7_13 
REMARK    6  A    between atoms: C7_13  and  O3_14 
REMARK    7  A    between atoms: O3_14  and  C8_15 
ROOT
HETATM    1  N1  UNL     1      24.482   3.960  49.390  1.00  0.00    -0.175 NA
HETATM    2  H5  UNL     1      24.289   4.542  48.553  1.00  0.00     0.143 HD
ENDROOT
BRANCH   1   3
HETATM    3  S1  UNL     1      23.434   4.377  50.702  1.00  0.00     0.284 S 
HETATM    4  O1  UNL     1      24.016   5.482  51.506  1.00  0.00    -0.198 OA
HETATM    5  O2  UNL     1      22.114   4.816  50.156  1.00  0.00    -0.198 OA
BRANCH   3   6
HETATM    6  C5  UNL     1      23.281   2.925  51.660  1.00  0.00     0.048 C 
HETATM    7  C4  UNL     1      23.187   1.913  52.322  1.00  0.00    -0.060 C 
BRANCH   7   8
HETATM    8  C3  UNL     1      23.068   0.700  53.086  1.00  0.00     0.079 C 
HETATM    9  C2  UNL     1      21.835   0.379  53.480  1.00  0.00    -0.007 C 
HETATM   10  C1  UNL     1      20.784   1.358  53.048  1.00  0.00     0.057 C 
HETATM   11 BR1  UNL     1      21.492  -1.198  54.501  1.00  0.00    -0.056 Br
ENDBRANCH   7   8
ENDBRANCH   3   6
ENDBRANCH   1   3
BRANCH   1  12
HETATM   12  C6  UNL     1      25.863   4.101  49.810  1.00  0.00     0.281 C 
HETATM   13  F1  UNL     1      26.555   4.716  48.800  1.00  0.00    -0.230 F 
BRANCH  12  14
HETATM   14  C7  UNL     1      26.468   2.761  50.178  1.00  0.00     0.229 C 
BRANCH  14  15
HETATM   15  O3  UNL     1      27.195   2.843  51.397  1.00  0.00    -0.347 OA
BRANCH  15  16
HETATM   16  C8  UNL     1      26.943   1.844  52.337  1.00  0.00     0.068 A 
HETATM   17  C9  UNL     1      26.759   0.625  51.690  1.00  0.00     0.037 A 
HETATM   18  C10 UNL     1      26.492  -0.530  52.431  1.00  0.00     0.003 A 
HETATM   19  C11 UNL     1      26.413  -0.451  53.811  1.00  0.00     0.000 A 
HETATM   20  C12 UNL     1      26.600   0.773  54.418  1.00  0.00     0.003 A 
HETATM   21  C13 UNL     1      26.864   1.919  53.711  1.00  0.00     0.037 A 
ENDBRANCH  15  16
ENDBRANCH  14  15
ENDBRANCH  12  14
ENDBRANCH   1  12
TORSDOF 7
ENDMDL
MODEL 5
REMARK VINA RESULT:      -6.8      3.902      7.467
REMARK  7 active torsions:
REMARK  status: ('A' for Active; 'I' for Inactive)
REMARK    1  A    between atoms: C3_4  and  C4_5 
REMARK    2  A    between atoms: C5_6  and  S1_7 
REMARK    3  A    between atoms: S1_7  and  N1_10 
REMARK    4  A    between atoms: N1_10  and  C6_11 
REMARK    5  A    between atoms: C6_11  and  C7_13 
REMARK    6  A    between atoms: C7_13  and  O3_14 
REMARK    7  A    between atoms: O3_14  and  C8_15 
ROOT
HETATM    1  N1  UNL     1      24.669   3.469  52.925  1.00  0.00    -0.175 NA
HETATM    2  H5  UNL     1      23.958   3.550  53.677  1.00  0.00     0.143 HD
ENDROOT
BRANCH   1   3
HETATM    3  S1  UNL     1      23.971   3.746  51.366  1.00  0.00     0.284 S 
HETATM    4  O1  UNL     1      23.301   2.518  50.868  1.00  0.00    -0.198 OA
HETATM    5  O2  UNL     1      22.963   4.844  51.468  1.00  0.00    -0.198 OA
BRANCH   3   6
HETATM    6  C5  UNL     1      25.304   4.191  50.329  1.00  0.00     0.048 C 
HETATM    7  C4  UNL     1      26.236   4.502  49.618  1.00  0.00    -0.060 C 
BRANCH   7   8
HETATM    8  C3  UNL     1      27.334   4.896  48.778  1.00  0.00     0.079 C 
HETATM    9  C2  UNL     1      27.479   6.209  48.587  1.00  0.00    -0.007 C 
HETATM   10  C1  UNL     1      26.452   7.043  49.294  1.00  0.00     0.057 C 
HETATM   11 BR1  UNL     1      28.884   6.910  47.501  1.00  0.00    -0.056 Br
ENDBRANCH   7   8
ENDBRANCH   3   6
ENDBRANCH   1   3
BRANCH   1  12
HETATM   12  C6  UNL     1      25.298   2.162  52.949  1.00  0.00     0.281 C 
HETATM   13  F1  UNL     1      24.408   1.270  53.487  1.00  0.00    -0.230 F 
BRANCH  12  14
HETATM   14  C7  UNL     1      26.605   2.193  53.716  1.00  0.00     0.229 C 
BRANCH  14  15
HETATM   15  O3  UNL     1      26.743   1.044  54.542  1.00  0.00    -0.347 OA
BRANCH  15  16
HETATM   16  C8  UNL     1      27.409  -0.046  53.981  1.00  0.00     0.068 A 
HETATM   17  C9  UNL     1      28.774   0.055  54.239  1.00  0.00     0.037 A 
HETATM   18  C10 UNL     1      29.651  -0.930  53.773  1.00  0.00     0.003 A 
HETATM   19  C11 UNL     1      29.152  -2.002  53.054  1.00  0.00     0.000 A 
HETATM   20  C12 UNL     1      27.794  -2.069  52.817  1.00  0.00     0.003 A 
HETATM   21  C13 UNL     1      26.915  -1.115  53.265  1.00  0.00     0.037 A 
ENDBRANCH  15  16
ENDBRANCH  14  15
ENDBRANCH  12  14
ENDBRANCH   1  12
TORSDOF 7
ENDMDL
MODEL 6
REMARK VINA RESULT:      -6.8      4.349      5.209
REMARK  7 active torsions:
REMARK  status: ('A' for Active; 'I' for Inactive)
REMARK    1  A    between atoms: C3_4  and  C4_5 
REMARK    2  A    between atoms: C5_6  and  S1_7 
REMARK    3  A    between atoms: S1_7  and  N1_10 
REMARK    4  A    between atoms: N1_10  and  C6_11 
REMARK    5  A    between atoms: C6_11  and  C7_13 
REMARK    6  A    between atoms: C7_13  and  O3_14 
REMARK    7  A    between atoms: O3_14  and  C8_15 
ROOT
HETATM    1  N1  UNL     1      21.968  -0.931  52.429  1.00  0.00    -0.175 NA
HETATM    2  H5  UNL     1      21.450  -1.797  52.187  1.00  0.00     0.143 HD
ENDROOT
BRANCH   1   3
HETATM    3  S1  UNL     1      22.272  -0.835  54.130  1.00  0.00     0.284 S 
HETATM    4  O1  UNL     1      21.497   0.277  54.737  1.00  0.00    -0.198 OA
HETATM    5  O2  UNL     1      21.865  -2.120  54.775  1.00  0.00    -0.198 OA
BRANCH   3   6
HETATM    6  C5  UNL     1      23.989  -0.553  54.284  1.00  0.00     0.048 C 
HETATM    7  C4  UNL     1      25.181  -0.365  54.400  1.00  0.00    -0.060 C 
BRANCH   7   8
HETATM    8  C3  UNL     1      26.590  -0.124  54.556  1.00  0.00     0.079 C 
HETATM    9  C2  UNL     1      27.372  -0.596  53.585  1.00  0.00    -0.007 C 
HETATM   10  C1  UNL     1      26.626  -1.303  52.493  1.00  0.00     0.057 C 
HETATM   11 BR1  UNL     1      29.268  -0.366  53.629  1.00  0.00    -0.056 Br
ENDBRANCH   7   8
ENDBRANCH   3   6
ENDBRANCH   1   3
BRANCH   1  12
HETATM   12  C6  UNL     1      21.236   0.245  52.001  1.00  0.00     0.281 C 
HETATM   13  F1  UNL     1      20.062  -0.168  51.427  1.00  0.00    -0.230 F 
BRANCH  12  14
HETATM   14  C7  UNL     1      22.061   1.095  51.055  1.00  0.00     0.229 C 
BRANCH  14  15
HETATM   15  O3  UNL     1      22.967   1.925  51.769  1.00  0.00    -0.347 OA
BRANCH  15  16
HETATM   16  C8  UNL     1      24.057   2.415  51.049  1.00  0.00     0.068 A 
HETATM   17  C9  UNL     1      25.242   1.987  51.640  1.00  0.00     0.037 A 
HETATM   18  C10 UNL     1      26.475   2.355  51.091  1.00  0.00     0.003 A 
HETATM   19  C11 UNL     1      26.505   3.149  49.957  1.00  0.00     0.000 A 
HETATM   20  C12 UNL     1      25.311   3.556  49.399  1.00  0.00     0.003 A 
HETATM   21  C13 UNL     1      24.091   3.206  49.920  1.00  0.00     0.037 A 
ENDBRANCH  15  16
ENDBRANCH  14  15
ENDBRANCH  12  14
ENDBRANCH   1  12
TORSDOF 7
ENDMDL
MODEL 7
REMARK VINA RESULT:      -6.7      4.751      7.192
REMARK  7 active torsions:
REMARK  status: ('A' for Active; 'I' for Inactive)
REMARK    1  A    between atoms: C3_4  and  C4_5 
REMARK    2  A    between atoms: C5_6  and  S1_7 
REMARK    3  A    between atoms: S1_7  and  N1_10 
REMARK    4  A    between atoms: N1_10  and  C6_11 
REMARK    5  A    between atoms: C6_11  and  C7_13 
REMARK    6  A    between atoms: C7_13  and  O3_14 
REMARK    7  A    between atoms: O3_14  and  C8_15 
ROOT
HETATM    1  N1  UNL     1      21.076   0.610  54.105  1.00  0.00    -0.175 NA
HETATM    2  H5  UNL     1      20.194   0.562  54.651  1.00  0.00     0.143 HD
ENDROOT
BRANCH   1   3
HETATM    3  S1  UNL     1      20.845   1.454  52.612  1.00  0.00     0.284 S 
HETATM    4  O1  UNL     1      20.254   0.554  51.590  1.00  0.00    -0.198 OA
HETATM    5  O2  UNL     1      19.921   2.607  52.837  1.00  0.00    -0.198 OA
BRANCH   3   6
HETATM    6  C5  UNL     1      22.434   1.989  52.126  1.00  0.00     0.048 C 
HETATM    7  C4  UNL     1      23.542   2.359  51.799  1.00  0.00    -0.060 C 
BRANCH   7   8
HETATM    8  C3  UNL     1      24.851   2.819  51.423  1.00  0.00     0.079 C 
HETATM    9  C2  UNL     1      24.983   3.229  50.160  1.00  0.00    -0.007 C 
HETATM   10  C1  UNL     1      23.723   3.130  49.353  1.00  0.00     0.057 C 
HETATM   11 BR1  UNL     1      26.651   3.874  49.489  1.00  0.00    -0.056 Br
ENDBRANCH   7   8
ENDBRANCH   3   6
ENDBRANCH   1   3
BRANCH   1  12
HETATM   12  C6  UNL     1      21.591  -0.718  53.836  1.00  0.00     0.281 C 
HETATM   13  F1  UNL     1      20.786  -1.625  54.476  1.00  0.00    -0.230 F 
BRANCH  12  14
HETATM   14  C7  UNL     1      23.039  -0.845  54.262  1.00  0.00     0.229 C 
BRANCH  14  15
HETATM   15  O3  UNL     1      23.892  -1.015  53.138  1.00  0.00    -0.347 OA
BRANCH  15  16
HETATM   16  C8  UNL     1      25.208  -0.576  53.285  1.00  0.00     0.068 A 
HETATM   17  C9  UNL     1      25.454  -0.269  54.621  1.00  0.00     0.037 A 
HETATM   18  C10 UNL     1      26.713   0.194  55.015  1.00  0.00     0.003 A 
HETATM   19  C11 UNL     1      27.710   0.346  54.067  1.00  0.00     0.000 A 
HETATM   20  C12 UNL     1      27.431   0.033  52.753  1.00  0.00     0.003 A 
HETATM   21  C13 UNL     1      26.203  -0.423  52.344  1.00  0.00     0.037 A 
ENDBRANCH  15  16
ENDBRANCH  14  15
ENDBRANCH  12  14
ENDBRANCH   1  12
TORSDOF 7
ENDMDL
MODEL 8
REMARK VINA RESULT:      -6.7      4.141      6.712
REMARK  7 active torsions:
REMARK  status: ('A' for Active; 'I' for Inactive)
REMARK    1  A    between atoms: C3_4  and  C4_5 
REMARK    2  A    between atoms: C5_6  and  S1_7 
REMARK    3  A    between atoms: S1_7  and  N1_10 
REMARK    4  A    between atoms: N1_10  and  C6_11 
REMARK    5  A    between atoms: C6_11  and  C7_13 
REMARK    6  A    between atoms: C7_13  and  O3_14 
REMARK    7  A    between atoms: O3_14  and  C8_15 
ROOT
HETATM    1  N1  UNL     1      24.517   4.880  51.394  1.00  0.00    -0.175 NA
HETATM    2  H5  UNL     1      24.578   5.898  51.201  1.00  0.00     0.143 HD
ENDROOT
BRANCH   1   3
HETATM    3  S1  UNL     1      25.310   3.959  50.162  1.00  0.00     0.284 S 
HETATM    4  O1  UNL     1      24.328   3.471  49.161  1.00  0.00    -0.198 OA
HETATM    5  O2  UNL     1      26.316   4.823  49.474  1.00  0.00    -0.198 OA
BRANCH   3   6
HETATM    6  C5  UNL     1      26.069   2.623  50.991  1.00  0.00     0.048 C 
HETATM    7  C4  UNL     1      26.586   1.690  51.569  1.00  0.00    -0.060 C 
BRANCH   7   8
HETATM    8  C3  UNL     1      27.193   0.597  52.277  1.00  0.00     0.079 C 
HETATM    9  C2  UNL     1      28.096   0.932  53.201  1.00  0.00    -0.007 C 
HETATM   10  C1  UNL     1      28.313   2.410  53.332  1.00  0.00     0.057 C 
HETATM   11 BR1  UNL     1      29.001  -0.392  54.238  1.00  0.00    -0.056 Br
ENDBRANCH   7   8
ENDBRANCH   3   6
ENDBRANCH   1   3
BRANCH   1  12
HETATM   12  C6  UNL     1      23.134   4.456  51.501  1.00  0.00     0.281 C 
HETATM   13  F1  UNL     1      22.366   5.565  51.740  1.00  0.00    -0.230 F 
BRANCH  12  14
HETATM   14  C7  UNL     1      22.961   3.403  52.577  1.00  0.00     0.229 C 
BRANCH  14  15
HETATM   15  O3  UNL     1      22.688   2.129  52.009  1.00  0.00    -0.347 OA
BRANCH  15  16
HETATM   16  C8  UNL     1      22.595   1.060  52.900  1.00  0.00     0.068 A 
HETATM   17  C9  UNL     1      21.287   0.947  53.364  1.00  0.00     0.037 A 
HETATM   18  C10 UNL     1      20.950  -0.060  54.274  1.00  0.00     0.003 A 
HETATM   19  C11 UNL     1      21.926  -0.940  54.709  1.00  0.00     0.000 A 
HETATM   20  C12 UNL     1      23.211  -0.798  54.228  1.00  0.00     0.003 A 
HETATM   21  C13 UNL     1      23.564   0.181  53.335  1.00  0.00     0.037 A 
ENDBRANCH  15  16
ENDBRANCH  14  15
ENDBRANCH  12  14
ENDBRANCH   1  12
TORSDOF 7
ENDMDL
MODEL 9
REMARK VINA RESULT:      -6.5      4.155      6.369
REMARK  7 active torsions:
REMARK  status: ('A' for Active; 'I' for Inactive)
REMARK    1  A    between atoms: C3_4  and  C4_5 
REMARK    2  A    between atoms: C5_6  and  S1_7 
REMARK    3  A    between atoms: S1_7  and  N1_10 
REMARK    4  A    between atoms: N1_10  and  C6_11 
REMARK    5  A    between atoms: C6_11  and  C7_13 
REMARK    6  A    between atoms: C7_13  and  O3_14 
REMARK    7  A    between atoms: O3_14  and  C8_15 
ROOT
HETATM    1  N1  UNL     1      24.793   3.573  53.162  1.00  0.00    -0.175 NA
HETATM    2  H5  UNL     1      24.205   3.628  54.015  1.00  0.00     0.143 HD
ENDROOT
BRANCH   1   3
HETATM    3  S1  UNL     1      23.876   3.939  51.741  1.00  0.00     0.284 S 
HETATM    4  O1  UNL     1      23.721   5.407  51.584  1.00  0.00    -0.198 OA
HETATM    5  O2  UNL     1      24.587   3.395  50.544  1.00  0.00    -0.198 OA
BRANCH   3   6
HETATM    6  C5  UNL     1      22.326   3.171  51.972  1.00  0.00     0.048 C 
HETATM    7  C4  UNL     1      21.253   2.630  52.142  1.00  0.00    -0.060 C 
BRANCH   7   8
HETATM    8  C3  UNL     1      19.990   1.969  52.327  1.00  0.00     0.079 C 
HETATM    9  C2  UNL     1      19.863   0.780  51.737  1.00  0.00    -0.007 C 
HETATM   10  C1  UNL     1      21.080   0.346  50.976  1.00  0.00     0.057 C 
HETATM   11 BR1  UNL     1      18.253  -0.238  51.879  1.00  0.00    -0.056 Br
ENDBRANCH   7   8
ENDBRANCH   3   6
ENDBRANCH   1   3
BRANCH   1  12
HETATM   12  C6  UNL     1      25.388   2.257  53.028  1.00  0.00     0.281 C 
HETATM   13  F1  UNL     1      24.512   1.338  53.543  1.00  0.00    -0.230 F 
BRANCH  12  14
HETATM   14  C7  UNL     1      26.742   2.192  53.706  1.00  0.00     0.229 C 
BRANCH  14  15
HETATM   15  O3  UNL     1      26.847   1.042  54.535  1.00  0.00    -0.347 OA
BRANCH  15  16
HETATM   16  C8  UNL     1      27.392  -0.099  53.946  1.00  0.00     0.068 A 
HETATM   17  C9  UNL     1      28.771  -0.117  54.145  1.00  0.00     0.037 A 
HETATM   18  C10 UNL     1      29.539  -1.171  53.641  1.00  0.00     0.003 A 
HETATM   19  C11 UNL     1      28.918  -2.194  52.945  1.00  0.00     0.000 A 
HETATM   20  C12 UNL     1      27.551  -2.143  52.766  1.00  0.00     0.003 A 
HETATM   21  C13 UNL     1      26.778  -1.119  53.252  1.00  0.00     0.037 A 
ENDBRANCH  15  16
ENDBRANCH  14  15
ENDBRANCH  12  14
ENDBRANCH   1  12
TORSDOF 7
ENDMDL
