MODEL 1
REMARK VINA RESULT:      -8.7      0.000      0.000
REMARK  5 active torsions:
REMARK  status: ('A' for Active; 'I' for Inactive)
REMARK    1  A    between atoms: C4_5  and  N1_6 
REMARK    2  A    between atoms: N1_6  and  C5_7 
REMARK    3  A    between atoms: C8_11  and  N3_12 
REMARK    4  A    between atoms: N3_12  and  C9_13 
REMARK    5  A    between atoms: C9_13  and  C10_14 
ROOT
HETATM    1  C5  UNL     1      25.961   2.776  51.672  1.00  0.00     0.155 C 
HETATM    2  N2  UNL     1      26.803   3.003  50.698  1.00  0.00    -0.240 NA
HETATM    3  C6  UNL     1      26.048   3.305  49.514  1.00  0.00     0.134 C 
HETATM    4  C7  UNL     1      24.783   3.364  49.886  1.00  0.00     0.026 C 
HETATM    5  C8  UNL     1      24.598   2.931  51.123  1.00  0.00     0.087 C 
ENDROOT
BRANCH   5   6
HETATM    6  N3  UNL     1      23.328   2.692  51.719  1.00  0.00    -0.382 N 
HETATM    7  H5  UNL     1      22.789   3.260  52.394  1.00  0.00     0.160 HD
BRANCH   6   8
HETATM    8  C9  UNL     1      22.712   1.432  51.291  1.00  0.00     0.161 C 
BRANCH   8   9
HETATM    9  C10 UNL     1      22.472   0.528  52.445  1.00  0.00    -0.002 A 
HETATM   10  C11 UNL     1      23.474   0.089  53.323  1.00  0.00     0.035 A 
HETATM   11  C12 UNL     1      23.153  -0.747  54.363  1.00  0.00     0.037 A 
HETATM   12 CL1  UNL     1      24.440  -1.279  55.447  1.00  0.00    -0.084 Cl
HETATM   13  C13 UNL     1      21.832  -1.159  54.547  1.00  0.00     0.064 A 
HETATM   14  C14 UNL     1      20.802  -0.762  53.720  1.00  0.00     0.112 A 
HETATM   15  C15 UNL     1      21.192   0.070  52.704  1.00  0.00     0.118 A 
HETATM   16  O1  UNL     1      19.829  -0.284  52.798  1.00  0.00    -0.304 OA
ENDBRANCH   8   9
ENDBRANCH   6   8
ENDBRANCH   5   6
BRANCH   1  17
HETATM   17  N1  UNL     1      26.235   2.442  53.023  1.00  0.00    -0.339 N 
HETATM   18  H3  UNL     1      25.668   2.911  53.780  1.00  0.00     0.167 HD
BRANCH  17  19
HETATM   19  C4  UNL     1      27.277   1.468  53.229  1.00  0.00     0.035 A 
HETATM   20  C3  UNL     1      28.527   1.696  53.728  1.00  0.00     0.032 A 
HETATM   21  C2  UNL     1      29.409   0.648  53.872  1.00  0.00     0.046 A 
HETATM   22  C1  UNL     1      29.078  -0.632  53.530  1.00  0.00     0.138 A 
HETATM   23  F1  UNL     1      29.902  -1.701  53.654  1.00  0.00    -0.204 F 
HETATM   24  C17 UNL     1      27.816  -0.904  53.020  1.00  0.00     0.074 A 
HETATM   25  C16 UNL     1      26.950   0.166  52.886  1.00  0.00     0.056 A 
HETATM   26 CL2  UNL     1      27.299  -2.517  52.557  1.00  0.00    -0.081 Cl
ENDBRANCH  17  19
ENDBRANCH   1  17
TORSDOF 5
ENDMDL
MODEL 2
REMARK VINA RESULT:      -8.6      3.917      6.328
REMARK  5 active torsions:
REMARK  status: ('A' for Active; 'I' for Inactive)
REMARK    1  A    between atoms: C4_5  and  N1_6 
REMARK    2  A    between atoms: N1_6  and  C5_7 
REMARK    3  A    between atoms: C8_11  and  N3_12 
REMARK    4  A    between atoms: N3_12  and  C9_13 
REMARK    5  A    between atoms: C9_13  and  C10_14 
ROOT
HETATM    1  C5  UNL     1      25.313   2.490  52.994  1.00  0.00     0.155 C 
HETATM    2  N2  UNL     1      24.042   2.216  53.133  1.00  0.00    -0.240 NA
HETATM    3  C6  UNL     1      23.400   2.413  51.863  1.00  0.00     0.134 C 
HETATM    4  C7  UNL     1      24.362   2.678  50.998  1.00  0.00     0.026 C 
HETATM    5  C8  UNL     1      25.529   2.885  51.586  1.00  0.00     0.087 C 
ENDROOT
BRANCH   5   6
HETATM    6  N3  UNL     1      26.691   3.381  50.932  1.00  0.00    -0.382 N 
HETATM    7  H5  UNL     1      27.587   3.715  51.325  1.00  0.00     0.160 HD
BRANCH   6   8
HETATM    8  C9  UNL     1      26.569   3.413  49.472  1.00  0.00     0.161 C 
BRANCH   8   9
HETATM    9  C10 UNL     1      26.910   4.754  48.930  1.00  0.00    -0.002 A 
HETATM   10  C11 UNL     1      25.990   5.803  48.787  1.00  0.00     0.035 A 
HETATM   11  C12 UNL     1      26.402   7.008  48.276  1.00  0.00     0.037 A 
HETATM   12 CL1  UNL     1      25.216   8.305  48.111  1.00  0.00    -0.084 Cl
HETATM   13  C13 UNL     1      27.734   7.190  47.900  1.00  0.00     0.064 A 
HETATM   14  C14 UNL     1      28.686   6.199  48.016  1.00  0.00     0.112 A 
HETATM   15  C15 UNL     1      28.208   5.023  48.532  1.00  0.00     0.118 A 
HETATM   16  O1  UNL     1      29.573   5.099  48.184  1.00  0.00    -0.304 OA
ENDBRANCH   8   9
ENDBRANCH   6   8
ENDBRANCH   5   6
BRANCH   1  17
HETATM   17  N1  UNL     1      26.344   2.439  53.966  1.00  0.00    -0.339 N 
HETATM   18  H3  UNL     1      26.318   3.133  54.761  1.00  0.00     0.167 HD
BRANCH  17  19
HETATM   19  C4  UNL     1      27.340   1.416  53.770  1.00  0.00     0.035 A 
HETATM   20  C3  UNL     1      28.682   1.523  53.998  1.00  0.00     0.032 A 
HETATM   21  C2  UNL     1      29.505   0.443  53.767  1.00  0.00     0.046 A 
HETATM   22  C1  UNL     1      29.024  -0.752  53.312  1.00  0.00     0.138 A 
HETATM   23  F1  UNL     1      29.784  -1.848  53.072  1.00  0.00    -0.204 F 
HETATM   24  C17 UNL     1      27.665  -0.900  53.069  1.00  0.00     0.074 A 
HETATM   25  C16 UNL     1      26.862   0.200  53.309  1.00  0.00     0.056 A 
HETATM   26 CL2  UNL     1      26.955  -2.397  52.489  1.00  0.00    -0.081 Cl
ENDBRANCH  17  19
ENDBRANCH   1  17
TORSDOF 5
ENDMDL
MODEL 3
REMARK VINA RESULT:      -8.6      3.218      4.916
REMARK  5 active torsions:
REMARK  status: ('A' for Active; 'I' for Inactive)
REMARK    1  A    between atoms: C4_5  and  N1_6 
REMARK    2  A    between atoms: N1_6  and  C5_7 
REMARK    3  A    between atoms: C8_11  and  N3_12 
REMARK    4  A    between atoms: N3_12  and  C9_13 
REMARK    5  A    between atoms: C9_13  and  C10_14 
ROOT
HETATM    1  C5  UNL     1      27.231   1.706  54.052  1.00  0.00     0.155 C 
HETATM    2  N2  UNL     1      28.490   2.036  53.930  1.00  0.00    -0.240 NA
HETATM    3  C6  UNL     1      29.268   0.829  53.899  1.00  0.00     0.134 C 
HETATM    4  C7  UNL     1      28.404  -0.169  53.880  1.00  0.00     0.026 C 
HETATM    5  C8  UNL     1      27.163   0.231  54.106  1.00  0.00     0.087 C 
ENDROOT
BRANCH   5   6
HETATM    6  N3  UNL     1      26.059  -0.636  54.341  1.00  0.00    -0.382 N 
HETATM    7  H5  UNL     1      25.757  -1.114  55.206  1.00  0.00     0.160 HD
BRANCH   6   8
HETATM    8  C9  UNL     1      25.240  -0.870  53.147  1.00  0.00     0.161 C 
BRANCH   8   9
HETATM    9  C10 UNL     1      23.807  -0.577  53.410  1.00  0.00    -0.002 A 
HETATM   10  C11 UNL     1      22.986   0.170  52.552  1.00  0.00     0.035 A 
HETATM   11  C12 UNL     1      21.672   0.386  52.882  1.00  0.00     0.037 A 
HETATM   12 CL1  UNL     1      20.669   1.331  51.778  1.00  0.00    -0.084 Cl
HETATM   13  C13 UNL     1      21.152  -0.136  54.068  1.00  0.00     0.064 A 
HETATM   14  C14 UNL     1      21.907  -0.879  54.952  1.00  0.00     0.112 A 
HETATM   15  C15 UNL     1      23.208  -1.056  54.562  1.00  0.00     0.118 A 
HETATM   16  O1  UNL     1      22.787  -1.628  55.782  1.00  0.00    -0.304 OA
ENDBRANCH   8   9
ENDBRANCH   6   8
ENDBRANCH   5   6
BRANCH   1  17
HETATM   17  N1  UNL     1      26.095   2.552  54.124  1.00  0.00    -0.339 N 
HETATM   18  H3  UNL     1      25.820   2.943  55.065  1.00  0.00     0.167 HD
BRANCH  17  19
HETATM   19  C4  UNL     1      25.420   2.804  52.876  1.00  0.00     0.035 A 
HETATM   20  C3  UNL     1      25.847   2.453  51.627  1.00  0.00     0.032 A 
HETATM   21  C2  UNL     1      25.077   2.761  50.528  1.00  0.00     0.046 A 
HETATM   22  C1  UNL     1      23.883   3.415  50.637  1.00  0.00     0.138 A 
HETATM   23  F1  UNL     1      23.082   3.739  49.593  1.00  0.00    -0.204 F 
HETATM   24  C17 UNL     1      23.415   3.788  51.890  1.00  0.00     0.074 A 
HETATM   25  C16 UNL     1      24.207   3.466  52.977  1.00  0.00     0.056 A 
HETATM   26 CL2  UNL     1      21.891   4.626  52.131  1.00  0.00    -0.081 Cl
ENDBRANCH  17  19
ENDBRANCH   1  17
TORSDOF 5
ENDMDL
MODEL 4
REMARK VINA RESULT:      -8.6      3.009      5.617
REMARK  5 active torsions:
REMARK  status: ('A' for Active; 'I' for Inactive)
REMARK    1  A    between atoms: C4_5  and  N1_6 
REMARK    2  A    between atoms: N1_6  and  C5_7 
REMARK    3  A    between atoms: C8_11  and  N3_12 
REMARK    4  A    between atoms: N3_12  and  C9_13 
REMARK    5  A    between atoms: C9_13  and  C10_14 
ROOT
HETATM    1  C5  UNL     1      22.761   3.106  50.944  1.00  0.00     0.155 C 
HETATM    2  N2  UNL     1      22.115   3.115  49.808  1.00  0.00    -0.240 NA
HETATM    3  C6  UNL     1      23.065   3.342  48.754  1.00  0.00     0.134 C 
HETATM    4  C7  UNL     1      24.257   3.330  49.321  1.00  0.00     0.026 C 
HETATM    5  C8  UNL     1      24.190   3.334  50.643  1.00  0.00     0.087 C 
ENDROOT
BRANCH   5   6
HETATM    6  N3  UNL     1      25.299   3.523  51.513  1.00  0.00    -0.382 N 
HETATM    7  H5  UNL     1      25.363   4.022  52.416  1.00  0.00     0.160 HD
BRANCH   6   8
HETATM    8  C9  UNL     1      26.534   2.901  51.024  1.00  0.00     0.161 C 
BRANCH   8   9
HETATM    9  C10 UNL     1      26.993   1.821  51.935  1.00  0.00    -0.002 A 
HETATM   10  C11 UNL     1      26.699   0.461  51.754  1.00  0.00     0.035 A 
HETATM   11  C12 UNL     1      27.170  -0.464  52.652  1.00  0.00     0.037 A 
HETATM   12 CL1  UNL     1      26.779  -2.166  52.393  1.00  0.00    -0.084 Cl
HETATM   13  C13 UNL     1      27.941  -0.054  53.741  1.00  0.00     0.064 A 
HETATM   14  C14 UNL     1      28.265   1.267  53.973  1.00  0.00     0.112 A 
HETATM   15  C15 UNL     1      27.763   2.136  53.041  1.00  0.00     0.118 A 
HETATM   16  O1  UNL     1      28.531   2.658  54.104  1.00  0.00    -0.304 OA
ENDBRANCH   8   9
ENDBRANCH   6   8
ENDBRANCH   5   6
BRANCH   1  17
HETATM   17  N1  UNL     1      22.251   2.916  52.254  1.00  0.00    -0.339 N 
HETATM   18  H3  UNL     1      21.915   3.762  52.788  1.00  0.00     0.167 HD
BRANCH  17  19
HETATM   19  C4  UNL     1      22.235   1.556  52.730  1.00  0.00     0.035 A 
HETATM   20  C3  UNL     1      23.314   0.797  53.080  1.00  0.00     0.032 A 
HETATM   21  C2  UNL     1      23.129  -0.492  53.527  1.00  0.00     0.046 A 
HETATM   22  C1  UNL     1      21.888  -1.052  53.637  1.00  0.00     0.138 A 
HETATM   23  F1  UNL     1      21.645  -2.312  54.075  1.00  0.00    -0.204 F 
HETATM   24  C17 UNL     1      20.766  -0.312  53.291  1.00  0.00     0.074 A 
HETATM   25  C16 UNL     1      20.980   0.980  52.845  1.00  0.00     0.056 A 
HETATM   26 CL2  UNL     1      19.132  -0.943  53.403  1.00  0.00    -0.081 Cl
ENDBRANCH  17  19
ENDBRANCH   1  17
TORSDOF 5
ENDMDL
MODEL 5
REMARK VINA RESULT:      -8.5      1.606      1.879
REMARK  5 active torsions:
REMARK  status: ('A' for Active; 'I' for Inactive)
REMARK    1  A    between atoms: C4_5  and  N1_6 
REMARK    2  A    between atoms: N1_6  and  C5_7 
REMARK    3  A    between atoms: C8_11  and  N3_12 
REMARK    4  A    between atoms: N3_12  and  C9_13 
REMARK    5  A    between atoms: C9_13  and  C10_14 
ROOT
HETATM    1  C5  UNL     1      25.895   2.508  51.726  1.00  0.00     0.155 C 
HETATM    2  N2  UNL     1      26.848   2.816  50.886  1.00  0.00    -0.240 NA
HETATM    3  C6  UNL     1      26.241   3.332  49.690  1.00  0.00     0.134 C 
HETATM    4  C7  UNL     1      24.947   3.419  49.939  1.00  0.00     0.026 C 
HETATM    5  C8  UNL     1      24.609   2.827  51.072  1.00  0.00     0.087 C 
ENDROOT
BRANCH   5   6
HETATM    6  N3  UNL     1      23.272   2.588  51.496  1.00  0.00    -0.382 N 
HETATM    7  H5  UNL     1      22.646   3.160  52.089  1.00  0.00     0.160 HD
BRANCH   6   8
HETATM    8  C9  UNL     1      22.722   1.322  51.001  1.00  0.00     0.161 C 
BRANCH   8   9
HETATM    9  C10 UNL     1      22.139   0.517  52.105  1.00  0.00    -0.002 A 
HETATM   10  C11 UNL     1      20.780   0.182  52.203  1.00  0.00     0.035 A 
HETATM   11  C12 UNL     1      20.336  -0.569  53.263  1.00  0.00     0.037 A 
HETATM   12 CL1  UNL     1      18.620  -0.971  53.353  1.00  0.00    -0.084 Cl
HETATM   13  C13 UNL     1      21.235  -0.998  54.242  1.00  0.00     0.064 A 
HETATM   14  C14 UNL     1      22.582  -0.702  54.202  1.00  0.00     0.112 A 
HETATM   15  C15 UNL     1      22.956   0.049  53.119  1.00  0.00     0.118 A 
HETATM   16  O1  UNL     1      23.947  -0.332  54.050  1.00  0.00    -0.304 OA
ENDBRANCH   8   9
ENDBRANCH   6   8
ENDBRANCH   5   6
BRANCH   1  17
HETATM   17  N1  UNL     1      26.004   1.967  53.033  1.00  0.00    -0.339 N 
HETATM   18  H3  UNL     1      25.206   2.119  53.706  1.00  0.00     0.167 HD
BRANCH  17  19
HETATM   19  C4  UNL     1      27.218   1.242  53.312  1.00  0.00     0.035 A 
HETATM   20  C3  UNL     1      28.371   1.745  53.842  1.00  0.00     0.032 A 
HETATM   21  C2  UNL     1      29.447   0.913  54.057  1.00  0.00     0.046 A 
HETATM   22  C1  UNL     1      29.407  -0.418  53.755  1.00  0.00     0.138 A 
HETATM   23  F1  UNL     1      30.432  -1.285  53.949  1.00  0.00    -0.204 F 
HETATM   24  C17 UNL     1      28.252  -0.967  53.215  1.00  0.00     0.074 A 
HETATM   25  C16 UNL     1      27.187  -0.110  53.009  1.00  0.00     0.056 A 
HETATM   26 CL2  UNL     1      28.105  -2.667  52.800  1.00  0.00    -0.081 Cl
ENDBRANCH  17  19
ENDBRANCH   1  17
TORSDOF 5
ENDMDL
MODEL 6
REMARK VINA RESULT:      -8.1      3.752      6.839
REMARK  5 active torsions:
REMARK  status: ('A' for Active; 'I' for Inactive)
REMARK    1  A    between atoms: C4_5  and  N1_6 
REMARK    2  A    between atoms: N1_6  and  C5_7 
REMARK    3  A    between atoms: C8_11  and  N3_12 
REMARK    4  A    between atoms: N3_12  and  C9_13 
REMARK    5  A    between atoms: C9_13  and  C10_14 
ROOT
HETATM    1  C5  UNL     1      21.919   0.674  53.415  1.00  0.00     0.155 C 
HETATM    2  N2  UNL     1      20.974   0.053  54.072  1.00  0.00    -0.240 NA
HETATM    3  C6  UNL     1      21.520  -1.169  54.594  1.00  0.00     0.134 C 
HETATM    4  C7  UNL     1      22.812  -1.145  54.319  1.00  0.00     0.026 C 
HETATM    5  C8  UNL     1      23.137  -0.159  53.499  1.00  0.00     0.087 C 
ENDROOT
BRANCH   5   6
HETATM    6  N3  UNL     1      24.406  -0.006  52.875  1.00  0.00    -0.382 N 
HETATM    7  H5  UNL     1      24.822  -0.509  52.074  1.00  0.00     0.160 HD
BRANCH   6   8
HETATM    8  C9  UNL     1      25.234   1.037  53.489  1.00  0.00     0.161 C 
BRANCH   8   9
HETATM    9  C10 UNL     1      26.664   0.636  53.534  1.00  0.00    -0.002 A 
HETATM   10  C11 UNL     1      27.121  -0.673  53.322  1.00  0.00     0.035 A 
HETATM   11  C12 UNL     1      28.465  -0.945  53.383  1.00  0.00     0.037 A 
HETATM   12 CL1  UNL     1      29.004  -2.603  53.111  1.00  0.00    -0.084 Cl
HETATM   13  C13 UNL     1      29.375   0.079  53.656  1.00  0.00     0.064 A 
HETATM   14  C14 UNL     1      28.988   1.385  53.874  1.00  0.00     0.112 A 
HETATM   15  C15 UNL     1      27.635   1.586  53.798  1.00  0.00     0.118 A 
HETATM   16  O1  UNL     1      28.466   2.692  54.080  1.00  0.00    -0.304 OA
ENDBRANCH   8   9
ENDBRANCH   6   8
ENDBRANCH   5   6
BRANCH   1  17
HETATM   17  N1  UNL     1      21.856   1.913  52.729  1.00  0.00    -0.339 N 
HETATM   18  H3  UNL     1      21.756   2.796  53.298  1.00  0.00     0.167 HD
BRANCH  17  19
HETATM   19  C4  UNL     1      21.944   1.840  51.292  1.00  0.00     0.035 A 
HETATM   20  C3  UNL     1      21.386   0.892  50.483  1.00  0.00     0.032 A 
HETATM   21  C2  UNL     1      21.557   0.969  49.119  1.00  0.00     0.046 A 
HETATM   22  C1  UNL     1      22.275   1.972  48.532  1.00  0.00     0.138 A 
HETATM   23  F1  UNL     1      22.472   2.101  47.197  1.00  0.00    -0.204 F 
HETATM   24  C17 UNL     1      22.857   2.955  49.321  1.00  0.00     0.074 A 
HETATM   25  C16 UNL     1      22.669   2.854  50.687  1.00  0.00     0.056 A 
HETATM   26 CL2  UNL     1      23.791   4.285  48.658  1.00  0.00    -0.081 Cl
ENDBRANCH  17  19
ENDBRANCH   1  17
TORSDOF 5
ENDMDL
MODEL 7
REMARK VINA RESULT:      -7.9      4.235      6.518
REMARK  5 active torsions:
REMARK  status: ('A' for Active; 'I' for Inactive)
REMARK    1  A    between atoms: C4_5  and  N1_6 
REMARK    2  A    between atoms: N1_6  and  C5_7 
REMARK    3  A    between atoms: C8_11  and  N3_12 
REMARK    4  A    between atoms: N3_12  and  C9_13 
REMARK    5  A    between atoms: C9_13  and  C10_14 
ROOT
HETATM    1  C5  UNL     1      24.322   3.903  50.894  1.00  0.00     0.155 C 
HETATM    2  N2  UNL     1      23.731   4.902  51.497  1.00  0.00    -0.240 NA
HETATM    3  C6  UNL     1      23.582   4.563  52.885  1.00  0.00     0.134 C 
HETATM    4  C7  UNL     1      24.215   3.417  53.057  1.00  0.00     0.026 C 
HETATM    5  C8  UNL     1      24.577   2.862  51.911  1.00  0.00     0.087 C 
ENDROOT
BRANCH   5   6
HETATM    6  N3  UNL     1      25.093   1.543  51.775  1.00  0.00    -0.382 N 
HETATM    7  H5  UNL     1      25.346   1.009  50.926  1.00  0.00     0.160 HD
BRANCH   6   8
HETATM    8  C9  UNL     1      25.282   0.857  53.057  1.00  0.00     0.161 C 
BRANCH   8   9
HETATM    9  C10 UNL     1      26.714   0.536  53.291  1.00  0.00    -0.002 A 
HETATM   10  C11 UNL     1      27.269  -0.743  53.143  1.00  0.00     0.035 A 
HETATM   11  C12 UNL     1      28.606  -0.940  53.383  1.00  0.00     0.037 A 
HETATM   12 CL1  UNL     1      29.269  -2.564  53.187  1.00  0.00    -0.084 Cl
HETATM   13  C13 UNL     1      29.412   0.131  53.772  1.00  0.00     0.064 A 
HETATM   14  C14 UNL     1      28.928   1.413  53.934  1.00  0.00     0.112 A 
HETATM   15  C15 UNL     1      27.587   1.538  53.680  1.00  0.00     0.118 A 
HETATM   16  O1  UNL     1      28.309   2.687  54.067  1.00  0.00    -0.304 OA
ENDBRANCH   8   9
ENDBRANCH   6   8
ENDBRANCH   5   6
BRANCH   1  17
HETATM   17  N1  UNL     1      24.682   3.778  49.528  1.00  0.00    -0.339 N 
HETATM   18  H3  UNL     1      24.128   3.113  48.924  1.00  0.00     0.167 HD
BRANCH  17  19
HETATM   19  C4  UNL     1      25.786   4.595  49.093  1.00  0.00     0.035 A 
HETATM   20  C3  UNL     1      27.101   4.233  49.034  1.00  0.00     0.032 A 
HETATM   21  C2  UNL     1      28.041   5.134  48.583  1.00  0.00     0.046 A 
HETATM   22  C1  UNL     1      27.704   6.397  48.187  1.00  0.00     0.138 A 
HETATM   23  F1  UNL     1      28.583   7.323  47.731  1.00  0.00    -0.204 F 
HETATM   24  C17 UNL     1      26.377   6.802  48.232  1.00  0.00     0.074 A 
HETATM   25  C16 UNL     1      25.455   5.878  48.688  1.00  0.00     0.056 A 
HETATM   26 CL2  UNL     1      25.848   8.402  47.739  1.00  0.00    -0.081 Cl
ENDBRANCH  17  19
ENDBRANCH   1  17
TORSDOF 5
ENDMDL
MODEL 8
REMARK VINA RESULT:      -7.9      4.518      6.897
REMARK  5 active torsions:
REMARK  status: ('A' for Active; 'I' for Inactive)
REMARK    1  A    between atoms: C4_5  and  N1_6 
REMARK    2  A    between atoms: N1_6  and  C5_7 
REMARK    3  A    between atoms: C8_11  and  N3_12 
REMARK    4  A    between atoms: N3_12  and  C9_13 
REMARK    5  A    between atoms: C9_13  and  C10_14 
ROOT
HETATM    1  C5  UNL     1      23.259   5.003  52.053  1.00  0.00     0.155 C 
HETATM    2  N2  UNL     1      22.026   4.835  51.652  1.00  0.00    -0.240 NA
HETATM    3  C6  UNL     1      21.743   3.427  51.650  1.00  0.00     0.134 C 
HETATM    4  C7  UNL     1      22.800   2.836  52.177  1.00  0.00     0.026 C 
HETATM    5  C8  UNL     1      23.821   3.664  52.328  1.00  0.00     0.087 C 
ENDROOT
BRANCH   5   6
HETATM    6  N3  UNL     1      25.142   3.270  52.681  1.00  0.00    -0.382 N 
HETATM    7  H5  UNL     1      25.724   3.538  53.492  1.00  0.00     0.160 HD
BRANCH   6   8
HETATM    8  C9  UNL     1      25.746   2.339  51.723  1.00  0.00     0.161 C 
BRANCH   8   9
HETATM    9  C10 UNL     1      26.693   1.412  52.396  1.00  0.00    -0.002 A 
HETATM   10  C11 UNL     1      26.692   0.021  52.220  1.00  0.00     0.035 A 
HETATM   11  C12 UNL     1      27.610  -0.753  52.886  1.00  0.00     0.037 A 
HETATM   12 CL1  UNL     1      27.578  -2.500  52.641  1.00  0.00    -0.084 Cl
HETATM   13  C13 UNL     1      28.543  -0.156  53.735  1.00  0.00     0.064 A 
HETATM   14  C14 UNL     1      28.597   1.206  53.949  1.00  0.00     0.112 A 
HETATM   15  C15 UNL     1      27.654   1.917  53.255  1.00  0.00     0.118 A 
HETATM   16  O1  UNL     1      28.550   2.621  54.087  1.00  0.00    -0.304 OA
ENDBRANCH   8   9
ENDBRANCH   6   8
ENDBRANCH   5   6
BRANCH   1  17
HETATM   17  N1  UNL     1      23.982   6.212  52.216  1.00  0.00    -0.339 N 
HETATM   18  H3  UNL     1      24.215   6.528  53.196  1.00  0.00     0.167 HD
BRANCH  17  19
HETATM   19  C4  UNL     1      24.342   6.896  51.000  1.00  0.00     0.035 A 
HETATM   20  C3  UNL     1      23.759   8.020  50.488  1.00  0.00     0.032 A 
HETATM   21  C2  UNL     1      24.229   8.560  49.311  1.00  0.00     0.046 A 
HETATM   22  C1  UNL     1      25.273   8.007  48.624  1.00  0.00     0.138 A 
HETATM   23  F1  UNL     1      25.780   8.497  47.466  1.00  0.00    -0.204 F 
HETATM   24  C17 UNL     1      25.892   6.865  49.114  1.00  0.00     0.074 A 
HETATM   25  C16 UNL     1      25.401   6.344  50.297  1.00  0.00     0.056 A 
HETATM   26 CL2  UNL     1      27.242   6.088  48.305  1.00  0.00    -0.081 Cl
ENDBRANCH  17  19
ENDBRANCH   1  17
TORSDOF 5
ENDMDL
MODEL 9
REMARK VINA RESULT:      -7.9      3.708      6.096
REMARK  5 active torsions:
REMARK  status: ('A' for Active; 'I' for Inactive)
REMARK    1  A    between atoms: C4_5  and  N1_6 
REMARK    2  A    between atoms: N1_6  and  C5_7 
REMARK    3  A    between atoms: C8_11  and  N3_12 
REMARK    4  A    between atoms: N3_12  and  C9_13 
REMARK    5  A    between atoms: C9_13  and  C10_14 
ROOT
HETATM    1  C5  UNL     1      23.280   2.350  51.688  1.00  0.00     0.155 C 
HETATM    2  N2  UNL     1      22.108   1.849  51.979  1.00  0.00    -0.240 NA
HETATM    3  C6  UNL     1      21.242   2.929  52.365  1.00  0.00     0.134 C 
HETATM    4  C7  UNL     1      21.924   4.041  52.159  1.00  0.00     0.026 C 
HETATM    5  C8  UNL     1      23.198   3.812  51.887  1.00  0.00     0.087 C 
ENDROOT
BRANCH   5   6
HETATM    6  N3  UNL     1      24.207   4.812  51.818  1.00  0.00    -0.382 N 
HETATM    7  H5  UNL     1      24.971   5.037  52.477  1.00  0.00     0.160 HD
BRANCH   6   8
HETATM    8  C9  UNL     1      24.124   5.640  50.610  1.00  0.00     0.161 C 
BRANCH   8   9
HETATM    9  C10 UNL     1      25.407   5.632  49.861  1.00  0.00    -0.002 A 
HETATM   10  C11 UNL     1      26.040   6.783  49.370  1.00  0.00     0.035 A 
HETATM   11  C12 UNL     1      27.226   6.673  48.689  1.00  0.00     0.037 A 
HETATM   12 CL1  UNL     1      27.993   8.145  48.086  1.00  0.00    -0.084 Cl
HETATM   13  C13 UNL     1      27.802   5.418  48.484  1.00  0.00     0.064 A 
HETATM   14  C14 UNL     1      27.231   4.249  48.942  1.00  0.00     0.112 A 
HETATM   15  C15 UNL     1      26.050   4.431  49.612  1.00  0.00     0.118 A 
HETATM   16  O1  UNL     1      26.543   3.117  49.462  1.00  0.00    -0.304 OA
ENDBRANCH   8   9
ENDBRANCH   6   8
ENDBRANCH   5   6
BRANCH   1  17
HETATM   17  N1  UNL     1      24.451   1.676  51.258  1.00  0.00    -0.339 N 
HETATM   18  H3  UNL     1      24.636   1.605  50.221  1.00  0.00     0.167 HD
BRANCH  17  19
HETATM   19  C4  UNL     1      25.293   1.151  52.304  1.00  0.00     0.035 A 
HETATM   20  C3  UNL     1      25.078   0.022  53.040  1.00  0.00     0.032 A 
HETATM   21  C2  UNL     1      25.989  -0.351  54.004  1.00  0.00     0.046 A 
HETATM   22  C1  UNL     1      27.118   0.376  54.257  1.00  0.00     0.138 A 
HETATM   23  F1  UNL     1      28.050   0.056  55.188  1.00  0.00    -0.204 F 
HETATM   24  C17 UNL     1      27.371   1.531  53.528  1.00  0.00     0.074 A 
HETATM   25  C16 UNL     1      26.440   1.881  52.567  1.00  0.00     0.056 A 
HETATM   26 CL2  UNL     1      28.795   2.526  53.778  1.00  0.00    -0.081 Cl
ENDBRANCH  17  19
ENDBRANCH   1  17
TORSDOF 5
ENDMDL
