MODEL 1
REMARK VINA RESULT:      -8.3      0.000      0.000
REMARK  5 active torsions:
REMARK  status: ('A' for Active; 'I' for Inactive)
REMARK    1  A    between atoms: N1_1  and  C1_2 
REMARK    2  A    between atoms: N3_6  and  C4_7 
REMARK    3  A    between atoms: C4_7  and  C5_8 
REMARK    4  A    between atoms: N4_11  and  C8_12 
REMARK    5  A    between atoms: C20_25  and  N5_26 
ROOT
HETATM    1  C1  UNL     1      23.149  -0.823  54.620  1.00  0.00     0.148 A 
HETATM    2  N2  UNL     1      22.014  -1.061  55.149  1.00  0.00    -0.240 NA
HETATM    3  C2  UNL     1      20.839  -0.457  54.634  1.00  0.00     0.136 A 
HETATM    4  C3  UNL     1      20.995   0.347  53.596  1.00  0.00     0.110 A 
HETATM    5  N3  UNL     1      22.276   0.625  52.986  1.00  0.00    -0.352 N 
HETATM    6  C11 UNL     1      23.459   0.033  53.490  1.00  0.00     0.085 A 
HETATM    7  C12 UNL     1      24.725   0.066  53.122  1.00  0.00    -0.008 C 
HETATM    8  C13 UNL     1      25.852  -0.666  53.701  1.00  0.00     0.078 C 
HETATM    9  C14 UNL     1      26.995   0.240  53.888  1.00  0.00    -0.045 A 
HETATM   10  C15 UNL     1      28.010   0.217  54.820  1.00  0.00     0.008 A 
HETATM   11  C16 UNL     1      28.999   1.199  54.705  1.00  0.00     0.001 A 
HETATM   12  C17 UNL     1      28.906   2.135  53.667  1.00  0.00     0.001 A 
HETATM   13  C18 UNL     1      27.857   2.089  52.774  1.00  0.00     0.010 A 
HETATM   14  C19 UNL     1      26.872   1.108  52.895  1.00  0.00    -0.015 A 
HETATM   15  C20 UNL     1      25.583   0.772  52.157  1.00  0.00     0.283 C 
ENDROOT
BRANCH   1  16
HETATM   16  N1  UNL     1      23.855  -1.656  55.518  1.00  0.00    -0.382 N 
HETATM   17  H1  UNL     1      23.507  -2.624  55.796  1.00  0.00     0.157 HD
HETATM   18  H2  UNL     1      24.784  -1.378  55.965  1.00  0.00     0.157 HD
ENDBRANCH   1  16
BRANCH   5  19
HETATM   19  C4  UNL     1      22.311   1.454  51.830  1.00  0.00     0.133 C 
BRANCH  19  20
HETATM   20  C5  UNL     1      21.394   2.620  51.768  1.00  0.00     0.007 C 
HETATM   21  C6  UNL     1      21.063   3.132  50.392  1.00  0.00     0.026 C 
HETATM   22  C7  UNL     1      20.359   4.495  50.532  1.00  0.00     0.125 C 
HETATM   23  N4  UNL     1      21.440   5.416  50.917  1.00  0.00    -0.359 N 
HETATM   24  C9  UNL     1      22.597   4.818  51.555  1.00  0.00     0.125 C 
HETATM   25  C10 UNL     1      22.058   3.761  52.520  1.00  0.00     0.026 C 
BRANCH  23  26
HETATM   26  C8  UNL     1      21.524   6.827  50.755  1.00  0.00     0.350 C 
HETATM   27  O1  UNL     1      22.487   7.660  50.736  1.00  0.00    -0.284 OA
ENDBRANCH  23  26
ENDBRANCH  19  20
ENDBRANCH   5  19
BRANCH  15  28
HETATM   28  N5  UNL     1      25.111   2.135  51.856  1.00  0.00     0.091 N 
HETATM   29  H24 UNL     1      24.894   2.648  52.739  1.00  0.00     0.314 HD
HETATM   30  H25 UNL     1      25.957   2.600  51.472  1.00  0.00     0.314 HD
ENDBRANCH  15  28
TORSDOF 5
ENDMDL
MODEL 2
REMARK VINA RESULT:      -8.2      2.082      2.331
REMARK  5 active torsions:
REMARK  status: ('A' for Active; 'I' for Inactive)
REMARK    1  A    between atoms: N1_1  and  C1_2 
REMARK    2  A    between atoms: N3_6  and  C4_7 
REMARK    3  A    between atoms: C4_7  and  C5_8 
REMARK    4  A    between atoms: N4_11  and  C8_12 
REMARK    5  A    between atoms: C20_25  and  N5_26 
ROOT
HETATM    1  C1  UNL     1      22.656  -0.194  54.004  1.00  0.00     0.148 A 
HETATM    2  N2  UNL     1      21.473  -0.356  54.450  1.00  0.00    -0.240 NA
HETATM    3  C2  UNL     1      20.424   0.505  54.037  1.00  0.00     0.136 A 
HETATM    4  C3  UNL     1      20.746   1.460  53.180  1.00  0.00     0.110 A 
HETATM    5  N3  UNL     1      22.084   1.654  52.666  1.00  0.00    -0.352 N 
HETATM    6  C11 UNL     1      23.143   0.805  53.071  1.00  0.00     0.085 A 
HETATM    7  C12 UNL     1      24.418   0.717  52.746  1.00  0.00    -0.008 C 
HETATM    8  C13 UNL     1      25.398  -0.272  53.196  1.00  0.00     0.078 C 
HETATM    9  C14 UNL     1      26.647   0.400  53.583  1.00  0.00    -0.045 A 
HETATM   10  C15 UNL     1      27.599   0.048  54.515  1.00  0.00     0.008 A 
HETATM   11  C16 UNL     1      28.722   0.875  54.618  1.00  0.00     0.001 A 
HETATM   12  C17 UNL     1      28.818   1.994  53.781  1.00  0.00     0.001 A 
HETATM   13  C18 UNL     1      27.820   2.277  52.873  1.00  0.00     0.010 A 
HETATM   14  C19 UNL     1      26.700   1.450  52.777  1.00  0.00    -0.015 A 
HETATM   15  C20 UNL     1      25.417   1.458  51.958  1.00  0.00     0.283 C 
ENDROOT
BRANCH   1  16
HETATM   16  N1  UNL     1      23.189  -1.279  54.737  1.00  0.00    -0.382 N 
HETATM   17  H1  UNL     1      23.608  -1.163  55.710  1.00  0.00     0.157 HD
HETATM   18  H2  UNL     1      23.194  -2.283  54.372  1.00  0.00     0.157 HD
ENDBRANCH   1  16
BRANCH   5  19
HETATM   19  C4  UNL     1      22.297   2.672  51.696  1.00  0.00     0.133 C 
BRANCH  19  20
HETATM   20  C5  UNL     1      21.585   2.572  50.397  1.00  0.00     0.007 C 
HETATM   21  C6  UNL     1      22.273   1.772  49.323  1.00  0.00     0.026 C 
HETATM   22  C7  UNL     1      21.550   2.022  47.986  1.00  0.00     0.125 C 
HETATM   23  N4  UNL     1      21.952   3.388  47.615  1.00  0.00    -0.359 N 
HETATM   24  C9  UNL     1      22.373   4.251  48.701  1.00  0.00     0.125 C 
HETATM   25  C10 UNL     1      21.414   3.982  49.861  1.00  0.00     0.026 C 
BRANCH  23  26
HETATM   26  C8  UNL     1      21.991   3.998  46.330  1.00  0.00     0.350 C 
HETATM   27  O1  UNL     1      22.095   3.553  45.141  1.00  0.00    -0.284 OA
ENDBRANCH  23  26
ENDBRANCH  19  20
ENDBRANCH   5  19
BRANCH  15  28
HETATM   28  N5  UNL     1      25.160   2.908  51.920  1.00  0.00     0.091 N 
HETATM   29  H24 UNL     1      24.781   3.235  52.836  1.00  0.00     0.314 HD
HETATM   30  H25 UNL     1      26.114   3.317  51.859  1.00  0.00     0.314 HD
ENDBRANCH  15  28
TORSDOF 5
ENDMDL
MODEL 3
REMARK VINA RESULT:      -8.0      3.251      7.600
REMARK  5 active torsions:
REMARK  status: ('A' for Active; 'I' for Inactive)
REMARK    1  A    between atoms: N1_1  and  C1_2 
REMARK    2  A    between atoms: N3_6  and  C4_7 
REMARK    3  A    between atoms: C4_7  and  C5_8 
REMARK    4  A    between atoms: N4_11  and  C8_12 
REMARK    5  A    between atoms: C20_25  and  N5_26 
ROOT
HETATM    1  C1  UNL     1      22.745   3.279  49.182  1.00  0.00     0.148 A 
HETATM    2  N2  UNL     1      23.340   4.314  48.735  1.00  0.00    -0.240 NA
HETATM    3  C2  UNL     1      24.481   4.832  49.400  1.00  0.00     0.136 A 
HETATM    4  C3  UNL     1      24.877   4.186  50.483  1.00  0.00     0.110 A 
HETATM    5  N3  UNL     1      24.213   3.009  51.000  1.00  0.00    -0.352 N 
HETATM    6  C11 UNL     1      23.070   2.482  50.351  1.00  0.00     0.085 A 
HETATM    7  C12 UNL     1      22.305   1.429  50.561  1.00  0.00    -0.008 C 
HETATM    8  C13 UNL     1      21.182   0.954  49.754  1.00  0.00     0.078 C 
HETATM    9  C14 UNL     1      20.046   0.616  50.625  1.00  0.00    -0.045 A 
HETATM   10  C15 UNL     1      18.690   0.658  50.381  1.00  0.00     0.008 A 
HETATM   11  C16 UNL     1      17.848   0.215  51.406  1.00  0.00     0.001 A 
HETATM   12  C17 UNL     1      18.418  -0.240  52.602  1.00  0.00     0.001 A 
HETATM   13  C18 UNL     1      19.787  -0.250  52.765  1.00  0.00     0.010 A 
HETATM   14  C19 UNL     1      20.622   0.195  51.740  1.00  0.00    -0.015 A 
HETATM   15  C20 UNL     1      22.124   0.371  51.568  1.00  0.00     0.283 C 
ENDROOT
BRANCH   1  16
HETATM   16  N1  UNL     1      21.769   3.275  48.159  1.00  0.00    -0.382 N 
HETATM   17  H1  UNL     1      20.730   3.145  48.359  1.00  0.00     0.157 HD
HETATM   18  H2  UNL     1      22.004   3.414  47.127  1.00  0.00     0.157 HD
ENDBRANCH   1  16
BRANCH   5  19
HETATM   19  C4  UNL     1      24.771   2.359  52.136  1.00  0.00     0.133 C 
BRANCH  19  20
HETATM   20  C5  UNL     1      25.874   1.389  51.923  1.00  0.00     0.007 C 
HETATM   21  C6  UNL     1      25.785   0.102  52.698  1.00  0.00     0.026 C 
HETATM   22  C7  UNL     1      27.133  -0.635  52.583  1.00  0.00     0.125 C 
HETATM   23  N4  UNL     1      28.037   0.144  53.445  1.00  0.00    -0.359 N 
HETATM   24  C9  UNL     1      27.669   1.527  53.678  1.00  0.00     0.125 C 
HETATM   25  C10 UNL     1      27.166   2.070  52.340  1.00  0.00     0.026 C 
BRANCH  23  26
HETATM   26  C8  UNL     1      29.236  -0.262  54.094  1.00  0.00     0.350 C 
HETATM   27  O1  UNL     1      30.116  -1.150  53.852  1.00  0.00    -0.284 OA
ENDBRANCH  23  26
ENDBRANCH  19  20
ENDBRANCH   5  19
BRANCH  15  28
HETATM   28  N5  UNL     1      22.477   0.807  52.931  1.00  0.00     0.091 N 
HETATM   29  H24 UNL     1      21.716   0.557  53.601  1.00  0.00     0.314 HD
HETATM   30  H25 UNL     1      23.272   0.186  53.180  1.00  0.00     0.314 HD
ENDBRANCH  15  28
TORSDOF 5
ENDMDL
MODEL 4
REMARK VINA RESULT:      -7.9      1.944      5.436
REMARK  5 active torsions:
REMARK  status: ('A' for Active; 'I' for Inactive)
REMARK    1  A    between atoms: N1_1  and  C1_2 
REMARK    2  A    between atoms: N3_6  and  C4_7 
REMARK    3  A    between atoms: C4_7  and  C5_8 
REMARK    4  A    between atoms: N4_11  and  C8_12 
REMARK    5  A    between atoms: C20_25  and  N5_26 
ROOT
HETATM    1  C1  UNL     1      23.576  -0.579  54.151  1.00  0.00     0.148 A 
HETATM    2  N2  UNL     1      24.776  -0.941  54.381  1.00  0.00    -0.240 NA
HETATM    3  C2  UNL     1      25.836  -0.489  53.553  1.00  0.00     0.136 A 
HETATM    4  C3  UNL     1      25.504   0.313  52.554  1.00  0.00     0.110 A 
HETATM    5  N3  UNL     1      24.146   0.732  52.283  1.00  0.00    -0.352 N 
HETATM    6  C11 UNL     1      23.078   0.286  53.098  1.00  0.00     0.085 A 
HETATM    7  C12 UNL     1      21.782   0.530  53.118  1.00  0.00    -0.008 C 
HETATM    8  C13 UNL     1      20.788   0.050  54.079  1.00  0.00     0.078 C 
HETATM    9  C14 UNL     1      19.598  -0.440  53.367  1.00  0.00    -0.045 A 
HETATM   10  C15 UNL     1      18.693  -1.421  53.710  1.00  0.00     0.008 A 
HETATM   11  C16 UNL     1      17.618  -1.625  52.839  1.00  0.00     0.001 A 
HETATM   12  C17 UNL     1      17.521  -0.834  51.687  1.00  0.00     0.001 A 
HETATM   13  C18 UNL     1      18.470   0.127  51.416  1.00  0.00     0.010 A 
HETATM   14  C19 UNL     1      19.542   0.325  52.287  1.00  0.00    -0.015 A 
HETATM   15  C20 UNL     1      20.769   1.225  52.306  1.00  0.00     0.283 C 
ENDROOT
BRANCH   1  16
HETATM   16  N1  UNL     1      23.042  -1.309  55.238  1.00  0.00    -0.382 N 
HETATM   17  H1  UNL     1      22.221  -0.955  55.818  1.00  0.00     0.157 HD
HETATM   18  H2  UNL     1      23.415  -2.263  55.539  1.00  0.00     0.157 HD
ENDBRANCH   1  16
BRANCH   5  19
HETATM   19  C4  UNL     1      23.919   1.651  51.222  1.00  0.00     0.133 C 
BRANCH  19  20
HETATM   20  C5  UNL     1      24.226   3.085  51.451  1.00  0.00     0.007 C 
HETATM   21  C6  UNL     1      23.340   3.805  52.432  1.00  0.00     0.026 C 
HETATM   22  C7  UNL     1      23.611   5.318  52.319  1.00  0.00     0.125 C 
HETATM   23  N4  UNL     1      22.978   5.697  51.046  1.00  0.00    -0.359 N 
HETATM   24  C9  UNL     1      22.807   4.636  50.072  1.00  0.00     0.125 C 
HETATM   25  C10 UNL     1      24.086   3.799  50.118  1.00  0.00     0.026 C 
BRANCH  23  26
HETATM   26  C8  UNL     1      22.502   6.968  50.619  1.00  0.00     0.350 C 
HETATM   27  O1  UNL     1      21.474   7.667  50.898  1.00  0.00    -0.284 OA
ENDBRANCH  23  26
ENDBRANCH  19  20
ENDBRANCH   5  19
BRANCH  15  28
HETATM   28  N5  UNL     1      21.090   1.232  50.868  1.00  0.00     0.091 N 
HETATM   29  H24 UNL     1      21.646   2.082  50.624  1.00  0.00     0.314 HD
HETATM   30  H25 UNL     1      21.751   0.437  50.768  1.00  0.00     0.314 HD
ENDBRANCH  15  28
TORSDOF 5
ENDMDL
MODEL 5
REMARK VINA RESULT:      -7.9      2.571      5.620
REMARK  5 active torsions:
REMARK  status: ('A' for Active; 'I' for Inactive)
REMARK    1  A    between atoms: N1_1  and  C1_2 
REMARK    2  A    between atoms: N3_6  and  C4_7 
REMARK    3  A    between atoms: C4_7  and  C5_8 
REMARK    4  A    between atoms: N4_11  and  C8_12 
REMARK    5  A    between atoms: C20_25  and  N5_26 
ROOT
HETATM    1  C1  UNL     1      24.148  -0.533  54.214  1.00  0.00     0.148 A 
HETATM    2  N2  UNL     1      25.321  -0.959  54.471  1.00  0.00    -0.240 NA
HETATM    3  C2  UNL     1      26.412  -0.616  53.632  1.00  0.00     0.136 A 
HETATM    4  C3  UNL     1      26.138   0.156  52.593  1.00  0.00     0.110 A 
HETATM    5  N3  UNL     1      24.811   0.647  52.291  1.00  0.00    -0.352 N 
HETATM    6  C11 UNL     1      23.712   0.310  53.116  1.00  0.00     0.085 A 
HETATM    7  C12 UNL     1      22.434   0.636  53.113  1.00  0.00    -0.008 C 
HETATM    8  C13 UNL     1      21.406   0.268  54.087  1.00  0.00     0.078 C 
HETATM    9  C14 UNL     1      20.192  -0.179  53.389  1.00  0.00    -0.045 A 
HETATM   10  C15 UNL     1      19.223  -1.083  53.771  1.00  0.00     0.008 A 
HETATM   11  C16 UNL     1      18.143  -1.259  52.901  1.00  0.00     0.001 A 
HETATM   12  C17 UNL     1      18.103  -0.521  51.712  1.00  0.00     0.001 A 
HETATM   13  C18 UNL     1      19.114   0.364  51.404  1.00  0.00     0.010 A 
HETATM   14  C19 UNL     1      20.191   0.535  52.274  1.00  0.00    -0.015 A 
HETATM   15  C20 UNL     1      21.473   1.355  52.260  1.00  0.00     0.283 C 
ENDROOT
BRANCH   1  16
HETATM   16  N1  UNL     1      23.562  -1.174  55.330  1.00  0.00    -0.382 N 
HETATM   17  H1  UNL     1      22.727  -1.829  55.241  1.00  0.00     0.157 HD
HETATM   18  H2  UNL     1      23.923  -1.054  56.327  1.00  0.00     0.157 HD
ENDBRANCH   1  16
BRANCH   5  19
HETATM   19  C4  UNL     1      24.650   1.526  51.184  1.00  0.00     0.133 C 
BRANCH  19  20
HETATM   20  C5  UNL     1      25.047   2.947  51.347  1.00  0.00     0.007 C 
HETATM   21  C6  UNL     1      24.141   3.966  50.709  1.00  0.00     0.026 C 
HETATM   22  C7  UNL     1      24.853   5.333  50.724  1.00  0.00     0.125 C 
HETATM   23  N4  UNL     1      25.892   5.202  49.691  1.00  0.00    -0.359 N 
HETATM   24  C9  UNL     1      26.323   3.853  49.380  1.00  0.00     0.125 C 
HETATM   25  C10 UNL     1      26.417   3.113  50.714  1.00  0.00     0.026 C 
BRANCH  23  26
HETATM   26  C8  UNL     1      26.548   6.216  48.938  1.00  0.00     0.350 C 
HETATM   27  O1  UNL     1      27.760   6.429  48.608  1.00  0.00    -0.284 OA
ENDBRANCH  23  26
ENDBRANCH  19  20
ENDBRANCH   5  19
BRANCH  15  28
HETATM   28  N5  UNL     1      21.802   1.272  50.826  1.00  0.00     0.091 N 
HETATM   29  H24 UNL     1      22.832   1.365  50.683  1.00  0.00     0.314 HD
HETATM   30  H25 UNL     1      21.583   0.284  50.589  1.00  0.00     0.314 HD
ENDBRANCH  15  28
TORSDOF 5
ENDMDL
MODEL 6
REMARK VINA RESULT:      -7.8      3.406      5.988
REMARK  5 active torsions:
REMARK  status: ('A' for Active; 'I' for Inactive)
REMARK    1  A    between atoms: N1_1  and  C1_2 
REMARK    2  A    between atoms: N3_6  and  C4_7 
REMARK    3  A    between atoms: C4_7  and  C5_8 
REMARK    4  A    between atoms: N4_11  and  C8_12 
REMARK    5  A    between atoms: C20_25  and  N5_26 
ROOT
HETATM    1  C1  UNL     1      26.869   2.144  52.681  1.00  0.00     0.148 A 
HETATM    2  N2  UNL     1      27.251   1.684  53.806  1.00  0.00    -0.240 NA
HETATM    3  C2  UNL     1      26.387   0.869  54.582  1.00  0.00     0.136 A 
HETATM    4  C3  UNL     1      25.191   0.625  54.073  1.00  0.00     0.110 A 
HETATM    5  N3  UNL     1      24.745   1.140  52.798  1.00  0.00    -0.352 N 
HETATM    6  C11 UNL     1      25.594   1.958  52.013  1.00  0.00     0.085 A 
HETATM    7  C12 UNL     1      25.478   2.519  50.825  1.00  0.00    -0.008 C 
HETATM    8  C13 UNL     1      26.481   3.291  50.091  1.00  0.00     0.078 C 
HETATM    9  C14 UNL     1      25.870   4.511  49.541  1.00  0.00    -0.045 A 
HETATM   10  C15 UNL     1      26.422   5.746  49.279  1.00  0.00     0.008 A 
HETATM   11  C16 UNL     1      25.585   6.703  48.696  1.00  0.00     0.001 A 
HETATM   12  C17 UNL     1      24.257   6.360  48.414  1.00  0.00     0.001 A 
HETATM   13  C18 UNL     1      23.782   5.100  48.708  1.00  0.00     0.010 A 
HETATM   14  C19 UNL     1      24.621   4.150  49.292  1.00  0.00    -0.015 A 
HETATM   15  C20 UNL     1      24.455   2.720  49.786  1.00  0.00     0.283 C 
ENDROOT
BRANCH   1  16
HETATM   16  N1  UNL     1      28.085   2.821  52.432  1.00  0.00    -0.382 N 
HETATM   17  H1  UNL     1      28.194   3.872  52.568  1.00  0.00     0.157 HD
HETATM   18  H2  UNL     1      28.972   2.325  52.104  1.00  0.00     0.157 HD
ENDBRANCH   1  16
BRANCH   5  19
HETATM   19  C4  UNL     1      23.461   0.754  52.322  1.00  0.00     0.133 C 
BRANCH  19  20
HETATM   20  C5  UNL     1      22.446   0.310  53.309  1.00  0.00     0.007 C 
HETATM   21  C6  UNL     1      22.101  -1.156  53.294  1.00  0.00     0.026 C 
HETATM   22  C7  UNL     1      20.844  -1.373  54.159  1.00  0.00     0.125 C 
HETATM   23  N4  UNL     1      19.752  -0.824  53.340  1.00  0.00    -0.359 N 
HETATM   24  C9  UNL     1      20.125   0.168  52.351  1.00  0.00     0.125 C 
HETATM   25  C10 UNL     1      21.164   1.071  53.018  1.00  0.00     0.026 C 
BRANCH  23  26
HETATM   26  C8  UNL     1      18.361  -1.125  53.374  1.00  0.00     0.350 C 
HETATM   27  O1  UNL     1      17.685  -2.144  53.730  1.00  0.00    -0.284 OA
ENDBRANCH  23  26
ENDBRANCH  19  20
ENDBRANCH   5  19
BRANCH  15  28
HETATM   28  N5  UNL     1      23.089   2.806  50.332  1.00  0.00     0.091 N 
HETATM   29  H24 UNL     1      23.082   3.378  51.205  1.00  0.00     0.314 HD
HETATM   30  H25 UNL     1      22.587   3.380  49.627  1.00  0.00     0.314 HD
ENDBRANCH  15  28
TORSDOF 5
ENDMDL
MODEL 7
REMARK VINA RESULT:      -7.6      2.724      4.309
REMARK  5 active torsions:
REMARK  status: ('A' for Active; 'I' for Inactive)
REMARK    1  A    between atoms: N1_1  and  C1_2 
REMARK    2  A    between atoms: N3_6  and  C4_7 
REMARK    3  A    between atoms: C4_7  and  C5_8 
REMARK    4  A    between atoms: N4_11  and  C8_12 
REMARK    5  A    between atoms: C20_25  and  N5_26 
ROOT
HETATM    1  C1  UNL     1      23.461   2.654  49.647  1.00  0.00     0.148 A 
HETATM    2  N2  UNL     1      22.960   2.809  48.485  1.00  0.00    -0.240 NA
HETATM    3  C2  UNL     1      21.827   2.055  48.083  1.00  0.00     0.136 A 
HETATM    4  C3  UNL     1      21.339   1.204  48.970  1.00  0.00     0.110 A 
HETATM    5  N3  UNL     1      21.897   1.019  50.291  1.00  0.00    -0.352 N 
HETATM    6  C11 UNL     1      23.029   1.761  50.707  1.00  0.00     0.085 A 
HETATM    7  C12 UNL     1      23.709   1.834  51.834  1.00  0.00    -0.008 C 
HETATM    8  C13 UNL     1      24.834   2.713  52.154  1.00  0.00     0.078 C 
HETATM    9  C14 UNL     1      25.902   1.943  52.808  1.00  0.00    -0.045 A 
HETATM   10  C15 UNL     1      27.268   2.131  52.806  1.00  0.00     0.008 A 
HETATM   11  C16 UNL     1      28.029   1.249  53.579  1.00  0.00     0.001 A 
HETATM   12  C17 UNL     1      27.376   0.243  54.301  1.00  0.00     0.001 A 
HETATM   13  C18 UNL     1      26.003   0.123  54.249  1.00  0.00     0.010 A 
HETATM   14  C19 UNL     1      25.248   1.004  53.474  1.00  0.00    -0.015 A 
HETATM   15  C20 UNL     1      23.771   1.157  53.139  1.00  0.00     0.283 C 
ENDROOT
BRANCH   1  16
HETATM   16  N1  UNL     1      24.480   3.612  49.445  1.00  0.00    -0.382 N 
HETATM   17  H1  UNL     1      24.308   4.535  48.942  1.00  0.00     0.157 HD
HETATM   18  H2  UNL     1      25.482   3.480  49.791  1.00  0.00     0.157 HD
ENDBRANCH   1  16
BRANCH   5  19
HETATM   19  C4  UNL     1      21.244   0.125  51.184  1.00  0.00     0.133 C 
BRANCH  19  20
HETATM   20  C5  UNL     1      19.914   0.507  51.721  1.00  0.00     0.007 C 
HETATM   21  C6  UNL     1      18.803   0.637  50.714  1.00  0.00     0.026 C 
HETATM   22  C7  UNL     1      17.599   1.316  51.396  1.00  0.00     0.125 C 
HETATM   23  N4  UNL     1      18.015   2.721  51.531  1.00  0.00    -0.359 N 
HETATM   24  C9  UNL     1      19.443   2.971  51.544  1.00  0.00     0.125 C 
HETATM   25  C10 UNL     1      20.067   1.861  52.392  1.00  0.00     0.026 C 
BRANCH  23  26
HETATM   26  C8  UNL     1      17.214   3.891  51.654  1.00  0.00     0.350 C 
HETATM   27  O1  UNL     1      16.398   4.316  52.535  1.00  0.00    -0.284 OA
ENDBRANCH  23  26
ENDBRANCH  19  20
ENDBRANCH   5  19
BRANCH  15  28
HETATM   28  N5  UNL     1      23.387  -0.264  53.071  1.00  0.00     0.091 N 
HETATM   29  H24 UNL     1      22.520  -0.433  53.627  1.00  0.00     0.314 HD
HETATM   30  H25 UNL     1      23.102  -0.385  52.079  1.00  0.00     0.314 HD
ENDBRANCH  15  28
TORSDOF 5
ENDMDL
MODEL 8
REMARK VINA RESULT:      -7.4      8.283     11.549
REMARK  5 active torsions:
REMARK  status: ('A' for Active; 'I' for Inactive)
REMARK    1  A    between atoms: N1_1  and  C1_2 
REMARK    2  A    between atoms: N3_6  and  C4_7 
REMARK    3  A    between atoms: C4_7  and  C5_8 
REMARK    4  A    between atoms: N4_11  and  C8_12 
REMARK    5  A    between atoms: C20_25  and  N5_26 
ROOT
HETATM    1  C1  UNL     1      28.048  10.228  48.497  1.00  0.00     0.148 A 
HETATM    2  N2  UNL     1      28.356  11.431  48.784  1.00  0.00    -0.240 NA
HETATM    3  C2  UNL     1      29.693  11.774  49.111  1.00  0.00     0.136 A 
HETATM    4  C3  UNL     1      30.575  10.789  49.099  1.00  0.00     0.110 A 
HETATM    5  N3  UNL     1      30.240   9.420  48.774  1.00  0.00    -0.352 N 
HETATM    6  C11 UNL     1      28.910   9.061  48.448  1.00  0.00     0.085 A 
HETATM    7  C12 UNL     1      28.332   7.934  48.079  1.00  0.00    -0.008 C 
HETATM    8  C13 UNL     1      26.937   7.718  47.696  1.00  0.00     0.078 C 
HETATM    9  C14 UNL     1      26.414   6.517  48.364  1.00  0.00    -0.045 A 
HETATM   10  C15 UNL     1      25.133   6.206  48.767  1.00  0.00     0.008 A 
HETATM   11  C16 UNL     1      24.937   4.943  49.335  1.00  0.00     0.001 A 
HETATM   12  C17 UNL     1      26.032   4.079  49.460  1.00  0.00     0.001 A 
HETATM   13  C18 UNL     1      27.282   4.468  49.031  1.00  0.00     0.010 A 
HETATM   14  C19 UNL     1      27.473   5.730  48.467  1.00  0.00    -0.015 A 
HETATM   15  C20 UNL     1      28.669   6.508  47.937  1.00  0.00     0.283 C 
ENDROOT
BRANCH   1  16
HETATM   16  N1  UNL     1      26.682  10.522  48.284  1.00  0.00    -0.382 N 
HETATM   17  H1  UNL     1      26.272  10.666  47.311  1.00  0.00     0.157 HD
HETATM   18  H2  UNL     1      25.973  10.606  49.077  1.00  0.00     0.157 HD
ENDBRANCH   1  16
BRANCH   5  19
HETATM   19  C4  UNL     1      31.287   8.458  48.727  1.00  0.00     0.133 C 
BRANCH  19  20
HETATM   20  C5  UNL     1      32.175   8.439  47.538  1.00  0.00     0.007 C 
HETATM   21  C6  UNL     1      31.493   8.333  46.200  1.00  0.00     0.026 C 
HETATM   22  C7  UNL     1      32.558   8.031  45.128  1.00  0.00     0.125 C 
HETATM   23  N4  UNL     1      32.915   6.624  45.369  1.00  0.00    -0.359 N 
HETATM   24  C9  UNL     1      32.670   6.118  46.706  1.00  0.00     0.125 C 
HETATM   25  C10 UNL     1      33.086   7.231  47.670  1.00  0.00     0.026 C 
BRANCH  23  26
HETATM   26  C8  UNL     1      33.472   5.669  44.473  1.00  0.00     0.350 C 
HETATM   27  O1  UNL     1      33.072   4.553  44.008  1.00  0.00    -0.284 OA
ENDBRANCH  23  26
ENDBRANCH  19  20
ENDBRANCH   5  19
BRANCH  15  28
HETATM   28  N5  UNL     1      29.697   6.061  48.894  1.00  0.00     0.091 N 
HETATM   29  H24 UNL     1      29.471   5.105  49.248  1.00  0.00     0.314 HD
HETATM   30  H25 UNL     1      30.539   5.938  48.297  1.00  0.00     0.314 HD
ENDBRANCH  15  28
TORSDOF 5
ENDMDL
MODEL 9
REMARK VINA RESULT:      -7.4      1.802      2.447
REMARK  5 active torsions:
REMARK  status: ('A' for Active; 'I' for Inactive)
REMARK    1  A    between atoms: N1_1  and  C1_2 
REMARK    2  A    between atoms: N3_6  and  C4_7 
REMARK    3  A    between atoms: C4_7  and  C5_8 
REMARK    4  A    between atoms: N4_11  and  C8_12 
REMARK    5  A    between atoms: C20_25  and  N5_26 
ROOT
HETATM    1  C1  UNL     1      22.764   0.804  52.953  1.00  0.00     0.148 A 
HETATM    2  N2  UNL     1      21.506   0.930  53.119  1.00  0.00    -0.240 NA
HETATM    3  C2  UNL     1      20.803   2.001  52.511  1.00  0.00     0.136 A 
HETATM    4  C3  UNL     1      21.520   2.838  51.780  1.00  0.00     0.110 A 
HETATM    5  N3  UNL     1      22.947   2.707  51.583  1.00  0.00    -0.352 N 
HETATM    6  C11 UNL     1      23.663   1.645  52.185  1.00  0.00     0.085 A 
HETATM    7  C12 UNL     1      24.923   1.258  52.149  1.00  0.00    -0.008 C 
HETATM    8  C13 UNL     1      25.523   0.078  52.772  1.00  0.00     0.078 C 
HETATM    9  C14 UNL     1      26.774   0.450  53.450  1.00  0.00    -0.045 A 
HETATM   10  C15 UNL     1      27.386  -0.094  54.559  1.00  0.00     0.008 A 
HETATM   11  C16 UNL     1      28.617   0.452  54.936  1.00  0.00     0.001 A 
HETATM   12  C17 UNL     1      29.152   1.502  54.179  1.00  0.00     0.001 A 
HETATM   13  C18 UNL     1      28.475   1.990  53.082  1.00  0.00     0.010 A 
HETATM   14  C19 UNL     1      27.246   1.443  52.711  1.00  0.00    -0.015 A 
HETATM   15  C20 UNL     1      26.216   1.732  51.628  1.00  0.00     0.283 C 
ENDROOT
BRANCH   1  16
HETATM   16  N1  UNL     1      22.854  -0.360  53.750  1.00  0.00    -0.382 N 
HETATM   17  H1  UNL     1      22.000  -0.934  54.025  1.00  0.00     0.157 HD
HETATM   18  H2  UNL     1      23.780  -0.746  54.116  1.00  0.00     0.157 HD
ENDBRANCH   1  16
BRANCH   5  19
HETATM   19  C4  UNL     1      23.599   3.630  50.719  1.00  0.00     0.133 C 
BRANCH  19  20
HETATM   20  C5  UNL     1      22.842   4.817  50.251  1.00  0.00     0.007 C 
HETATM   21  C6  UNL     1      23.032   5.201  48.808  1.00  0.00     0.026 C 
HETATM   22  C7  UNL     1      22.419   6.597  48.586  1.00  0.00     0.125 C 
HETATM   23  N4  UNL     1      23.369   7.510  49.242  1.00  0.00    -0.359 N 
HETATM   24  C9  UNL     1      24.197   6.935  50.285  1.00  0.00     0.125 C 
HETATM   25  C10 UNL     1      23.291   6.002  51.089  1.00  0.00     0.026 C 
BRANCH  23  26
HETATM   26  C8  UNL     1      23.601   8.893  49.004  1.00  0.00     0.350 C 
HETATM   27  O1  UNL     1      24.196   9.545  48.085  1.00  0.00    -0.284 OA
ENDBRANCH  23  26
ENDBRANCH  19  20
ENDBRANCH   5  19
BRANCH  15  28
HETATM   28  N5  UNL     1      26.315   3.201  51.582  1.00  0.00     0.091 N 
HETATM   29  H24 UNL     1      26.840   3.503  50.731  1.00  0.00     0.314 HD
HETATM   30  H25 UNL     1      25.334   3.500  51.417  1.00  0.00     0.314 HD
ENDBRANCH  15  28
TORSDOF 5
ENDMDL
