MODEL 1
REMARK VINA RESULT:      -6.2      0.000      0.000
REMARK  8 active torsions:
REMARK  status: ('A' for Active; 'I' for Inactive)
REMARK    1  A    between atoms: C2_2  and  O1_3 
REMARK    2  A    between atoms: O1_3  and  C3_4 
REMARK    3  A    between atoms: C3_4  and  C4_5 
REMARK    4  A    between atoms: C4_5  and  C5_6 
REMARK    5  A    between atoms: C5_6  and  C6_7 
REMARK    6  A    between atoms: C6_7  and  O2_8 
REMARK    7  A    between atoms: O2_8  and  C7_9 
REMARK    8  A    between atoms: C14_18  and  O3_19 
ROOT
HETATM    1  C7  UNL     1      24.634   1.275  52.391  1.00  0.00     0.103 A 
HETATM    2  C8  UNL     1      24.415   0.401  53.430  1.00  0.00     0.055 A 
HETATM    3  C9  UNL     1      23.229  -0.235  53.698  1.00  0.00     0.013 A 
HETATM    4  C10 UNL     1      23.223  -1.074  54.793  1.00  0.00     0.132 A 
HETATM    5  N1  UNL     1      22.051  -1.714  55.074  1.00  0.00    -0.253 NA
HETATM    6  C11 UNL     1      20.978  -1.492  54.276  1.00  0.00     0.233 A 
HETATM    7  N2  UNL     1      21.024  -0.653  53.201  1.00  0.00    -0.241 NA
HETATM    8  C12 UNL     1      22.153   0.006  52.877  1.00  0.00     0.072 A 
HETATM    9  C13 UNL     1      22.283   0.868  51.812  1.00  0.00     0.072 A 
HETATM   10  C14 UNL     1      23.514   1.492  51.578  1.00  0.00     0.103 A 
ENDROOT
BRANCH   1  11
HETATM   11  O2  UNL     1      25.677   2.005  51.925  1.00  0.00    -0.348 OA
BRANCH  11  12
HETATM   12  C6  UNL     1      27.041   1.810  52.009  1.00  0.00     0.176 C 
BRANCH  12  13
HETATM   13  C5  UNL     1      27.598   2.297  53.296  1.00  0.00     0.029 C 
BRANCH  13  14
HETATM   14  C4  UNL     1      28.687   1.338  53.756  1.00  0.00     0.028 C 
BRANCH  14  15
HETATM   15  C3  UNL     1      27.989   0.231  54.504  1.00  0.00     0.167 C 
BRANCH  15  16
HETATM   16  O1  UNL     1      28.621  -0.979  54.380  1.00  0.00    -0.391 OA
BRANCH  16  17
HETATM   17  C2  UNL     1      28.574  -1.405  53.070  1.00  0.00     0.163 C 
HETATM   18  C1  UNL     1      27.182  -1.922  52.767  1.00  0.00     0.033 C 
ENDBRANCH  16  17
ENDBRANCH  15  16
ENDBRANCH  14  15
ENDBRANCH  13  14
ENDBRANCH  12  13
ENDBRANCH  11  12
ENDBRANCH   1  11
BRANCH  10  19
HETATM   19  O3  UNL     1      23.477   2.336  50.460  1.00  0.00    -0.353 OA
HETATM   20  C15 UNL     1      22.575   2.180  49.414  1.00  0.00     0.210 C 
ENDBRANCH  10  19
TORSDOF 8
ENDMDL
MODEL 2
REMARK VINA RESULT:      -6.1      2.917      5.652
REMARK  8 active torsions:
REMARK  status: ('A' for Active; 'I' for Inactive)
REMARK    1  A    between atoms: C2_2  and  O1_3 
REMARK    2  A    between atoms: O1_3  and  C3_4 
REMARK    3  A    between atoms: C3_4  and  C4_5 
REMARK    4  A    between atoms: C4_5  and  C5_6 
REMARK    5  A    between atoms: C5_6  and  C6_7 
REMARK    6  A    between atoms: C6_7  and  O2_8 
REMARK    7  A    between atoms: O2_8  and  C7_9 
REMARK    8  A    between atoms: C14_18  and  O3_19 
ROOT
HETATM    1  C7  UNL     1      24.344   1.238  52.836  1.00  0.00     0.103 A 
HETATM    2  C8  UNL     1      25.554   1.877  52.969  1.00  0.00     0.055 A 
HETATM    3  C9  UNL     1      26.647   1.380  53.634  1.00  0.00     0.013 A 
HETATM    4  C10 UNL     1      27.767   2.185  53.650  1.00  0.00     0.132 A 
HETATM    5  N1  UNL     1      28.863   1.706  54.307  1.00  0.00    -0.253 NA
HETATM    6  C11 UNL     1      28.789   0.488  54.898  1.00  0.00     0.233 A 
HETATM    7  N2  UNL     1      27.661  -0.279  54.860  1.00  0.00    -0.241 NA
HETATM    8  C12 UNL     1      26.550   0.143  54.227  1.00  0.00     0.072 A 
HETATM    9  C13 UNL     1      25.375  -0.567  54.143  1.00  0.00     0.072 A 
HETATM   10  C14 UNL     1      24.287  -0.018  53.452  1.00  0.00     0.103 A 
ENDROOT
BRANCH   1  11
HETATM   11  O2  UNL     1      23.153   1.505  52.246  1.00  0.00    -0.348 OA
BRANCH  11  12
HETATM   12  C6  UNL     1      22.788   1.590  50.918  1.00  0.00     0.176 C 
BRANCH  12  13
HETATM   13  C5  UNL     1      22.786   2.991  50.427  1.00  0.00     0.029 C 
BRANCH  13  14
HETATM   14  C4  UNL     1      23.617   3.067  49.153  1.00  0.00     0.028 C 
BRANCH  14  15
HETATM   15  C3  UNL     1      24.491   4.288  49.289  1.00  0.00     0.167 C 
BRANCH  15  16
HETATM   16  O1  UNL     1      25.426   4.166  50.284  1.00  0.00    -0.391 OA
BRANCH  16  17
HETATM   17  C2  UNL     1      26.600   3.657  49.770  1.00  0.00     0.163 C 
HETATM   18  C1  UNL     1      27.243   4.699  48.877  1.00  0.00     0.033 C 
ENDBRANCH  16  17
ENDBRANCH  15  16
ENDBRANCH  14  15
ENDBRANCH  13  14
ENDBRANCH  12  13
ENDBRANCH  11  12
ENDBRANCH   1  11
BRANCH  10  19
HETATM   19  O3  UNL     1      23.171  -0.866  53.462  1.00  0.00    -0.353 OA
HETATM   20  C15 UNL     1      22.313  -0.988  54.548  1.00  0.00     0.210 C 
ENDBRANCH  10  19
TORSDOF 8
ENDMDL
MODEL 3
REMARK VINA RESULT:      -6.1      3.073      6.078
REMARK  8 active torsions:
REMARK  status: ('A' for Active; 'I' for Inactive)
REMARK    1  A    between atoms: C2_2  and  O1_3 
REMARK    2  A    between atoms: O1_3  and  C3_4 
REMARK    3  A    between atoms: C3_4  and  C4_5 
REMARK    4  A    between atoms: C4_5  and  C5_6 
REMARK    5  A    between atoms: C5_6  and  C6_7 
REMARK    6  A    between atoms: C6_7  and  O2_8 
REMARK    7  A    between atoms: O2_8  and  C7_9 
REMARK    8  A    between atoms: C14_18  and  O3_19 
ROOT
HETATM    1  C7  UNL     1      24.507   0.120  53.171  1.00  0.00     0.103 A 
HETATM    2  C8  UNL     1      25.751  -0.399  53.441  1.00  0.00     0.055 A 
HETATM    3  C9  UNL     1      26.880   0.336  53.704  1.00  0.00     0.013 A 
HETATM    4  C10 UNL     1      28.030  -0.384  53.951  1.00  0.00     0.132 A 
HETATM    5  N1  UNL     1      29.162   0.332  54.214  1.00  0.00    -0.253 NA
HETATM    6  C11 UNL     1      29.093   1.686  54.215  1.00  0.00     0.233 A 
HETATM    7  N2  UNL     1      27.935   2.362  53.965  1.00  0.00    -0.241 NA
HETATM    8  C12 UNL     1      26.788   1.708  53.699  1.00  0.00     0.072 A 
HETATM    9  C13 UNL     1      25.580   2.313  53.437  1.00  0.00     0.072 A 
HETATM   10  C14 UNL     1      24.455   1.520  53.176  1.00  0.00     0.103 A 
ENDROOT
BRANCH   1  11
HETATM   11  O2  UNL     1      23.276  -0.375  52.892  1.00  0.00    -0.348 OA
BRANCH  11  12
HETATM   12  C6  UNL     1      22.466  -1.255  53.581  1.00  0.00     0.176 C 
BRANCH  12  13
HETATM   13  C5  UNL     1      21.875  -0.639  54.796  1.00  0.00     0.029 C 
BRANCH  13  14
HETATM   14  C4  UNL     1      20.729   0.272  54.378  1.00  0.00     0.028 C 
BRANCH  14  15
HETATM   15  C3  UNL     1      19.847  -0.546  53.469  1.00  0.00     0.167 C 
BRANCH  15  16
HETATM   16  O1  UNL     1      19.224   0.208  52.509  1.00  0.00    -0.391 OA
BRANCH  16  17
HETATM   17  C2  UNL     1      20.089   1.167  52.025  1.00  0.00     0.163 C 
HETATM   18  C1  UNL     1      20.705   0.670  50.733  1.00  0.00     0.033 C 
ENDBRANCH  16  17
ENDBRANCH  15  16
ENDBRANCH  14  15
ENDBRANCH  13  14
ENDBRANCH  12  13
ENDBRANCH  11  12
ENDBRANCH   1  11
BRANCH  10  19
HETATM   19  O3  UNL     1      23.310   2.289  52.929  1.00  0.00    -0.353 OA
HETATM   20  C15 UNL     1      23.330   3.482  52.217  1.00  0.00     0.210 C 
ENDBRANCH  10  19
TORSDOF 8
ENDMDL
MODEL 4
REMARK VINA RESULT:      -5.9      3.211      6.584
REMARK  8 active torsions:
REMARK  status: ('A' for Active; 'I' for Inactive)
REMARK    1  A    between atoms: C2_2  and  O1_3 
REMARK    2  A    between atoms: O1_3  and  C3_4 
REMARK    3  A    between atoms: C3_4  and  C4_5 
REMARK    4  A    between atoms: C4_5  and  C5_6 
REMARK    5  A    between atoms: C5_6  and  C6_7 
REMARK    6  A    between atoms: C6_7  and  O2_8 
REMARK    7  A    between atoms: O2_8  and  C7_9 
REMARK    8  A    between atoms: C14_18  and  O3_19 
ROOT
HETATM    1  C7  UNL     1      24.129   1.069  52.784  1.00  0.00     0.103 A 
HETATM    2  C8  UNL     1      25.339   1.716  52.872  1.00  0.00     0.055 A 
HETATM    3  C9  UNL     1      26.432   1.268  53.571  1.00  0.00     0.013 A 
HETATM    4  C10 UNL     1      27.552   2.072  53.529  1.00  0.00     0.132 A 
HETATM    5  N1  UNL     1      28.648   1.642  54.219  1.00  0.00    -0.253 NA
HETATM    6  C11 UNL     1      28.574   0.470  54.896  1.00  0.00     0.233 A 
HETATM    7  N2  UNL     1      27.447  -0.298  54.914  1.00  0.00    -0.241 NA
HETATM    8  C12 UNL     1      26.336   0.077  54.251  1.00  0.00     0.072 A 
HETATM    9  C13 UNL     1      25.160  -0.637  54.218  1.00  0.00     0.072 A 
HETATM   10  C14 UNL     1      24.072  -0.140  53.490  1.00  0.00     0.103 A 
ENDROOT
BRANCH   1  11
HETATM   11  O2  UNL     1      22.938   1.292  52.177  1.00  0.00    -0.348 OA
BRANCH  11  12
HETATM   12  C6  UNL     1      21.922   2.183  52.455  1.00  0.00     0.176 C 
BRANCH  12  13
HETATM   13  C5  UNL     1      20.640   1.496  52.754  1.00  0.00     0.029 C 
BRANCH  13  14
HETATM   14  C4  UNL     1      20.177   0.754  51.508  1.00  0.00     0.028 C 
BRANCH  14  15
HETATM   15  C3  UNL     1      18.990  -0.077  51.925  1.00  0.00     0.167 C 
BRANCH  15  16
HETATM   16  O1  UNL     1      19.152  -0.658  53.155  1.00  0.00    -0.391 OA
BRANCH  16  17
HETATM   17  C2  UNL     1      18.091  -1.498  53.425  1.00  0.00     0.163 C 
HETATM   18  C1  UNL     1      16.956  -1.183  52.471  1.00  0.00     0.033 C 
ENDBRANCH  16  17
ENDBRANCH  15  16
ENDBRANCH  14  15
ENDBRANCH  13  14
ENDBRANCH  12  13
ENDBRANCH  11  12
ENDBRANCH   1  11
BRANCH  10  19
HETATM   19  O3  UNL     1      22.956  -0.985  53.560  1.00  0.00    -0.353 OA
HETATM   20  C15 UNL     1      22.250  -1.223  54.733  1.00  0.00     0.210 C 
ENDBRANCH  10  19
TORSDOF 8
ENDMDL
MODEL 5
REMARK VINA RESULT:      -5.8      3.015      6.030
REMARK  8 active torsions:
REMARK  status: ('A' for Active; 'I' for Inactive)
REMARK    1  A    between atoms: C2_2  and  O1_3 
REMARK    2  A    between atoms: O1_3  and  C3_4 
REMARK    3  A    between atoms: C3_4  and  C4_5 
REMARK    4  A    between atoms: C4_5  and  C5_6 
REMARK    5  A    between atoms: C5_6  and  C6_7 
REMARK    6  A    between atoms: C6_7  and  O2_8 
REMARK    7  A    between atoms: O2_8  and  C7_9 
REMARK    8  A    between atoms: C14_18  and  O3_19 
ROOT
HETATM    1  C7  UNL     1      25.469   1.632  53.414  1.00  0.00     0.103 A 
HETATM    2  C8  UNL     1      26.834   1.730  53.537  1.00  0.00     0.055 A 
HETATM    3  C9  UNL     1      27.715   0.677  53.498  1.00  0.00     0.013 A 
HETATM    4  C10 UNL     1      29.049   0.995  53.642  1.00  0.00     0.132 A 
HETATM    5  N1  UNL     1      29.938  -0.040  53.605  1.00  0.00    -0.253 NA
HETATM    6  C11 UNL     1      29.467  -1.299  53.434  1.00  0.00     0.233 A 
HETATM    7  N2  UNL     1      28.137  -1.573  53.296  1.00  0.00    -0.241 NA
HETATM    8  C12 UNL     1      27.215  -0.592  53.324  1.00  0.00     0.072 A 
HETATM    9  C13 UNL     1      25.859  -0.783  53.193  1.00  0.00     0.072 A 
HETATM   10  C14 UNL     1      25.001   0.323  53.238  1.00  0.00     0.103 A 
ENDROOT
BRANCH   1  11
HETATM   11  O2  UNL     1      24.419   2.489  53.415  1.00  0.00    -0.348 OA
BRANCH  11  12
HETATM   12  C6  UNL     1      24.062   3.500  52.546  1.00  0.00     0.176 C 
BRANCH  12  13
HETATM   13  C5  UNL     1      22.898   3.130  51.703  1.00  0.00     0.029 C 
BRANCH  13  14
HETATM   14  C4  UNL     1      21.733   4.050  52.041  1.00  0.00     0.028 C 
BRANCH  14  15
HETATM   15  C3  UNL     1      20.548   3.155  52.304  1.00  0.00     0.167 C 
BRANCH  15  16
HETATM   16  O1  UNL     1      20.900   1.954  52.864  1.00  0.00    -0.391 OA
BRANCH  16  17
HETATM   17  C2  UNL     1      19.993   0.980  52.502  1.00  0.00     0.163 C 
HETATM   18  C1  UNL     1      20.398   0.400  51.162  1.00  0.00     0.033 C 
ENDBRANCH  16  17
ENDBRANCH  15  16
ENDBRANCH  14  15
ENDBRANCH  13  14
ENDBRANCH  12  13
ENDBRANCH  11  12
ENDBRANCH   1  11
BRANCH  10  19
HETATM   19  O3  UNL     1      23.656  -0.043  53.090  1.00  0.00    -0.353 OA
HETATM   20  C15 UNL     1      22.934  -0.713  54.069  1.00  0.00     0.210 C 
ENDBRANCH  10  19
TORSDOF 8
ENDMDL
MODEL 6
REMARK VINA RESULT:      -5.8      2.709      5.372
REMARK  8 active torsions:
REMARK  status: ('A' for Active; 'I' for Inactive)
REMARK    1  A    between atoms: C2_2  and  O1_3 
REMARK    2  A    between atoms: O1_3  and  C3_4 
REMARK    3  A    between atoms: C3_4  and  C4_5 
REMARK    4  A    between atoms: C4_5  and  C5_6 
REMARK    5  A    between atoms: C5_6  and  C6_7 
REMARK    6  A    between atoms: C6_7  and  O2_8 
REMARK    7  A    between atoms: O2_8  and  C7_9 
REMARK    8  A    between atoms: C14_18  and  O3_19 
ROOT
HETATM    1  C7  UNL     1      24.205   1.755  51.662  1.00  0.00     0.103 A 
HETATM    2  C8  UNL     1      24.435   0.911  52.722  1.00  0.00     0.055 A 
HETATM    3  C9  UNL     1      25.660   0.662  53.290  1.00  0.00     0.013 A 
HETATM    4  C10 UNL     1      25.670  -0.221  54.350  1.00  0.00     0.132 A 
HETATM    5  N1  UNL     1      26.879  -0.481  54.926  1.00  0.00    -0.253 NA
HETATM    6  C11 UNL     1      27.983   0.133  54.432  1.00  0.00     0.233 A 
HETATM    7  N2  UNL     1      27.932   1.001  53.380  1.00  0.00    -0.241 NA
HETATM    8  C12 UNL     1      26.765   1.294  52.773  1.00  0.00     0.072 A 
HETATM    9  C13 UNL     1      26.628   2.156  51.710  1.00  0.00     0.072 A 
HETATM   10  C14 UNL     1      25.357   2.379  51.165  1.00  0.00     0.103 A 
ENDROOT
BRANCH   1  11
HETATM   11  O2  UNL     1      23.129   2.161  50.945  1.00  0.00    -0.348 OA
BRANCH  11  12
HETATM   12  C6  UNL     1      22.322   1.491  50.047  1.00  0.00     0.176 C 
BRANCH  12  13
HETATM   13  C5  UNL     1      21.499   0.446  50.706  1.00  0.00     0.029 C 
BRANCH  13  14
HETATM   14  C4  UNL     1      20.580   1.111  51.722  1.00  0.00     0.028 C 
BRANCH  14  15
HETATM   15  C3  UNL     1      20.425   0.132  52.858  1.00  0.00     0.167 C 
BRANCH  15  16
HETATM   16  O1  UNL     1      20.746   0.672  54.076  1.00  0.00    -0.391 OA
BRANCH  16  17
HETATM   17  C2  UNL     1      21.491  -0.227  54.811  1.00  0.00     0.163 C 
HETATM   18  C1  UNL     1      21.541  -1.549  54.072  1.00  0.00     0.033 C 
ENDBRANCH  16  17
ENDBRANCH  15  16
ENDBRANCH  14  15
ENDBRANCH  13  14
ENDBRANCH  12  13
ENDBRANCH  11  12
ENDBRANCH   1  11
BRANCH  10  19
HETATM   19  O3  UNL     1      25.390   3.280  50.092  1.00  0.00    -0.353 OA
HETATM   20  C15 UNL     1      26.564   3.671  49.458  1.00  0.00     0.210 C 
ENDBRANCH  10  19
TORSDOF 8
ENDMDL
MODEL 7
REMARK VINA RESULT:      -5.8      2.981      6.217
REMARK  8 active torsions:
REMARK  status: ('A' for Active; 'I' for Inactive)
REMARK    1  A    between atoms: C2_2  and  O1_3 
REMARK    2  A    between atoms: O1_3  and  C3_4 
REMARK    3  A    between atoms: C3_4  and  C4_5 
REMARK    4  A    between atoms: C4_5  and  C5_6 
REMARK    5  A    between atoms: C5_6  and  C6_7 
REMARK    6  A    between atoms: C6_7  and  O2_8 
REMARK    7  A    between atoms: O2_8  and  C7_9 
REMARK    8  A    between atoms: C14_18  and  O3_19 
ROOT
HETATM    1  C7  UNL     1      24.401   0.156  53.131  1.00  0.00     0.103 A 
HETATM    2  C8  UNL     1      24.044   1.344  52.539  1.00  0.00     0.055 A 
HETATM    3  C9  UNL     1      24.870   2.135  51.781  1.00  0.00     0.013 A 
HETATM    4  C10 UNL     1      24.310   3.291  51.277  1.00  0.00     0.132 A 
HETATM    5  N1  UNL     1      25.118   4.089  50.521  1.00  0.00    -0.253 NA
HETATM    6  C11 UNL     1      26.402   3.709  50.313  1.00  0.00     0.233 A 
HETATM    7  N2  UNL     1      26.920   2.556  50.829  1.00  0.00    -0.241 NA
HETATM    8  C12 UNL     1      26.169   1.731  51.583  1.00  0.00     0.072 A 
HETATM    9  C13 UNL     1      26.612   0.553  52.140  1.00  0.00     0.072 A 
HETATM   10  C14 UNL     1      25.731  -0.221  52.905  1.00  0.00     0.103 A 
ENDROOT
BRANCH   1  11
HETATM   11  O2  UNL     1      23.792  -0.781  53.899  1.00  0.00    -0.348 OA
BRANCH  11  12
HETATM   12  C6  UNL     1      22.481  -1.211  53.950  1.00  0.00     0.176 C 
BRANCH  12  13
HETATM   13  C5  UNL     1      21.687  -0.466  54.959  1.00  0.00     0.029 C 
BRANCH  13  14
HETATM   14  C4  UNL     1      20.683   0.422  54.237  1.00  0.00     0.028 C 
BRANCH  14  15
HETATM   15  C3  UNL     1      20.539  -0.143  52.847  1.00  0.00     0.167 C 
BRANCH  15  16
HETATM   16  O1  UNL     1      20.617   0.815  51.871  1.00  0.00    -0.391 OA
BRANCH  16  17
HETATM   17  C2  UNL     1      21.134   0.271  50.714  1.00  0.00     0.163 C 
HETATM   18  C1  UNL     1      21.472   1.389  49.749  1.00  0.00     0.033 C 
ENDBRANCH  16  17
ENDBRANCH  15  16
ENDBRANCH  14  15
ENDBRANCH  13  14
ENDBRANCH  12  13
ENDBRANCH  11  12
ENDBRANCH   1  11
BRANCH  10  19
HETATM   19  O3  UNL     1      26.338  -1.384  53.399  1.00  0.00    -0.353 OA
HETATM   20  C15 UNL     1      27.139  -2.215  52.625  1.00  0.00     0.210 C 
ENDBRANCH  10  19
TORSDOF 8
ENDMDL
MODEL 8
REMARK VINA RESULT:      -5.7      3.327      6.035
REMARK  8 active torsions:
REMARK  status: ('A' for Active; 'I' for Inactive)
REMARK    1  A    between atoms: C2_2  and  O1_3 
REMARK    2  A    between atoms: O1_3  and  C3_4 
REMARK    3  A    between atoms: C3_4  and  C4_5 
REMARK    4  A    between atoms: C4_5  and  C5_6 
REMARK    5  A    between atoms: C5_6  and  C6_7 
REMARK    6  A    between atoms: C6_7  and  O2_8 
REMARK    7  A    between atoms: O2_8  and  C7_9 
REMARK    8  A    between atoms: C14_18  and  O3_19 
ROOT
HETATM    1  C7  UNL     1      24.580   0.946  52.249  1.00  0.00     0.103 A 
HETATM    2  C8  UNL     1      25.874   1.404  52.308  1.00  0.00     0.055 A 
HETATM    3  C9  UNL     1      26.833   0.968  53.188  1.00  0.00     0.013 A 
HETATM    4  C10 UNL     1      28.074   1.560  53.078  1.00  0.00     0.132 A 
HETATM    5  N1  UNL     1      29.039   1.138  53.945  1.00  0.00    -0.253 NA
HETATM    6  C11 UNL     1      28.729   0.179  54.851  1.00  0.00     0.233 A 
HETATM    7  N2  UNL     1      27.488  -0.383  54.929  1.00  0.00    -0.241 NA
HETATM    8  C12 UNL     1      26.497  -0.005  54.098  1.00  0.00     0.072 A 
HETATM    9  C13 UNL     1      25.221  -0.520  54.111  1.00  0.00     0.072 A 
HETATM   10  C14 UNL     1      24.278  -0.045  53.192  1.00  0.00     0.103 A 
ENDROOT
BRANCH   1  11
HETATM   11  O2  UNL     1      23.481   1.203  51.498  1.00  0.00    -0.348 OA
BRANCH  11  12
HETATM   12  C6  UNL     1      22.935   2.388  51.049  1.00  0.00     0.176 C 
BRANCH  12  13
HETATM   13  C5  UNL     1      22.576   3.297  52.166  1.00  0.00     0.029 C 
BRANCH  13  14
HETATM   14  C4  UNL     1      23.563   4.457  52.194  1.00  0.00     0.028 C 
BRANCH  14  15
HETATM   15  C3  UNL     1      24.202   4.503  50.830  1.00  0.00     0.167 C 
BRANCH  15  16
HETATM   16  O1  UNL     1      24.659   5.751  50.496  1.00  0.00    -0.391 OA
BRANCH  16  17
HETATM   17  C2  UNL     1      24.032   6.706  51.268  1.00  0.00     0.163 C 
HETATM   18  C1  UNL     1      24.122   8.046  50.566  1.00  0.00     0.033 C 
ENDBRANCH  16  17
ENDBRANCH  15  16
ENDBRANCH  14  15
ENDBRANCH  13  14
ENDBRANCH  12  13
ENDBRANCH  11  12
ENDBRANCH   1  11
BRANCH  10  19
HETATM   19  O3  UNL     1      23.032  -0.670  53.338  1.00  0.00    -0.353 OA
HETATM   20  C15 UNL     1      22.367  -0.774  54.554  1.00  0.00     0.210 C 
ENDBRANCH  10  19
TORSDOF 8
ENDMDL
MODEL 9
REMARK VINA RESULT:      -5.6      5.148      6.884
REMARK  8 active torsions:
REMARK  status: ('A' for Active; 'I' for Inactive)
REMARK    1  A    between atoms: C2_2  and  O1_3 
REMARK    2  A    between atoms: O1_3  and  C3_4 
REMARK    3  A    between atoms: C3_4  and  C4_5 
REMARK    4  A    between atoms: C4_5  and  C5_6 
REMARK    5  A    between atoms: C5_6  and  C6_7 
REMARK    6  A    between atoms: C6_7  and  O2_8 
REMARK    7  A    between atoms: O2_8  and  C7_9 
REMARK    8  A    between atoms: C14_18  and  O3_19 
ROOT
HETATM    1  C7  UNL     1      26.500   3.862  49.568  1.00  0.00     0.103 A 
HETATM    2  C8  UNL     1      27.497   4.602  48.977  1.00  0.00     0.055 A 
HETATM    3  C9  UNL     1      27.347   5.860  48.449  1.00  0.00     0.013 A 
HETATM    4  C10 UNL     1      28.479   6.428  47.901  1.00  0.00     0.132 A 
HETATM    5  N1  UNL     1      28.348   7.678  47.372  1.00  0.00    -0.253 NA
HETATM    6  C11 UNL     1      27.134   8.280  47.412  1.00  0.00     0.233 A 
HETATM    7  N2  UNL     1      26.037   7.685  47.963  1.00  0.00    -0.241 NA
HETATM    8  C12 UNL     1      26.108   6.452  48.499  1.00  0.00     0.072 A 
HETATM    9  C13 UNL     1      25.051   5.782  49.073  1.00  0.00     0.072 A 
HETATM   10  C14 UNL     1      25.253   4.501  49.600  1.00  0.00     0.103 A 
ENDROOT
BRANCH   1  11
HETATM   11  O2  UNL     1      26.396   2.642  50.149  1.00  0.00    -0.348 OA
BRANCH  11  12
HETATM   12  C6  UNL     1      26.747   2.193  51.406  1.00  0.00     0.176 C 
BRANCH  12  13
HETATM   13  C5  UNL     1      25.860   1.102  51.879  1.00  0.00     0.029 C 
BRANCH  13  14
HETATM   14  C4  UNL     1      26.720  -0.064  52.349  1.00  0.00     0.028 C 
BRANCH  14  15
HETATM   15  C3  UNL     1      26.694  -0.029  53.856  1.00  0.00     0.167 C 
BRANCH  15  16
HETATM   16  O1  UNL     1      27.785  -0.634  54.423  1.00  0.00    -0.391 OA
BRANCH  16  17
HETATM   17  C2  UNL     1      28.924   0.094  54.150  1.00  0.00     0.163 C 
HETATM   18  C1  UNL     1      30.010  -0.847  53.669  1.00  0.00     0.033 C 
ENDBRANCH  16  17
ENDBRANCH  15  16
ENDBRANCH  14  15
ENDBRANCH  13  14
ENDBRANCH  12  13
ENDBRANCH  11  12
ENDBRANCH   1  11
BRANCH  10  19
HETATM   19  O3  UNL     1      24.081   3.960  50.144  1.00  0.00    -0.353 OA
HETATM   20  C15 UNL     1      23.525   4.390  51.343  1.00  0.00     0.210 C 
ENDBRANCH  10  19
TORSDOF 8
ENDMDL
