MODEL 1
REMARK VINA RESULT:     -10.6      0.000      0.000
REMARK  1 active torsions:
REMARK  status: ('A' for Active; 'I' for Inactive)
REMARK    1  A    between atoms: C7_12  and  C8_13 
ROOT
HETATM    1  F1  UNL     1      24.225   3.423  49.272  1.00  0.00    -0.210 F 
HETATM    2  C1  UNL     1      23.445   2.521  49.936  1.00  0.00     0.105 C 
HETATM    3  C2  UNL     1      22.305   2.113  49.348  1.00  0.00     0.031 C 
HETATM    4  C3  UNL     1      21.215   1.251  49.855  1.00  0.00     0.154 C 
HETATM    5  N1  UNL     1      21.238   1.255  51.325  1.00  0.00    -0.361 N 
HETATM    6  C4  UNL     1      22.233   2.132  51.956  1.00  0.00     0.144 C 
HETATM    7  C5  UNL     1      23.529   1.813  51.241  1.00  0.00     0.170 C 
HETATM    8  C6  UNL     1      24.684   2.258  52.112  1.00  0.00     0.448 C 
HETATM    9  F2  UNL     1      24.444   3.559  52.504  1.00  0.00    -0.172 F 
HETATM   10  F3  UNL     1      25.875   2.207  51.446  1.00  0.00    -0.172 F 
HETATM   11  N2  UNL     1      24.660   1.436  53.318  1.00  0.00     0.165 N 
HETATM   12  C7  UNL     1      25.008   0.068  53.109  1.00  0.00     0.264 C 
HETATM   13  C14 UNL     1      24.249  -0.770  54.169  1.00  0.00     0.068 C 
HETATM   14  C15 UNL     1      22.784  -0.535  53.968  1.00  0.00    -0.023 C 
HETATM   15  C16 UNL     1      21.505  -0.297  53.891  1.00  0.00     0.013 C 
HETATM   16  C17 UNL     1      20.309  -0.308  53.098  1.00  0.00     0.027 A 
HETATM   17  C18 UNL     1      19.309  -1.090  53.612  1.00  0.00     0.133 A 
HETATM   18  N3  UNL     1      18.164  -1.168  52.925  1.00  0.00    -0.253 NA
HETATM   19  C19 UNL     1      18.093  -0.476  51.795  1.00  0.00     0.234 A 
HETATM   20  N4  UNL     1      19.087   0.278  51.318  1.00  0.00    -0.224 NA
HETATM   21  C20 UNL     1      20.289   0.413  51.957  1.00  0.00     0.139 A 
HETATM   22  H7  UNL     1      25.235   1.861  54.076  1.00  0.00     0.324 HD
ENDROOT
BRANCH  12  23
HETATM   23  C8  UNL     1      26.460  -0.206  53.410  1.00  0.00    -0.025 A 
HETATM   24  C9  UNL     1      27.088   0.562  54.394  1.00  0.00     0.009 A 
HETATM   25  C10 UNL     1      28.411   0.375  54.726  1.00  0.00     0.001 A 
HETATM   26  C11 UNL     1      29.165  -0.600  54.077  1.00  0.00     0.000 A 
HETATM   27  C12 UNL     1      28.512  -1.350  53.099  1.00  0.00     0.001 A 
HETATM   28  C13 UNL     1      27.180  -1.177  52.749  1.00  0.00     0.009 A 
ENDBRANCH  12  23
TORSDOF 1
ENDMDL
MODEL 2
REMARK VINA RESULT:      -9.4      2.660      6.997
REMARK  1 active torsions:
REMARK  status: ('A' for Active; 'I' for Inactive)
REMARK    1  A    between atoms: C7_12  and  C8_13 
ROOT
HETATM    1  F1  UNL     1      20.862  -0.070  53.037  1.00  0.00    -0.210 F 
HETATM    2  C1  UNL     1      22.209   0.121  52.931  1.00  0.00     0.105 C 
HETATM    3  C2  UNL     1      23.026  -0.796  53.482  1.00  0.00     0.031 C 
HETATM    4  C3  UNL     1      24.498  -0.809  53.631  1.00  0.00     0.154 C 
HETATM    5  N1  UNL     1      25.004   0.568  53.552  1.00  0.00    -0.361 N 
HETATM    6  C4  UNL     1      23.993   1.626  53.431  1.00  0.00     0.144 C 
HETATM    7  C5  UNL     1      23.083   1.156  52.317  1.00  0.00     0.170 C 
HETATM    8  C6  UNL     1      22.332   2.350  51.768  1.00  0.00     0.448 C 
HETATM    9  F2  UNL     1      21.782   3.032  52.833  1.00  0.00    -0.172 F 
HETATM   10  F3  UNL     1      21.334   1.978  50.914  1.00  0.00    -0.172 F 
HETATM   11  N2  UNL     1      23.317   3.237  51.155  1.00  0.00     0.165 N 
HETATM   12  C7  UNL     1      23.905   2.730  49.958  1.00  0.00     0.264 C 
HETATM   13  C14 UNL     1      25.338   3.313  49.863  1.00  0.00     0.068 C 
HETATM   14  C15 UNL     1      26.089   2.868  51.079  1.00  0.00    -0.023 C 
HETATM   15  C16 UNL     1      26.759   2.581  52.160  1.00  0.00     0.013 C 
HETATM   16  C17 UNL     1      27.280   1.573  53.038  1.00  0.00     0.027 A 
HETATM   17  C18 UNL     1      28.642   1.609  53.180  1.00  0.00     0.133 A 
HETATM   18  N3  UNL     1      29.211   0.692  53.970  1.00  0.00    -0.253 NA
HETATM   19  C19 UNL     1      28.402  -0.181  54.556  1.00  0.00     0.234 A 
HETATM   20  N4  UNL     1      27.076  -0.192  54.399  1.00  0.00    -0.224 NA
HETATM   21  C20 UNL     1      26.414   0.708  53.609  1.00  0.00     0.139 A 
HETATM   22  H7  UNL     1      22.927   4.192  51.010  1.00  0.00     0.324 HD
ENDROOT
BRANCH  12  23
HETATM   23  C8  UNL     1      23.224   3.255  48.719  1.00  0.00    -0.025 A 
HETATM   24  C9  UNL     1      23.233   4.634  48.492  1.00  0.00     0.009 A 
HETATM   25  C10 UNL     1      22.632   5.191  47.386  1.00  0.00     0.001 A 
HETATM   26  C11 UNL     1      21.992   4.379  46.453  1.00  0.00     0.000 A 
HETATM   27  C12 UNL     1      21.998   3.008  46.706  1.00  0.00     0.001 A 
HETATM   28  C13 UNL     1      22.597   2.426  47.815  1.00  0.00     0.009 A 
ENDBRANCH  12  23
TORSDOF 1
ENDMDL
MODEL 3
REMARK VINA RESULT:      -8.9      3.000      6.778
REMARK  1 active torsions:
REMARK  status: ('A' for Active; 'I' for Inactive)
REMARK    1  A    between atoms: C7_12  and  C8_13 
ROOT
HETATM    1  F1  UNL     1      20.191   3.043  52.515  1.00  0.00    -0.210 F 
HETATM    2  C1  UNL     1      21.431   2.503  52.336  1.00  0.00     0.105 C 
HETATM    3  C2  UNL     1      21.603   1.198  52.620  1.00  0.00     0.031 C 
HETATM    4  C3  UNL     1      22.828   0.369  52.638  1.00  0.00     0.154 C 
HETATM    5  N1  UNL     1      24.000   1.242  52.796  1.00  0.00    -0.361 N 
HETATM    6  C4  UNL     1      23.725   2.673  52.977  1.00  0.00     0.144 C 
HETATM    7  C5  UNL     1      22.748   3.014  51.871  1.00  0.00     0.170 C 
HETATM    8  C6  UNL     1      22.782   4.510  51.640  1.00  0.00     0.448 C 
HETATM    9  F2  UNL     1      22.645   5.132  52.863  1.00  0.00    -0.172 F 
HETATM   10  F3  UNL     1      21.774   4.923  50.816  1.00  0.00    -0.172 F 
HETATM   11  N2  UNL     1      24.111   4.841  51.137  1.00  0.00     0.165 N 
HETATM   12  C7  UNL     1      24.379   4.370  49.817  1.00  0.00     0.264 C 
HETATM   13  C14 UNL     1      25.903   4.102  49.721  1.00  0.00     0.068 C 
HETATM   14  C15 UNL     1      26.248   3.075  50.755  1.00  0.00    -0.023 C 
HETATM   15  C16 UNL     1      26.615   2.250  51.695  1.00  0.00     0.013 C 
HETATM   16  C17 UNL     1      26.476   0.959  52.305  1.00  0.00     0.027 A 
HETATM   17  C18 UNL     1      27.636   0.231  52.335  1.00  0.00     0.133 A 
HETATM   18  N3  UNL     1      27.590  -0.992  52.874  1.00  0.00    -0.253 NA
HETATM   19  C19 UNL     1      26.416  -1.401  53.338  1.00  0.00     0.234 A 
HETATM   20  N4  UNL     1      25.300  -0.667  53.294  1.00  0.00    -0.224 NA
HETATM   21  C20 UNL     1      25.260   0.592  52.761  1.00  0.00     0.139 A 
HETATM   22  H7  UNL     1      24.304   5.861  51.221  1.00  0.00     0.324 HD
ENDROOT
BRANCH  12  23
HETATM   23  C8  UNL     1      24.137   5.429  48.771  1.00  0.00    -0.025 A 
HETATM   24  C9  UNL     1      23.042   5.275  47.915  1.00  0.00     0.009 A 
HETATM   25  C10 UNL     1      22.754   6.196  46.933  1.00  0.00     0.001 A 
HETATM   26  C11 UNL     1      23.560   7.319  46.769  1.00  0.00     0.000 A 
HETATM   27  C12 UNL     1      24.645   7.446  47.636  1.00  0.00     0.001 A 
HETATM   28  C13 UNL     1      24.953   6.529  48.632  1.00  0.00     0.009 A 
ENDBRANCH  12  23
TORSDOF 1
ENDMDL
MODEL 4
REMARK VINA RESULT:      -8.6      2.837      7.419
REMARK  1 active torsions:
REMARK  status: ('A' for Active; 'I' for Inactive)
REMARK    1  A    between atoms: C7_12  and  C8_13 
ROOT
HETATM    1  F1  UNL     1      22.698  -1.623  55.359  1.00  0.00    -0.210 F 
HETATM    2  C1  UNL     1      22.990  -0.854  54.271  1.00  0.00     0.105 C 
HETATM    3  C2  UNL     1      24.261  -0.836  53.829  1.00  0.00     0.031 C 
HETATM    4  C3  UNL     1      24.900  -0.029  52.765  1.00  0.00     0.154 C 
HETATM    5  N1  UNL     1      24.098   1.180  52.528  1.00  0.00    -0.361 N 
HETATM    6  C4  UNL     1      22.935   1.370  53.404  1.00  0.00     0.144 C 
HETATM    7  C5  UNL     1      22.213   0.040  53.371  1.00  0.00     0.170 C 
HETATM    8  C6  UNL     1      20.779   0.257  53.804  1.00  0.00     0.448 C 
HETATM    9  F2  UNL     1      20.795   0.975  54.982  1.00  0.00    -0.172 F 
HETATM   10  F3  UNL     1      20.124  -0.923  54.012  1.00  0.00    -0.172 F 
HETATM   11  N2  UNL     1      20.144   1.100  52.797  1.00  0.00     0.165 N 
HETATM   12  C7  UNL     1      19.938   0.464  51.536  1.00  0.00     0.264 C 
HETATM   13  C14 UNL     1      20.003   1.563  50.445  1.00  0.00     0.068 C 
HETATM   14  C15 UNL     1      21.354   2.203  50.528  1.00  0.00    -0.023 C 
HETATM   15  C16 UNL     1      22.481   2.852  50.615  1.00  0.00     0.013 C 
HETATM   16  C17 UNL     1      23.915   2.810  50.589  1.00  0.00     0.027 A 
HETATM   17  C18 UNL     1      24.476   3.593  49.615  1.00  0.00     0.133 A 
HETATM   18  N3  UNL     1      25.809   3.600  49.511  1.00  0.00    -0.253 NA
HETATM   19  C19 UNL     1      26.482   2.841  50.367  1.00  0.00     0.234 A 
HETATM   20  N4  UNL     1      25.907   2.087  51.308  1.00  0.00    -0.224 NA
HETATM   21  C20 UNL     1      24.552   2.023  51.482  1.00  0.00     0.139 A 
HETATM   22  H7  UNL     1      19.261   1.520  53.156  1.00  0.00     0.324 HD
ENDROOT
BRANCH  12  23
HETATM   23  C8  UNL     1      18.544  -0.095  51.397  1.00  0.00    -0.025 A 
HETATM   24  C9  UNL     1      17.856   0.135  50.203  1.00  0.00     0.009 A 
HETATM   25  C10 UNL     1      16.580  -0.340  49.998  1.00  0.00     0.001 A 
HETATM   26  C11 UNL     1      15.937  -1.072  50.993  1.00  0.00     0.000 A 
HETATM   27  C12 UNL     1      16.649  -1.285  52.174  1.00  0.00     0.001 A 
HETATM   28  C13 UNL     1      17.935  -0.816  52.400  1.00  0.00     0.009 A 
ENDBRANCH  12  23
TORSDOF 1
ENDMDL
MODEL 5
REMARK VINA RESULT:      -8.4      9.438     11.160
REMARK  1 active torsions:
REMARK  status: ('A' for Active; 'I' for Inactive)
REMARK    1  A    between atoms: C7_12  and  C8_13 
ROOT
HETATM    1  F1  UNL     1      32.731  10.805  47.594  1.00  0.00    -0.210 F 
HETATM    2  C1  UNL     1      31.629  10.000  47.593  1.00  0.00     0.105 C 
HETATM    3  C2  UNL     1      30.431  10.565  47.350  1.00  0.00     0.031 C 
HETATM    4  C3  UNL     1      29.068   9.989  47.393  1.00  0.00     0.154 C 
HETATM    5  N1  UNL     1      29.077   8.791  48.244  1.00  0.00    -0.361 N 
HETATM    6  C4  UNL     1      30.348   8.474  48.908  1.00  0.00     0.144 C 
HETATM    7  C5  UNL     1      31.381   8.550  47.804  1.00  0.00     0.170 C 
HETATM    8  C6  UNL     1      32.606   7.771  48.234  1.00  0.00     0.448 C 
HETATM    9  F2  UNL     1      32.954   8.192  49.500  1.00  0.00    -0.172 F 
HETATM   10  F3  UNL     1      33.662   7.973  47.392  1.00  0.00    -0.172 F 
HETATM   11  N2  UNL     1      32.214   6.369  48.341  1.00  0.00     0.165 N 
HETATM   12  C7  UNL     1      31.931   5.736  47.094  1.00  0.00     0.264 C 
HETATM   13  C14 UNL     1      30.871   4.637  47.361  1.00  0.00     0.068 C 
HETATM   14  C15 UNL     1      29.659   5.306  47.929  1.00  0.00    -0.023 C 
HETATM   15  C16 UNL     1      28.612   5.827  48.507  1.00  0.00     0.013 C 
HETATM   16  C17 UNL     1      27.540   6.779  48.455  1.00  0.00     0.027 A 
HETATM   17  C18 UNL     1      26.293   6.217  48.530  1.00  0.00     0.133 A 
HETATM   18  N3  UNL     1      25.236   7.034  48.474  1.00  0.00    -0.253 NA
HETATM   19  C19 UNL     1      25.486   8.331  48.348  1.00  0.00     0.234 A 
HETATM   20  N4  UNL     1      26.714   8.851  48.276  1.00  0.00    -0.224 NA
HETATM   21  C20 UNL     1      27.848   8.087  48.327  1.00  0.00     0.139 A 
HETATM   22  H7  UNL     1      32.908   5.823  48.893  1.00  0.00     0.324 HD
ENDROOT
BRANCH  12  23
HETATM   23  C8  UNL     1      33.114   4.969  46.560  1.00  0.00    -0.025 A 
HETATM   24  C9  UNL     1      33.449   5.123  45.211  1.00  0.00     0.009 A 
HETATM   25  C10 UNL     1      34.513   4.457  44.647  1.00  0.00     0.001 A 
HETATM   26  C11 UNL     1      35.292   3.600  45.421  1.00  0.00     0.000 A 
HETATM   27  C12 UNL     1      34.934   3.465  46.762  1.00  0.00     0.001 A 
HETATM   28  C13 UNL     1      33.865   4.127  47.350  1.00  0.00     0.009 A 
ENDBRANCH  12  23
TORSDOF 1
ENDMDL
MODEL 6
REMARK VINA RESULT:      -8.3      2.861      6.803
REMARK  1 active torsions:
REMARK  status: ('A' for Active; 'I' for Inactive)
REMARK    1  A    between atoms: C7_12  and  C8_13 
ROOT
HETATM    1  F1  UNL     1      18.368   1.571  51.403  1.00  0.00    -0.210 F 
HETATM    2  C1  UNL     1      19.705   1.350  51.564  1.00  0.00     0.105 C 
HETATM    3  C2  UNL     1      20.090   0.234  52.211  1.00  0.00     0.031 C 
HETATM    4  C3  UNL     1      21.433  -0.219  52.635  1.00  0.00     0.154 C 
HETATM    5  N1  UNL     1      22.328   0.943  52.727  1.00  0.00    -0.361 N 
HETATM    6  C4  UNL     1      21.719   2.255  52.472  1.00  0.00     0.144 C 
HETATM    7  C5  UNL     1      20.948   2.071  51.183  1.00  0.00     0.170 C 
HETATM    8  C6  UNL     1      20.707   3.432  50.565  1.00  0.00     0.448 C 
HETATM    9  F2  UNL     1      20.183   4.254  51.541  1.00  0.00    -0.172 F 
HETATM   10  F3  UNL     1      19.831   3.371  49.519  1.00  0.00    -0.172 F 
HETATM   11  N2  UNL     1      22.009   3.979  50.198  1.00  0.00     0.165 N 
HETATM   12  C7  UNL     1      22.645   3.312  49.108  1.00  0.00     0.264 C 
HETATM   13  C14 UNL     1      24.176   3.438  49.318  1.00  0.00     0.068 C 
HETATM   14  C15 UNL     1      24.507   2.796  50.629  1.00  0.00    -0.023 C 
HETATM   15  C16 UNL     1      24.837   2.329  51.801  1.00  0.00     0.013 C 
HETATM   16  C17 UNL     1      24.854   1.217  52.708  1.00  0.00     0.027 A 
HETATM   17  C18 UNL     1      26.110   0.844  53.106  1.00  0.00     0.133 A 
HETATM   18  N3  UNL     1      26.216  -0.196  53.941  1.00  0.00    -0.253 NA
HETATM   19  C19 UNL     1      25.087  -0.783  54.315  1.00  0.00     0.234 A 
HETATM   20  N4  UNL     1      23.875  -0.397  53.909  1.00  0.00    -0.224 NA
HETATM   21  C20 UNL     1      23.677   0.655  53.058  1.00  0.00     0.139 A 
HETATM   22  H7  UNL     1      21.955   5.006  50.032  1.00  0.00     0.324 HD
ENDROOT
BRANCH  12  23
HETATM   23  C8  UNL     1      22.407   4.008  47.792  1.00  0.00    -0.025 A 
HETATM   24  C9  UNL     1      22.043   3.230  46.689  1.00  0.00     0.009 A 
HETATM   25  C10 UNL     1      21.809   3.789  45.453  1.00  0.00     0.001 A 
HETATM   26  C11 UNL     1      21.932   5.164  45.272  1.00  0.00     0.000 A 
HETATM   27  C12 UNL     1      22.298   5.914  46.390  1.00  0.00     0.001 A 
HETATM   28  C13 UNL     1      22.538   5.371  47.644  1.00  0.00     0.009 A 
ENDBRANCH  12  23
TORSDOF 1
ENDMDL
MODEL 7
REMARK VINA RESULT:      -8.2      3.503      5.865
REMARK  1 active torsions:
REMARK  status: ('A' for Active; 'I' for Inactive)
REMARK    1  A    between atoms: C7_12  and  C8_13 
ROOT
HETATM    1  F1  UNL     1      24.542   7.030  51.958  1.00  0.00    -0.210 F 
HETATM    2  C1  UNL     1      24.120   6.370  50.841  1.00  0.00     0.105 C 
HETATM    3  C2  UNL     1      24.409   6.905  49.640  1.00  0.00     0.031 C 
HETATM    4  C3  UNL     1      23.999   6.496  48.278  1.00  0.00     0.154 C 
HETATM    5  N1  UNL     1      22.777   5.684  48.366  1.00  0.00    -0.361 N 
HETATM    6  C4  UNL     1      22.198   5.523  49.706  1.00  0.00     0.144 C 
HETATM    7  C5  UNL     1      23.367   5.115  50.577  1.00  0.00     0.170 C 
HETATM    8  C6  UNL     1      22.830   4.445  51.824  1.00  0.00     0.448 C 
HETATM    9  F2  UNL     1      21.855   5.260  52.359  1.00  0.00    -0.172 F 
HETATM   10  F3  UNL     1      23.806   4.246  52.758  1.00  0.00    -0.172 F 
HETATM   11  N2  UNL     1      22.173   3.210  51.404  1.00  0.00     0.165 N 
HETATM   12  C7  UNL     1      23.061   2.199  50.930  1.00  0.00     0.264 C 
HETATM   13  C14 UNL     1      22.288   1.358  49.882  1.00  0.00     0.068 C 
HETATM   14  C15 UNL     1      21.865   2.282  48.783  1.00  0.00    -0.023 C 
HETATM   15  C16 UNL     1      21.399   3.058  47.845  1.00  0.00     0.013 C 
HETATM   16  C17 UNL     1      21.668   4.013  46.808  1.00  0.00     0.027 A 
HETATM   17  C18 UNL     1      21.246   3.618  45.566  1.00  0.00     0.133 A 
HETATM   18  N3  UNL     1      21.472   4.443  44.539  1.00  0.00    -0.253 NA
HETATM   19  C19 UNL     1      22.091   5.585  44.811  1.00  0.00     0.234 A 
HETATM   20  N4  UNL     1      22.491   5.944  46.034  1.00  0.00    -0.224 NA
HETATM   21  C20 UNL     1      22.299   5.159  47.138  1.00  0.00     0.139 A 
HETATM   22  H7  UNL     1      21.546   2.843  52.150  1.00  0.00     0.324 HD
ENDROOT
BRANCH  12  23
HETATM   23  C8  UNL     1      23.414   1.198  52.001  1.00  0.00    -0.025 A 
HETATM   24  C9  UNL     1      24.760   1.041  52.343  1.00  0.00     0.009 A 
HETATM   25  C10 UNL     1      25.164   0.148  53.309  1.00  0.00     0.001 A 
HETATM   26  C11 UNL     1      24.224  -0.632  53.978  1.00  0.00     0.000 A 
HETATM   27  C12 UNL     1      22.889  -0.455  53.615  1.00  0.00     0.001 A 
HETATM   28  C13 UNL     1      22.461   0.439  52.645  1.00  0.00     0.009 A 
ENDBRANCH  12  23
TORSDOF 1
ENDMDL
MODEL 8
REMARK VINA RESULT:      -8.1     12.092     14.118
REMARK  1 active torsions:
REMARK  status: ('A' for Active; 'I' for Inactive)
REMARK    1  A    between atoms: C7_12  and  C8_13 
ROOT
HETATM    1  F1  UNL     1      35.380   3.461  47.890  1.00  0.00    -0.210 F 
HETATM    2  C1  UNL     1      34.631   4.583  47.690  1.00  0.00     0.105 C 
HETATM    3  C2  UNL     1      34.597   5.507  48.669  1.00  0.00     0.031 C 
HETATM    4  C3  UNL     1      33.802   6.748  48.796  1.00  0.00     0.154 C 
HETATM    5  N1  UNL     1      32.615   6.652  47.934  1.00  0.00    -0.361 N 
HETATM    6  C4  UNL     1      32.428   5.380  47.225  1.00  0.00     0.144 C 
HETATM    7  C5  UNL     1      33.773   5.098  46.590  1.00  0.00     0.170 C 
HETATM    8  C6  UNL     1      33.576   4.119  45.452  1.00  0.00     0.448 C 
HETATM    9  F2  UNL     1      32.831   3.060  45.927  1.00  0.00    -0.172 F 
HETATM   10  F3  UNL     1      34.764   3.647  44.972  1.00  0.00    -0.172 F 
HETATM   11  N2  UNL     1      32.769   4.790  44.438  1.00  0.00     0.165 N 
HETATM   12  C7  UNL     1      33.438   5.848  43.753  1.00  0.00     0.264 C 
HETATM   13  C14 UNL     1      32.362   6.884  43.336  1.00  0.00     0.068 C 
HETATM   14  C15 UNL     1      31.693   7.368  44.585  1.00  0.00    -0.023 C 
HETATM   15  C16 UNL     1      31.021   7.758  45.631  1.00  0.00     0.013 C 
HETATM   16  C17 UNL     1      31.034   8.368  46.930  1.00  0.00     0.027 A 
HETATM   17  C18 UNL     1      30.262   9.495  47.023  1.00  0.00     0.133 A 
HETATM   18  N3  UNL     1      30.231  10.135  48.197  1.00  0.00    -0.253 NA
HETATM   19  C19 UNL     1      30.956   9.619  49.181  1.00  0.00     0.234 A 
HETATM   20  N4  UNL     1      31.700   8.517  49.061  1.00  0.00    -0.224 NA
HETATM   21  C20 UNL     1      31.788   7.803  47.897  1.00  0.00     0.139 A 
HETATM   22  H7  UNL     1      32.359   4.106  43.768  1.00  0.00     0.324 HD
ENDROOT
BRANCH  12  23
HETATM   23  C8  UNL     1      34.027   5.398  42.440  1.00  0.00    -0.025 A 
HETATM   24  C9  UNL     1      33.457   4.293  41.803  1.00  0.00     0.009 A 
HETATM   25  C10 UNL     1      33.938   3.819  40.603  1.00  0.00     0.001 A 
HETATM   26  C11 UNL     1      35.022   4.441  39.988  1.00  0.00     0.000 A 
HETATM   27  C12 UNL     1      35.571   5.541  40.648  1.00  0.00     0.001 A 
HETATM   28  C13 UNL     1      35.101   6.034  41.857  1.00  0.00     0.009 A 
ENDBRANCH  12  23
TORSDOF 1
ENDMDL
MODEL 9
REMARK VINA RESULT:      -8.0      3.384      6.739
REMARK  1 active torsions:
REMARK  status: ('A' for Active; 'I' for Inactive)
REMARK    1  A    between atoms: C7_12  and  C8_13 
ROOT
HETATM    1  F1  UNL     1      26.791   1.392  51.207  1.00  0.00    -0.210 F 
HETATM    2  C1  UNL     1      25.970   2.425  50.859  1.00  0.00     0.105 C 
HETATM    3  C2  UNL     1      26.357   3.232  49.853  1.00  0.00     0.031 C 
HETATM    4  C3  UNL     1      25.753   4.478  49.331  1.00  0.00     0.154 C 
HETATM    5  N1  UNL     1      24.901   5.074  50.370  1.00  0.00    -0.361 N 
HETATM    6  C4  UNL     1      24.889   4.393  51.671  1.00  0.00     0.144 C 
HETATM    7  C5  UNL     1      24.657   2.935  51.334  1.00  0.00     0.170 C 
HETATM    8  C6  UNL     1      24.131   2.231  52.566  1.00  0.00     0.448 C 
HETATM    9  F2  UNL     1      24.961   2.545  53.622  1.00  0.00    -0.172 F 
HETATM   10  F3  UNL     1      24.105   0.875  52.408  1.00  0.00    -0.172 F 
HETATM   11  N2  UNL     1      22.822   2.803  52.867  1.00  0.00     0.165 N 
HETATM   12  C7  UNL     1      21.801   2.471  51.926  1.00  0.00     0.264 C 
HETATM   13  C14 UNL     1      20.793   3.649  51.902  1.00  0.00     0.068 C 
HETATM   14  C15 UNL     1      21.543   4.879  51.495  1.00  0.00    -0.023 C 
HETATM   15  C16 UNL     1      22.165   5.993  51.230  1.00  0.00     0.013 C 
HETATM   16  C17 UNL     1      22.987   6.743  50.324  1.00  0.00     0.027 A 
HETATM   17  C18 UNL     1      22.412   7.907  49.885  1.00  0.00     0.133 A 
HETATM   18  N3  UNL     1      23.106   8.659  49.025  1.00  0.00    -0.253 NA
HETATM   19  C19 UNL     1      24.302   8.212  48.665  1.00  0.00     0.234 A 
HETATM   20  N4  UNL     1      24.837   7.072  49.110  1.00  0.00    -0.224 NA
HETATM   21  C20 UNL     1      24.196   6.245  49.990  1.00  0.00     0.139 A 
HETATM   22  H7  UNL     1      22.525   2.579  53.840  1.00  0.00     0.324 HD
ENDROOT
BRANCH  12  23
HETATM   23  C8  UNL     1      20.968   1.297  52.374  1.00  0.00    -0.025 A 
HETATM   24  C9  UNL     1      19.880   0.917  51.582  1.00  0.00     0.009 A 
HETATM   25  C10 UNL     1      19.070  -0.143  51.923  1.00  0.00     0.001 A 
HETATM   26  C11 UNL     1      19.321  -0.871  53.083  1.00  0.00     0.000 A 
HETATM   27  C12 UNL     1      20.412  -0.468  53.853  1.00  0.00     0.001 A 
HETATM   28  C13 UNL     1      21.241   0.596  53.528  1.00  0.00     0.009 A 
ENDBRANCH  12  23
TORSDOF 1
ENDMDL
