MODEL 1
REMARK VINA RESULT:      -8.5      0.000      0.000
REMARK  3 active torsions:
REMARK  status: ('A' for Active; 'I' for Inactive)
REMARK    1  A    between atoms: O1_2  and  C2_3 
REMARK    2  A    between atoms: C7_8  and  O2_9 
REMARK    3  A    between atoms: C11_16  and  N3_17 
ROOT
HETATM    1  C2  UNL     1      25.577  -0.163  52.918  1.00  0.00     0.102 A 
HETATM    2  C3  UNL     1      26.331   0.758  52.202  1.00  0.00     0.051 A 
HETATM    3  C4  UNL     1      25.773   1.900  51.631  1.00  0.00    -0.004 A 
HETATM    4  C5  UNL     1      24.419   2.034  51.840  1.00  0.00     0.088 A 
HETATM    5  C6  UNL     1      23.615   1.156  52.540  1.00  0.00     0.077 A 
HETATM    6  C7  UNL     1      24.196   0.016  53.104  1.00  0.00     0.104 A 
HETATM    7  O3  UNL     1      23.615   3.085  51.374  1.00  0.00    -0.289 OA
HETATM    8  C9  UNL     1      24.006   4.131  50.554  1.00  0.00     0.202 A 
HETATM    9  N1  UNL     1      22.919   4.812  50.083  1.00  0.00    -0.215 NA
HETATM   10  C10 UNL     1      23.151   5.855  49.275  1.00  0.00     0.238 A 
HETATM   11  N2  UNL     1      24.373   6.321  48.862  1.00  0.00    -0.221 NA
HETATM   12  C11 UNL     1      25.493   5.659  49.317  1.00  0.00     0.166 A 
HETATM   13  C17 UNL     1      25.241   4.595  50.142  1.00  0.00     0.129 A 
HETATM   14  N4  UNL     1      26.464   3.986  50.534  1.00  0.00    -0.379 N 
HETATM   15  C18 UNL     1      26.807   2.668  50.950  1.00  0.00     0.161 C 
HETATM   16  H14 UNL     1      27.274   4.681  50.498  1.00  0.00     0.160 HD
ENDROOT
BRANCH  12  17
HETATM   17  N3  UNL     1      26.794   6.078  48.930  1.00  0.00    -0.314 N 
HETATM   18  C12 UNL     1      26.881   7.505  49.054  1.00  0.00     0.097 A 
HETATM   19  C13 UNL     1      28.006   8.176  48.756  1.00  0.00     0.033 A 
HETATM   20  C14 UNL     1      29.225   7.460  48.279  1.00  0.00     0.240 A 
HETATM   21  F1  UNL     1      30.207   7.731  49.221  1.00  0.00    -0.239 F 
HETATM   22  C15 UNL     1      29.023   6.018  48.190  1.00  0.00     0.065 A 
HETATM   23 CL1  UNL     1      30.376   5.051  47.645  1.00  0.00    -0.084 Cl
HETATM   24  C16 UNL     1      27.937   5.359  48.478  1.00  0.00     0.120 A 
ENDBRANCH  12  17
BRANCH   6  25
HETATM   25  O2  UNL     1      23.553  -0.954  53.830  1.00  0.00    -0.353 OA
HETATM   26  C8  UNL     1      22.181  -1.202  53.669  1.00  0.00     0.210 C 
ENDBRANCH   6  25
BRANCH   1  27
HETATM   27  O1  UNL     1      26.147  -1.292  53.475  1.00  0.00    -0.353 OA
HETATM   28  C1  UNL     1      27.087  -2.111  52.828  1.00  0.00     0.210 C 
ENDBRANCH   1  27
TORSDOF 3
ENDMDL
MODEL 2
REMARK VINA RESULT:      -8.4      3.381      5.027
REMARK  3 active torsions:
REMARK  status: ('A' for Active; 'I' for Inactive)
REMARK    1  A    between atoms: O1_2  and  C2_3 
REMARK    2  A    between atoms: C7_8  and  O2_9 
REMARK    3  A    between atoms: C11_16  and  N3_17 
ROOT
HETATM    1  C2  UNL     1      25.828  -0.299  53.874  1.00  0.00     0.102 A 
HETATM    2  C3  UNL     1      24.862   0.579  53.398  1.00  0.00     0.051 A 
HETATM    3  C4  UNL     1      25.127   1.511  52.396  1.00  0.00    -0.004 A 
HETATM    4  C5  UNL     1      26.420   1.484  51.924  1.00  0.00     0.088 A 
HETATM    5  C6  UNL     1      27.423   0.638  52.355  1.00  0.00     0.077 A 
HETATM    6  C7  UNL     1      27.135  -0.289  53.362  1.00  0.00     0.104 A 
HETATM    7  O3  UNL     1      26.947   2.312  50.923  1.00  0.00    -0.289 OA
HETATM    8  C9  UNL     1      26.304   3.361  50.285  1.00  0.00     0.202 A 
HETATM    9  N1  UNL     1      27.192   4.114  49.570  1.00  0.00    -0.215 NA
HETATM   10  C10 UNL     1      26.703   5.166  48.899  1.00  0.00     0.238 A 
HETATM   11  N2  UNL     1      25.395   5.576  48.850  1.00  0.00    -0.221 NA
HETATM   12  C11 UNL     1      24.470   4.840  49.559  1.00  0.00     0.166 A 
HETATM   13  C17 UNL     1      24.984   3.768  50.240  1.00  0.00     0.129 A 
HETATM   14  N4  UNL     1      23.944   3.099  50.941  1.00  0.00    -0.379 N 
HETATM   15  C18 UNL     1      23.924   2.283  52.109  1.00  0.00     0.161 C 
HETATM   16  H14 UNL     1      22.996   3.257  50.477  1.00  0.00     0.160 HD
ENDROOT
BRANCH  12  17
HETATM   17  N3  UNL     1      23.098   5.204  49.562  1.00  0.00    -0.314 N 
HETATM   18  C12 UNL     1      22.907   6.304  50.464  1.00  0.00     0.097 A 
HETATM   19  C13 UNL     1      21.701   6.858  50.663  1.00  0.00     0.033 A 
HETATM   20  C14 UNL     1      20.493   6.350  49.947  1.00  0.00     0.240 A 
HETATM   21  F1  UNL     1      20.029   7.421  49.197  1.00  0.00    -0.239 F 
HETATM   22  C15 UNL     1      20.802   5.234  49.060  1.00  0.00     0.065 A 
HETATM   23 CL1  UNL     1      19.476   4.540  48.154  1.00  0.00    -0.084 Cl
HETATM   24  C16 UNL     1      21.969   4.691  48.861  1.00  0.00     0.120 A 
ENDBRANCH  12  17
BRANCH   6  25
HETATM   25  O2  UNL     1      28.005  -1.200  53.904  1.00  0.00    -0.353 OA
HETATM   26  C8  UNL     1      29.361  -1.226  53.544  1.00  0.00     0.210 C 
ENDBRANCH   6  25
BRANCH   1  27
HETATM   27  O1  UNL     1      25.548  -1.215  54.870  1.00  0.00    -0.353 OA
HETATM   28  C1  UNL     1      24.360  -1.237  55.621  1.00  0.00     0.210 C 
ENDBRANCH   1  27
TORSDOF 3
ENDMDL
MODEL 3
REMARK VINA RESULT:      -8.2      3.497      7.119
REMARK  3 active torsions:
REMARK  status: ('A' for Active; 'I' for Inactive)
REMARK    1  A    between atoms: O1_2  and  C2_3 
REMARK    2  A    between atoms: C7_8  and  O2_9 
REMARK    3  A    between atoms: C11_16  and  N3_17 
ROOT
HETATM    1  C2  UNL     1      24.172   5.517  48.558  1.00  0.00     0.102 A 
HETATM    2  C3  UNL     1      25.105   4.880  49.367  1.00  0.00     0.051 A 
HETATM    3  C4  UNL     1      24.799   3.742  50.109  1.00  0.00    -0.004 A 
HETATM    4  C5  UNL     1      23.500   3.307  49.970  1.00  0.00     0.088 A 
HETATM    5  C6  UNL     1      22.527   3.893  49.184  1.00  0.00     0.077 A 
HETATM    6  C7  UNL     1      22.857   5.036  48.447  1.00  0.00     0.104 A 
HETATM    7  O3  UNL     1      22.934   2.191  50.605  1.00  0.00    -0.289 OA
HETATM    8  C9  UNL     1      23.538   1.374  51.547  1.00  0.00     0.202 A 
HETATM    9  N1  UNL     1      22.618   0.560  52.146  1.00  0.00    -0.215 NA
HETATM   10  C10 UNL     1      23.067  -0.287  53.082  1.00  0.00     0.238 A 
HETATM   11  N2  UNL     1      24.361  -0.431  53.511  1.00  0.00    -0.221 NA
HETATM   12  C11 UNL     1      25.317   0.374  52.929  1.00  0.00     0.166 A 
HETATM   13  C17 UNL     1      24.845   1.235  51.975  1.00  0.00     0.129 A 
HETATM   14  N4  UNL     1      25.913   2.018  51.459  1.00  0.00    -0.379 N 
HETATM   15  C18 UNL     1      25.974   3.306  50.853  1.00  0.00     0.161 C 
HETATM   16  H14 UNL     1      26.850   1.516  51.561  1.00  0.00     0.160 HD
ENDROOT
BRANCH  12  17
HETATM   17  N3  UNL     1      26.679   0.288  53.323  1.00  0.00    -0.314 N 
HETATM   18  C12 UNL     1      27.179  -1.017  52.995  1.00  0.00     0.097 A 
HETATM   19  C13 UNL     1      28.447  -1.376  53.254  1.00  0.00     0.033 A 
HETATM   20  C14 UNL     1      29.399  -0.426  53.901  1.00  0.00     0.240 A 
HETATM   21  F1  UNL     1      30.428  -0.254  52.987  1.00  0.00    -0.239 F 
HETATM   22  C15 UNL     1      28.785   0.864  54.190  1.00  0.00     0.065 A 
HETATM   23 CL1  UNL     1      29.791   2.078  54.949  1.00  0.00    -0.084 Cl
HETATM   24  C16 UNL     1      27.558   1.222  53.942  1.00  0.00     0.120 A 
ENDBRANCH  12  17
BRANCH   6  25
HETATM   25  O2  UNL     1      22.022   5.740  47.618  1.00  0.00    -0.353 OA
HETATM   26  C8  UNL     1      21.814   5.354  46.285  1.00  0.00     0.210 C 
ENDBRANCH   6  25
BRANCH   1  27
HETATM   27  O1  UNL     1      24.493   6.646  47.830  1.00  0.00    -0.353 OA
HETATM   28  C1  UNL     1      25.707   7.346  47.938  1.00  0.00     0.210 C 
ENDBRANCH   1  27
TORSDOF 3
ENDMDL
MODEL 4
REMARK VINA RESULT:      -8.2      4.418      7.142
REMARK  3 active torsions:
REMARK  status: ('A' for Active; 'I' for Inactive)
REMARK    1  A    between atoms: O1_2  and  C2_3 
REMARK    2  A    between atoms: C7_8  and  O2_9 
REMARK    3  A    between atoms: C11_16  and  N3_17 
ROOT
HETATM    1  C2  UNL     1      21.916   2.877  49.447  1.00  0.00     0.102 A 
HETATM    2  C3  UNL     1      23.162   2.654  50.019  1.00  0.00     0.051 A 
HETATM    3  C4  UNL     1      23.354   1.757  51.068  1.00  0.00    -0.004 A 
HETATM    4  C5  UNL     1      22.209   1.117  51.484  1.00  0.00     0.088 A 
HETATM    5  C6  UNL     1      20.944   1.294  50.958  1.00  0.00     0.077 A 
HETATM    6  C7  UNL     1      20.774   2.200  49.905  1.00  0.00     0.104 A 
HETATM    7  O3  UNL     1      22.123   0.173  52.517  1.00  0.00    -0.289 OA
HETATM    8  C9  UNL     1      23.143  -0.229  53.364  1.00  0.00     0.202 A 
HETATM    9  N1  UNL     1      22.648  -0.951  54.413  1.00  0.00    -0.215 NA
HETATM   10  C10 UNL     1      23.530  -1.406  55.315  1.00  0.00     0.238 A 
HETATM   11  N2  UNL     1      24.889  -1.225  55.301  1.00  0.00    -0.221 NA
HETATM   12  C11 UNL     1      25.424  -0.502  54.257  1.00  0.00     0.166 A 
HETATM   13  C17 UNL     1      24.513  -0.043  53.344  1.00  0.00     0.129 A 
HETATM   14  N4  UNL     1      25.177   0.697  52.328  1.00  0.00    -0.379 N 
HETATM   15  C18 UNL     1      24.761   1.739  51.451  1.00  0.00     0.161 C 
HETATM   16  H14 UNL     1      26.194   0.389  52.224  1.00  0.00     0.160 HD
ENDROOT
BRANCH  12  17
HETATM   17  N3  UNL     1      26.823  -0.268  54.176  1.00  0.00    -0.314 N 
HETATM   18  C12 UNL     1      27.447  -1.384  53.523  1.00  0.00     0.097 A 
HETATM   19  C13 UNL     1      28.771  -1.429  53.307  1.00  0.00     0.033 A 
HETATM   20  C14 UNL     1      29.660  -0.312  53.740  1.00  0.00     0.240 A 
HETATM   21  F1  UNL     1      30.246   0.168  52.578  1.00  0.00    -0.239 F 
HETATM   22  C15 UNL     1      28.923   0.764  54.392  1.00  0.00     0.065 A 
HETATM   23 CL1  UNL     1      29.843   2.143  54.950  1.00  0.00    -0.084 Cl
HETATM   24  C16 UNL     1      27.639   0.817  54.605  1.00  0.00     0.120 A 
ENDBRANCH  12  17
BRANCH   6  25
HETATM   25  O2  UNL     1      19.597   2.496  49.266  1.00  0.00    -0.353 OA
HETATM   26  C8  UNL     1      18.563   3.187  49.915  1.00  0.00     0.210 C 
ENDBRANCH   6  25
BRANCH   1  27
HETATM   27  O1  UNL     1      21.743   3.772  48.409  1.00  0.00    -0.353 OA
HETATM   28  C1  UNL     1      22.731   4.661  47.951  1.00  0.00     0.210 C 
ENDBRANCH   1  27
TORSDOF 3
ENDMDL
MODEL 5
REMARK VINA RESULT:      -8.2      5.622      8.484
REMARK  3 active torsions:
REMARK  status: ('A' for Active; 'I' for Inactive)
REMARK    1  A    between atoms: O1_2  and  C2_3 
REMARK    2  A    between atoms: C7_8  and  O2_9 
REMARK    3  A    between atoms: C11_16  and  N3_17 
ROOT
HETATM    1  C2  UNL     1      26.210   2.700  51.089  1.00  0.00     0.102 A 
HETATM    2  C3  UNL     1      24.858   2.719  50.772  1.00  0.00     0.051 A 
HETATM    3  C4  UNL     1      23.912   1.986  51.485  1.00  0.00    -0.004 A 
HETATM    4  C5  UNL     1      24.432   1.248  52.524  1.00  0.00     0.088 A 
HETATM    5  C6  UNL     1      25.763   1.187  52.889  1.00  0.00     0.077 A 
HETATM    6  C7  UNL     1      26.696   1.931  52.159  1.00  0.00     0.104 A 
HETATM    7  O3  UNL     1      23.702   0.425  53.394  1.00  0.00    -0.289 OA
HETATM    8  C9  UNL     1      22.350   0.132  53.325  1.00  0.00     0.202 A 
HETATM    9  N1  UNL     1      22.033  -0.904  54.158  1.00  0.00    -0.215 NA
HETATM   10  C10 UNL     1      20.751  -1.294  54.191  1.00  0.00     0.238 A 
HETATM   11  N2  UNL     1      19.710  -0.763  53.475  1.00  0.00    -0.221 NA
HETATM   12  C11 UNL     1      19.991   0.285  52.624  1.00  0.00     0.166 A 
HETATM   13  C17 UNL     1      21.305   0.672  52.599  1.00  0.00     0.129 A 
HETATM   14  N4  UNL     1      21.475   1.744  51.681  1.00  0.00    -0.379 N 
HETATM   15  C18 UNL     1      22.586   2.209  50.921  1.00  0.00     0.161 C 
HETATM   16  H14 UNL     1      20.569   2.294  51.552  1.00  0.00     0.160 HD
ENDROOT
BRANCH  12  17
HETATM   17  N3  UNL     1      18.967   0.885  51.845  1.00  0.00    -0.314 N 
HETATM   18  C12 UNL     1      18.412  -0.102  50.962  1.00  0.00     0.097 A 
HETATM   19  C13 UNL     1      17.417   0.189  50.109  1.00  0.00     0.033 A 
HETATM   20  C14 UNL     1      16.840   1.563  50.039  1.00  0.00     0.240 A 
HETATM   21  F1  UNL     1      15.502   1.421  50.372  1.00  0.00    -0.239 F 
HETATM   22  C15 UNL     1      17.479   2.482  50.975  1.00  0.00     0.065 A 
HETATM   23 CL1  UNL     1      16.897   4.131  51.001  1.00  0.00    -0.084 Cl
HETATM   24  C16 UNL     1      18.443   2.208  51.807  1.00  0.00     0.120 A 
ENDBRANCH  12  17
BRANCH   6  25
HETATM   25  O2  UNL     1      28.047   1.989  52.383  1.00  0.00    -0.353 OA
HETATM   26  C8  UNL     1      28.569   2.413  53.614  1.00  0.00     0.210 C 
ENDBRANCH   6  25
BRANCH   1  27
HETATM   27  O1  UNL     1      27.135   3.432  50.369  1.00  0.00    -0.353 OA
HETATM   28  C1  UNL     1      26.836   4.185  49.221  1.00  0.00     0.210 C 
ENDBRANCH   1  27
TORSDOF 3
ENDMDL
MODEL 6
REMARK VINA RESULT:      -7.9      1.342      1.518
REMARK  3 active torsions:
REMARK  status: ('A' for Active; 'I' for Inactive)
REMARK    1  A    between atoms: O1_2  and  C2_3 
REMARK    2  A    between atoms: C7_8  and  O2_9 
REMARK    3  A    between atoms: C11_16  and  N3_17 
ROOT
HETATM    1  C2  UNL     1      25.152   0.258  52.629  1.00  0.00     0.102 A 
HETATM    2  C3  UNL     1      25.736   1.333  51.971  1.00  0.00     0.051 A 
HETATM    3  C4  UNL     1      25.052   2.523  51.727  1.00  0.00    -0.004 A 
HETATM    4  C5  UNL     1      23.757   2.537  52.193  1.00  0.00     0.088 A 
HETATM    5  C6  UNL     1      23.119   1.505  52.852  1.00  0.00     0.077 A 
HETATM    6  C7  UNL     1      23.825   0.319  53.086  1.00  0.00     0.104 A 
HETATM    7  O3  UNL     1      22.854   3.604  52.077  1.00  0.00    -0.289 OA
HETATM    8  C9  UNL     1      23.058   4.799  51.406  1.00  0.00     0.202 A 
HETATM    9  N1  UNL     1      21.885   5.486  51.268  1.00  0.00    -0.215 NA
HETATM   10  C10 UNL     1      21.937   6.667  50.635  1.00  0.00     0.238 A 
HETATM   11  N2  UNL     1      23.049   7.269  50.105  1.00  0.00    -0.221 NA
HETATM   12  C11 UNL     1      24.251   6.605  50.226  1.00  0.00     0.166 A 
HETATM   13  C17 UNL     1      24.183   5.400  50.874  1.00  0.00     0.129 A 
HETATM   14  N4  UNL     1      25.473   4.806  50.924  1.00  0.00    -0.379 N 
HETATM   15  C18 UNL     1      25.922   3.458  51.025  1.00  0.00     0.161 C 
HETATM   16  H14 UNL     1      26.244   5.543  50.873  1.00  0.00     0.160 HD
ENDROOT
BRANCH  12  17
HETATM   17  N3  UNL     1      25.446   7.162  49.698  1.00  0.00    -0.314 N 
HETATM   18  C12 UNL     1      25.560   8.524  50.136  1.00  0.00     0.097 A 
HETATM   19  C13 UNL     1      26.602   9.296  49.788  1.00  0.00     0.033 A 
HETATM   20  C14 UNL     1      27.696   8.767  48.921  1.00  0.00     0.240 A 
HETATM   21  F1  UNL     1      28.850   8.857  49.686  1.00  0.00    -0.239 F 
HETATM   22  C15 UNL     1      27.476   7.378  48.536  1.00  0.00     0.065 A 
HETATM   23 CL1  UNL     1      28.686   6.627  47.519  1.00  0.00    -0.084 Cl
HETATM   24  C16 UNL     1      26.470   6.621  48.870  1.00  0.00     0.120 A 
ENDBRANCH  12  17
BRANCH   6  25
HETATM   25  O2  UNL     1      23.353  -0.798  53.724  1.00  0.00    -0.353 OA
HETATM   26  C8  UNL     1      22.055  -1.282  53.495  1.00  0.00     0.210 C 
ENDBRANCH   6  25
BRANCH   1  27
HETATM   27  O1  UNL     1      25.844  -0.915  52.860  1.00  0.00    -0.353 OA
HETATM   28  C1  UNL     1      27.236  -0.996  53.040  1.00  0.00     0.210 C 
ENDBRANCH   1  27
TORSDOF 3
ENDMDL
MODEL 7
REMARK VINA RESULT:      -7.7      4.594      7.802
REMARK  3 active torsions:
REMARK  status: ('A' for Active; 'I' for Inactive)
REMARK    1  A    between atoms: O1_2  and  C2_3 
REMARK    2  A    between atoms: C7_8  and  O2_9 
REMARK    3  A    between atoms: C11_16  and  N3_17 
ROOT
HETATM    1  C2  UNL     1      30.149   6.111  47.679  1.00  0.00     0.102 A 
HETATM    2  C3  UNL     1      29.168   5.228  48.112  1.00  0.00     0.051 A 
HETATM    3  C4  UNL     1      27.936   5.659  48.601  1.00  0.00    -0.004 A 
HETATM    4  C5  UNL     1      27.779   7.026  48.616  1.00  0.00     0.088 A 
HETATM    5  C6  UNL     1      28.713   7.955  48.200  1.00  0.00     0.077 A 
HETATM    6  C7  UNL     1      29.943   7.500  47.713  1.00  0.00     0.104 A 
HETATM    7  O3  UNL     1      26.643   7.719  49.059  1.00  0.00    -0.289 OA
HETATM    8  C9  UNL     1      25.509   7.173  49.639  1.00  0.00     0.202 A 
HETATM    9  N1  UNL     1      24.727   8.149  50.189  1.00  0.00    -0.215 NA
HETATM   10  C10 UNL     1      23.591   7.760  50.787  1.00  0.00     0.238 A 
HETATM   11  N2  UNL     1      23.122   6.478  50.908  1.00  0.00    -0.221 NA
HETATM   12  C11 UNL     1      23.884   5.467  50.364  1.00  0.00     0.166 A 
HETATM   13  C17 UNL     1      25.041   5.878  49.757  1.00  0.00     0.129 A 
HETATM   14  N4  UNL     1      25.747   4.753  49.250  1.00  0.00    -0.379 N 
HETATM   15  C18 UNL     1      27.123   4.508  48.974  1.00  0.00     0.161 C 
HETATM   16  H14 UNL     1      25.087   3.940  49.043  1.00  0.00     0.160 HD
ENDROOT
BRANCH  12  17
HETATM   17  N3  UNL     1      23.467   4.112  50.453  1.00  0.00    -0.314 N 
HETATM   18  C12 UNL     1      23.879   3.579  51.721  1.00  0.00     0.097 A 
HETATM   19  C13 UNL     1      23.613   2.312  52.078  1.00  0.00     0.033 A 
HETATM   20  C14 UNL     1      22.870   1.395  51.164  1.00  0.00     0.240 A 
HETATM   21  F1  UNL     1      21.720   1.037  51.852  1.00  0.00    -0.239 F 
HETATM   22  C15 UNL     1      22.504   2.040  49.908  1.00  0.00     0.065 A 
HETATM   23 CL1  UNL     1      21.625   1.078  48.740  1.00  0.00    -0.084 Cl
HETATM   24  C16 UNL     1      22.757   3.267  49.554  1.00  0.00     0.120 A 
ENDBRANCH  12  17
BRANCH   6  25
HETATM   25  O2  UNL     1      30.978   8.276  47.258  1.00  0.00    -0.353 OA
HETATM   26  C8  UNL     1      31.719   9.093  48.125  1.00  0.00     0.210 C 
ENDBRANCH   6  25
BRANCH   1  27
HETATM   27  O1  UNL     1      31.365   5.666  47.199  1.00  0.00    -0.353 OA
HETATM   28  C1  UNL     1      32.308   4.952  47.958  1.00  0.00     0.210 C 
ENDBRANCH   1  27
TORSDOF 3
ENDMDL
MODEL 8
REMARK VINA RESULT:      -7.5      3.505      6.084
REMARK  3 active torsions:
REMARK  status: ('A' for Active; 'I' for Inactive)
REMARK    1  A    between atoms: O1_2  and  C2_3 
REMARK    2  A    between atoms: C7_8  and  O2_9 
REMARK    3  A    between atoms: C11_16  and  N3_17 
ROOT
HETATM    1  C2  UNL     1      24.477   5.197  49.969  1.00  0.00     0.102 A 
HETATM    2  C3  UNL     1      25.200   6.343  49.660  1.00  0.00     0.051 A 
HETATM    3  C4  UNL     1      26.498   6.295  49.155  1.00  0.00    -0.004 A 
HETATM    4  C5  UNL     1      26.996   5.022  48.991  1.00  0.00     0.088 A 
HETATM    5  C6  UNL     1      26.331   3.847  49.279  1.00  0.00     0.077 A 
HETATM    6  C7  UNL     1      25.028   3.918  49.785  1.00  0.00     0.104 A 
HETATM    7  O3  UNL     1      28.270   4.694  48.504  1.00  0.00    -0.289 OA
HETATM    8  C9  UNL     1      29.290   5.575  48.181  1.00  0.00     0.202 A 
HETATM    9  N1  UNL     1      30.469   4.908  48.000  1.00  0.00    -0.215 NA
HETATM   10  C10 UNL     1      31.545   5.641  47.680  1.00  0.00     0.238 A 
HETATM   11  N2  UNL     1      31.594   7.001  47.512  1.00  0.00    -0.221 NA
HETATM   12  C11 UNL     1      30.423   7.707  47.685  1.00  0.00     0.166 A 
HETATM   13  C17 UNL     1      29.333   6.946  48.012  1.00  0.00     0.129 A 
HETATM   14  N4  UNL     1      28.194   7.780  48.178  1.00  0.00    -0.379 N 
HETATM   15  C18 UNL     1      26.990   7.648  48.928  1.00  0.00     0.161 C 
HETATM   16  H14 UNL     1      28.287   8.684  47.617  1.00  0.00     0.160 HD
ENDROOT
BRANCH  12  17
HETATM   17  N3  UNL     1      30.395   9.118  47.532  1.00  0.00    -0.314 N 
HETATM   18  C12 UNL     1      30.250   9.435  46.140  1.00  0.00     0.097 A 
HETATM   19  C13 UNL     1      30.190  10.704  45.703  1.00  0.00     0.033 A 
HETATM   20  C14 UNL     1      30.274  11.850  46.656  1.00  0.00     0.240 A 
HETATM   21  F1  UNL     1      29.077  12.537  46.514  1.00  0.00    -0.239 F 
HETATM   22  C15 UNL     1      30.422  11.413  48.039  1.00  0.00     0.065 A 
HETATM   23 CL1  UNL     1      30.530  12.656  49.265  1.00  0.00    -0.084 Cl
HETATM   24  C16 UNL     1      30.479  10.185  48.472  1.00  0.00     0.120 A 
ENDBRANCH  12  17
BRANCH   6  25
HETATM   25  O2  UNL     1      24.225   2.859  50.121  1.00  0.00    -0.353 OA
HETATM   26  C8  UNL     1      24.445   2.111  51.288  1.00  0.00     0.210 C 
ENDBRANCH   6  25
BRANCH   1  27
HETATM   27  O1  UNL     1      23.192   5.263  50.471  1.00  0.00    -0.353 OA
HETATM   28  C1  UNL     1      22.546   6.452  50.851  1.00  0.00     0.210 C 
ENDBRANCH   1  27
TORSDOF 3
ENDMDL
MODEL 9
REMARK VINA RESULT:      -7.4      1.710      2.520
REMARK  3 active torsions:
REMARK  status: ('A' for Active; 'I' for Inactive)
REMARK    1  A    between atoms: O1_2  and  C2_3 
REMARK    2  A    between atoms: C7_8  and  O2_9 
REMARK    3  A    between atoms: C11_16  and  N3_17 
ROOT
HETATM    1  C2  UNL     1      23.792   1.685  51.644  1.00  0.00     0.102 A 
HETATM    2  C3  UNL     1      24.980   2.272  51.228  1.00  0.00     0.051 A 
HETATM    3  C4  UNL     1      25.012   3.446  50.478  1.00  0.00    -0.004 A 
HETATM    4  C5  UNL     1      23.772   3.968  50.189  1.00  0.00     0.088 A 
HETATM    5  C6  UNL     1      22.557   3.433  50.572  1.00  0.00     0.077 A 
HETATM    6  C7  UNL     1      22.549   2.254  51.324  1.00  0.00     0.104 A 
HETATM    7  O3  UNL     1      23.522   5.134  49.451  1.00  0.00    -0.289 OA
HETATM    8  C9  UNL     1      24.457   5.928  48.807  1.00  0.00     0.202 A 
HETATM    9  N1  UNL     1      23.845   6.818  47.969  1.00  0.00    -0.215 NA
HETATM   10  C10 UNL     1      24.634   7.653  47.279  1.00  0.00     0.238 A 
HETATM   11  N2  UNL     1      26.004   7.715  47.321  1.00  0.00    -0.221 NA
HETATM   12  C11 UNL     1      26.655   6.833  48.156  1.00  0.00     0.166 A 
HETATM   13  C17 UNL     1      25.837   5.985  48.854  1.00  0.00     0.129 A 
HETATM   14  N4  UNL     1      26.618   5.118  49.665  1.00  0.00    -0.379 N 
HETATM   15  C18 UNL     1      26.394   3.816  50.197  1.00  0.00     0.161 C 
HETATM   16  H14 UNL     1      27.561   5.556  49.908  1.00  0.00     0.160 HD
ENDROOT
BRANCH  12  17
HETATM   17  N3  UNL     1      28.073   6.832  48.250  1.00  0.00    -0.314 N 
HETATM   18  C12 UNL     1      28.511   8.118  48.714  1.00  0.00     0.097 A 
HETATM   19  C13 UNL     1      29.810   8.400  48.901  1.00  0.00     0.033 A 
HETATM   20  C14 UNL     1      30.865   7.380  48.630  1.00  0.00     0.240 A 
HETATM   21  F1  UNL     1      31.508   7.181  49.843  1.00  0.00    -0.239 F 
HETATM   22  C15 UNL     1      30.309   6.115  48.163  1.00  0.00     0.065 A 
HETATM   23 CL1  UNL     1      31.436   4.825  47.809  1.00  0.00    -0.084 Cl
HETATM   24  C16 UNL     1      29.050   5.833  47.981  1.00  0.00     0.120 A 
ENDBRANCH  12  17
BRANCH   6  25
HETATM   25  O2  UNL     1      21.442   1.591  51.789  1.00  0.00    -0.353 OA
HETATM   26  C8  UNL     1      20.312   2.283  52.250  1.00  0.00     0.210 C 
ENDBRANCH   6  25
BRANCH   1  27
HETATM   27  O1  UNL     1      23.780   0.519  52.386  1.00  0.00    -0.353 OA
HETATM   28  C1  UNL     1      24.653   0.244  53.452  1.00  0.00     0.210 C 
ENDBRANCH   1  27
TORSDOF 3
ENDMDL
