MODEL 1
REMARK VINA RESULT:      -9.2      0.000      0.000
REMARK  6 active torsions:
REMARK  status: ('A' for Active; 'I' for Inactive)
REMARK    1  A    between atoms: C2_2  and  C3_3 
REMARK    2  A    between atoms: N1_7  and  C7_8 
REMARK    3  A    between atoms: C7_8  and  N2_9 
REMARK    4  A    between atoms: N2_9  and  C9_11 
REMARK    5  A    between atoms: C11_13  and  C12_14 
REMARK    6  A    between atoms: C12_14  and  C13_15 
ROOT
HETATM    1  C12 UNL     1      24.847   2.301  52.763  1.00  0.00     0.109 C 
ENDROOT
BRANCH   1   2
HETATM    2  C11 UNL     1      23.900   1.195  53.111  1.00  0.00     0.127 C 
HETATM    3  N1  UNL     1      24.519   0.037  53.716  1.00  0.00    -0.342 N 
HETATM    4  C6  UNL     1      24.060  -0.827  54.750  1.00  0.00     0.126 C 
HETATM    5  C5  UNL     1      22.629  -1.283  54.570  1.00  0.00     0.022 C 
HETATM    6  C4  UNL     1      22.160  -1.359  53.164  1.00  0.00     0.028 C 
HETATM    7  C3  UNL     1      21.002  -0.431  52.859  1.00  0.00     0.101 C 
HETATM    8  N5  UNL     1      21.413   0.960  52.880  1.00  0.00    -0.308 N 
HETATM    9  N4  UNL     1      22.677   1.557  52.782  1.00  0.00    -0.165 NA
HETATM   10  H33 UNL     1      20.616   1.609  52.986  1.00  0.00     0.182 HD
BRANCH   3  11
HETATM   11  C7  UNL     1      25.797  -0.132  53.058  1.00  0.00     0.398 C 
BRANCH  11  12
HETATM   12  N2  UNL     1      26.797  -0.852  53.765  1.00  0.00     0.101 NA
HETATM   13  C8  UNL     1      27.547   0.174  54.522  1.00  0.00     0.312 C 
BRANCH  12  14
HETATM   14  C9  UNL     1      27.789  -1.527  52.992  1.00  0.00     0.269 C 
HETATM   15  C10 UNL     1      29.151  -0.981  53.469  1.00  0.00     0.037 C 
ENDBRANCH  12  14
ENDBRANCH  11  12
ENDBRANCH   3  11
BRANCH   7  16
HETATM   16  C2  UNL     1      19.809  -0.687  53.742  1.00  0.00     0.022 C 
HETATM   17  C1  UNL     1      18.526  -0.720  52.939  1.00  0.00     0.007 C 
ENDBRANCH   7  16
ENDBRANCH   1   2
BRANCH   1  18
HETATM   18  C13 UNL     1      24.125   3.520  52.361  1.00  0.00     0.013 C 
HETATM   19  C14 UNL     1      24.267   4.401  51.410  1.00  0.00     0.068 C 
HETATM   20  N3  UNL     1      25.329   4.260  50.481  1.00  0.00    -0.352 N 
HETATM   21  C23 UNL     1      23.214   5.434  51.516  1.00  0.00     0.141 C 
HETATM   22  C15 UNL     1      26.063   5.184  49.691  1.00  0.00     0.068 A 
HETATM   23  H26 UNL     1      25.576   3.252  50.403  1.00  0.00     0.166 HD
HETATM   24  C16 UNL     1      27.126   4.417  49.264  1.00  0.00     0.032 A 
HETATM   25  C20 UNL     1      25.882   6.507  49.353  1.00  0.00     0.117 A 
HETATM   26  C17 UNL     1      28.065   5.014  48.449  1.00  0.00     0.004 A 
HETATM   27  C18 UNL     1      27.945   6.350  48.068  1.00  0.00     0.027 A 
HETATM   28  C19 UNL     1      26.860   7.033  48.538  1.00  0.00     0.069 A 
HETATM   29 CL1  UNL     1      26.680   8.726  48.073  1.00  0.00    -0.081 Cl
HETATM   30  O1  UNL     1      24.934   7.441  49.648  1.00  0.00    -0.343 OA
HETATM   31  C21 UNL     1      24.075   7.816  50.682  1.00  0.00     0.206 C 
HETATM   32  C22 UNL     1      23.218   6.745  51.211  1.00  0.00     0.044 C 
HETATM   33  F1  UNL     1      22.027   4.958  52.023  1.00  0.00    -0.204 F 
ENDBRANCH   1  18
TORSDOF 6
ENDMDL
MODEL 2
REMARK VINA RESULT:      -8.7      4.302      9.362
REMARK  6 active torsions:
REMARK  status: ('A' for Active; 'I' for Inactive)
REMARK    1  A    between atoms: C2_2  and  C3_3 
REMARK    2  A    between atoms: N1_7  and  C7_8 
REMARK    3  A    between atoms: C7_8  and  N2_9 
REMARK    4  A    between atoms: N2_9  and  C9_11 
REMARK    5  A    between atoms: C11_13  and  C12_14 
REMARK    6  A    between atoms: C12_14  and  C13_15 
ROOT
HETATM    1  C12 UNL     1      28.669   5.138  48.403  1.00  0.00     0.109 C 
ENDROOT
BRANCH   1   2
HETATM    2  C11 UNL     1      29.375   6.453  48.282  1.00  0.00     0.127 C 
HETATM    3  N1  UNL     1      30.609   6.409  47.531  1.00  0.00    -0.342 N 
HETATM    4  C6  UNL     1      31.182   7.350  46.629  1.00  0.00     0.126 C 
HETATM    5  C5  UNL     1      31.168   8.772  47.146  1.00  0.00     0.022 C 
HETATM    6  C4  UNL     1      31.217   8.911  48.622  1.00  0.00     0.028 C 
HETATM    7  C3  UNL     1      29.998   9.592  49.209  1.00  0.00     0.101 C 
HETATM    8  N5  UNL     1      28.818   8.757  49.106  1.00  0.00    -0.308 N 
HETATM    9  N4  UNL     1      28.671   7.378  48.901  1.00  0.00    -0.165 NA
HETATM   10  H33 UNL     1      27.941   9.292  49.203  1.00  0.00     0.182 HD
BRANCH   3  11
HETATM   11  C7  UNL     1      31.240   5.149  47.858  1.00  0.00     0.398 C 
BRANCH  11  12
HETATM   12  N2  UNL     1      32.387   4.785  47.102  1.00  0.00     0.101 NA
HETATM   13  C8  UNL     1      32.128   3.399  46.653  1.00  0.00     0.312 C 
BRANCH  12  14
HETATM   14  C9  UNL     1      33.633   4.712  47.794  1.00  0.00     0.269 C 
HETATM   15  C10 UNL     1      34.242   3.340  47.442  1.00  0.00     0.037 C 
ENDBRANCH  12  14
ENDBRANCH  11  12
ENDBRANCH   3  11
BRANCH   7  16
HETATM   16  C2  UNL     1      29.775  10.969  48.639  1.00  0.00     0.022 C 
HETATM   17  C1  UNL     1      30.805  11.952  49.150  1.00  0.00     0.007 C 
ENDBRANCH   7  16
ENDBRANCH   1   2
BRANCH   1  18
HETATM   18  C13 UNL     1      27.213   5.319  48.528  1.00  0.00     0.013 C 
HETATM   19  C14 UNL     1      26.290   4.836  49.312  1.00  0.00     0.068 C 
HETATM   20  N3  UNL     1      26.649   3.909  50.323  1.00  0.00    -0.352 N 
HETATM   21  C23 UNL     1      24.971   5.398  48.947  1.00  0.00     0.141 C 
HETATM   22  C15 UNL     1      25.948   2.866  50.983  1.00  0.00     0.068 A 
HETATM   23  H26 UNL     1      27.638   4.079  50.598  1.00  0.00     0.166 HD
HETATM   24  C16 UNL     1      26.969   2.188  51.615  1.00  0.00     0.032 A 
HETATM   25  C20 UNL     1      24.619   2.510  51.064  1.00  0.00     0.117 A 
HETATM   26  C17 UNL     1      26.636   1.085  52.373  1.00  0.00     0.004 A 
HETATM   27  C18 UNL     1      25.312   0.667  52.498  1.00  0.00     0.027 A 
HETATM   28  C19 UNL     1      24.367   1.399  51.838  1.00  0.00     0.069 A 
HETATM   29 CL1  UNL     1      22.681   0.895  51.976  1.00  0.00    -0.081 Cl
HETATM   30  O1  UNL     1      23.468   3.015  50.540  1.00  0.00    -0.343 OA
HETATM   31  C21 UNL     1      22.996   3.664  49.398  1.00  0.00     0.206 C 
HETATM   32  C22 UNL     1      23.733   4.876  49.011  1.00  0.00     0.044 C 
HETATM   33  F1  UNL     1      25.039   6.680  48.453  1.00  0.00    -0.204 F 
ENDBRANCH   1  18
TORSDOF 6
ENDMDL
MODEL 3
REMARK VINA RESULT:      -8.6      2.554      3.552
REMARK  6 active torsions:
REMARK  status: ('A' for Active; 'I' for Inactive)
REMARK    1  A    between atoms: C2_2  and  C3_3 
REMARK    2  A    between atoms: N1_7  and  C7_8 
REMARK    3  A    between atoms: C7_8  and  N2_9 
REMARK    4  A    between atoms: N2_9  and  C9_11 
REMARK    5  A    between atoms: C11_13  and  C12_14 
REMARK    6  A    between atoms: C12_14  and  C13_15 
ROOT
HETATM    1  C12 UNL     1      26.118   3.608  49.661  1.00  0.00     0.109 C 
ENDROOT
BRANCH   1   2
HETATM    2  C11 UNL     1      25.013   2.965  50.440  1.00  0.00     0.127 C 
HETATM    3  N1  UNL     1      25.338   2.666  51.817  1.00  0.00    -0.342 N 
HETATM    4  C6  UNL     1      24.542   2.737  52.995  1.00  0.00     0.126 C 
HETATM    5  C5  UNL     1      23.174   2.110  52.843  1.00  0.00     0.022 C 
HETATM    6  C4  UNL     1      23.089   1.004  51.857  1.00  0.00     0.028 C 
HETATM    7  C3  UNL     1      22.146   1.287  50.707  1.00  0.00     0.101 C 
HETATM    8  N5  UNL     1      22.665   2.321  49.832  1.00  0.00    -0.308 N 
HETATM    9  N4  UNL     1      23.960   2.828  49.660  1.00  0.00    -0.165 NA
HETATM   10  H33 UNL     1      21.934   2.746  49.240  1.00  0.00     0.182 HD
BRANCH   3  11
HETATM   11  C7  UNL     1      26.722   2.245  51.826  1.00  0.00     0.398 C 
BRANCH  11  12
HETATM   12  N2  UNL     1      27.183   1.568  52.986  1.00  0.00     0.101 NA
HETATM   13  C8  UNL     1      28.363   2.339  53.439  1.00  0.00     0.312 C 
BRANCH  12  14
HETATM   14  C9  UNL     1      27.667   0.235  52.820  1.00  0.00     0.269 C 
HETATM   15  C10 UNL     1      26.426  -0.644  52.563  1.00  0.00     0.037 C 
ENDBRANCH  12  14
ENDBRANCH  11  12
ENDBRANCH   3  11
BRANCH   7  16
HETATM   16  C2  UNL     1      20.742   1.582  51.168  1.00  0.00     0.022 C 
HETATM   17  C1  UNL     1      20.023   0.318  51.589  1.00  0.00     0.007 C 
ENDBRANCH   7  16
ENDBRANCH   1   2
BRANCH   1  18
HETATM   18  C13 UNL     1      25.981   5.074  49.645  1.00  0.00     0.013 C 
HETATM   19  C14 UNL     1      26.702   6.060  49.188  1.00  0.00     0.068 C 
HETATM   20  N3  UNL     1      27.927   5.782  48.531  1.00  0.00    -0.352 N 
HETATM   21  C23 UNL     1      26.038   7.350  49.478  1.00  0.00     0.141 C 
HETATM   22  C15 UNL     1      29.131   6.515  48.360  1.00  0.00     0.068 A 
HETATM   23  H26 UNL     1      27.872   4.833  48.105  1.00  0.00     0.166 HD
HETATM   24  C16 UNL     1      29.995   5.546  47.895  1.00  0.00     0.032 A 
HETATM   25  C20 UNL     1      29.483   7.832  48.558  1.00  0.00     0.117 A 
HETATM   26  C17 UNL     1      31.292   5.922  47.612  1.00  0.00     0.004 A 
HETATM   27  C18 UNL     1      31.717   7.238  47.790  1.00  0.00     0.027 A 
HETATM   28  C19 UNL     1      30.793   8.130  48.254  1.00  0.00     0.069 A 
HETATM   29 CL1  UNL     1      31.301   9.804  48.490  1.00  0.00    -0.081 Cl
HETATM   30  O1  UNL     1      28.818   8.937  48.997  1.00  0.00    -0.343 OA
HETATM   31  C21 UNL     1      27.806   9.304  49.886  1.00  0.00     0.206 C 
HETATM   32  C22 UNL     1      26.540   8.570  49.739  1.00  0.00     0.044 C 
HETATM   33  F1  UNL     1      24.665   7.271  49.482  1.00  0.00    -0.204 F 
ENDBRANCH   1  18
TORSDOF 6
ENDMDL
MODEL 4
REMARK VINA RESULT:      -8.5      3.656      7.505
REMARK  6 active torsions:
REMARK  status: ('A' for Active; 'I' for Inactive)
REMARK    1  A    between atoms: C2_2  and  C3_3 
REMARK    2  A    between atoms: N1_7  and  C7_8 
REMARK    3  A    between atoms: C7_8  and  N2_9 
REMARK    4  A    between atoms: N2_9  and  C9_11 
REMARK    5  A    between atoms: C11_13  and  C12_14 
REMARK    6  A    between atoms: C12_14  and  C13_15 
ROOT
HETATM    1  C12 UNL     1      21.186   0.212  51.146  1.00  0.00     0.109 C 
ENDROOT
BRANCH   1   2
HETATM    2  C11 UNL     1      21.492   1.650  50.867  1.00  0.00     0.127 C 
HETATM    3  N1  UNL     1      20.637   2.594  51.552  1.00  0.00    -0.342 N 
HETATM    4  C6  UNL     1      20.929   3.861  52.131  1.00  0.00     0.126 C 
HETATM    5  C5  UNL     1      21.754   4.762  51.239  1.00  0.00     0.022 C 
HETATM    6  C4  UNL     1      21.580   4.543  49.782  1.00  0.00     0.028 C 
HETATM    7  C3  UNL     1      22.848   4.111  49.075  1.00  0.00     0.101 C 
HETATM    8  N5  UNL     1      23.239   2.767  49.454  1.00  0.00    -0.308 N 
HETATM    9  N4  UNL     1      22.516   1.721  50.042  1.00  0.00    -0.165 NA
HETATM   10  H33 UNL     1      24.230   2.567  49.245  1.00  0.00     0.182 HD
BRANCH   3  11
HETATM   11  C7  UNL     1      19.314   2.008  51.566  1.00  0.00     0.398 C 
BRANCH  11  12
HETATM   12  N2  UNL     1      18.367   2.529  50.643  1.00  0.00     0.101 NA
HETATM   13  C8  UNL     1      17.177   2.858  51.458  1.00  0.00     0.312 C 
BRANCH  12  14
HETATM   14  C9  UNL     1      17.880   1.646  49.634  1.00  0.00     0.269 C 
HETATM   15  C10 UNL     1      17.648   0.287  50.326  1.00  0.00     0.037 C 
ENDBRANCH  12  14
ENDBRANCH  11  12
ENDBRANCH   3  11
BRANCH   7  16
HETATM   16  C2  UNL     1      23.970   5.102  49.247  1.00  0.00     0.022 C 
HETATM   17  C1  UNL     1      25.307   4.403  49.380  1.00  0.00     0.007 C 
ENDBRANCH   7  16
ENDBRANCH   1   2
BRANCH   1  18
HETATM   18  C13 UNL     1      21.599  -0.172  52.506  1.00  0.00     0.013 C 
HETATM   19  C14 UNL     1      22.649   0.053  53.246  1.00  0.00     0.068 C 
HETATM   20  N3  UNL     1      23.709   0.840  52.731  1.00  0.00    -0.352 N 
HETATM   21  C23 UNL     1      22.495  -0.613  54.558  1.00  0.00     0.141 C 
HETATM   22  C15 UNL     1      25.104   0.890  52.994  1.00  0.00     0.068 A 
HETATM   23  H26 UNL     1      23.326   1.499  52.022  1.00  0.00     0.166 HD
HETATM   24  C16 UNL     1      25.568   1.652  51.942  1.00  0.00     0.032 A 
HETATM   25  C20 UNL     1      25.908   0.372  53.985  1.00  0.00     0.117 A 
HETATM   26  C17 UNL     1      26.922   1.910  51.882  1.00  0.00     0.004 A 
HETATM   27  C18 UNL     1      27.794   1.417  52.852  1.00  0.00     0.027 A 
HETATM   28  C19 UNL     1      27.246   0.672  53.856  1.00  0.00     0.069 A 
HETATM   29 CL1  UNL     1      28.325   0.033  55.099  1.00  0.00    -0.081 Cl
HETATM   30  O1  UNL     1      25.680  -0.389  55.092  1.00  0.00    -0.343 OA
HETATM   31  C21 UNL     1      24.841  -1.408  55.546  1.00  0.00     0.206 C 
HETATM   32  C22 UNL     1      23.401  -1.156  55.392  1.00  0.00     0.044 C 
HETATM   33  F1  UNL     1      21.190  -0.687  54.986  1.00  0.00    -0.204 F 
ENDBRANCH   1  18
TORSDOF 6
ENDMDL
MODEL 5
REMARK VINA RESULT:      -8.4      3.624      9.268
REMARK  6 active torsions:
REMARK  status: ('A' for Active; 'I' for Inactive)
REMARK    1  A    between atoms: C2_2  and  C3_3 
REMARK    2  A    between atoms: N1_7  and  C7_8 
REMARK    3  A    between atoms: C7_8  and  N2_9 
REMARK    4  A    between atoms: N2_9  and  C9_11 
REMARK    5  A    between atoms: C11_13  and  C12_14 
REMARK    6  A    between atoms: C12_14  and  C13_15 
ROOT
HETATM    1  C12 UNL     1      24.540   4.427  50.458  1.00  0.00     0.109 C 
ENDROOT
BRANCH   1   2
HETATM    2  C11 UNL     1      25.514   5.408  49.884  1.00  0.00     0.127 C 
HETATM    3  N1  UNL     1      25.063   6.781  49.887  1.00  0.00    -0.342 N 
HETATM    4  C6  UNL     1      25.775   7.992  50.114  1.00  0.00     0.126 C 
HETATM    5  C5  UNL     1      27.079   8.083  49.353  1.00  0.00     0.022 C 
HETATM    6  C4  UNL     1      27.120   7.331  48.074  1.00  0.00     0.028 C 
HETATM    7  C3  UNL     1      28.167   6.238  48.046  1.00  0.00     0.101 C 
HETATM    8  N5  UNL     1      27.822   5.144  48.933  1.00  0.00    -0.308 N 
HETATM    9  N4  UNL     1      26.601   4.765  49.508  1.00  0.00    -0.165 NA
HETATM   10  H33 UNL     1      28.633   4.551  49.170  1.00  0.00     0.182 HD
BRANCH   3  11
HETATM   11  C7  UNL     1      23.645   6.744  49.598  1.00  0.00     0.398 C 
BRANCH  11  12
HETATM   12  N2  UNL     1      22.830   7.714  50.239  1.00  0.00     0.101 NA
HETATM   13  C8  UNL     1      21.755   6.938  50.898  1.00  0.00     0.312 C 
BRANCH  12  14
HETATM   14  C9  UNL     1      22.142   8.647  49.407  1.00  0.00     0.269 C 
HETATM   15  C10 UNL     1      20.646   8.516  49.758  1.00  0.00     0.037 C 
ENDBRANCH  12  14
ENDBRANCH  11  12
ENDBRANCH   3  11
BRANCH   7  16
HETATM   16  C2  UNL     1      29.557   6.761  48.301  1.00  0.00     0.022 C 
HETATM   17  C1  UNL     1      30.105   7.485  47.089  1.00  0.00     0.007 C 
ENDBRANCH   7  16
ENDBRANCH   1   2
BRANCH   1  18
HETATM   18  C13 UNL     1      25.219   3.207  50.926  1.00  0.00     0.013 C 
HETATM   19  C14 UNL     1      24.826   2.085  51.463  1.00  0.00     0.068 C 
HETATM   20  N3  UNL     1      23.445   1.871  51.701  1.00  0.00    -0.352 N 
HETATM   21  C23 UNL     1      25.994   1.216  51.730  1.00  0.00     0.141 C 
HETATM   22  C15 UNL     1      22.728   1.083  52.639  1.00  0.00     0.068 A 
HETATM   23  H26 UNL     1      22.896   2.430  51.016  1.00  0.00     0.166 HD
HETATM   24  C16 UNL     1      21.446   1.575  52.507  1.00  0.00     0.032 A 
HETATM   25  C20 UNL     1      23.081   0.070  53.504  1.00  0.00     0.117 A 
HETATM   26  C17 UNL     1      20.459   1.016  53.292  1.00  0.00     0.004 A 
HETATM   27  C18 UNL     1      20.745  -0.011  54.190  1.00  0.00     0.027 A 
HETATM   28  C19 UNL     1      22.041  -0.435  54.254  1.00  0.00     0.069 A 
HETATM   29 CL1  UNL     1      22.435  -1.734  55.382  1.00  0.00    -0.081 Cl
HETATM   30  O1  UNL     1      24.251  -0.562  53.798  1.00  0.00    -0.343 OA
HETATM   31  C21 UNL     1      25.621  -0.310  53.885  1.00  0.00     0.206 C 
HETATM   32  C22 UNL     1      26.225   0.309  52.696  1.00  0.00     0.044 C 
HETATM   33  F1  UNL     1      27.017   1.379  50.826  1.00  0.00    -0.204 F 
ENDBRANCH   1  18
TORSDOF 6
ENDMDL
MODEL 6
REMARK VINA RESULT:      -8.1      1.969      4.478
REMARK  6 active torsions:
REMARK  status: ('A' for Active; 'I' for Inactive)
REMARK    1  A    between atoms: C2_2  and  C3_3 
REMARK    2  A    between atoms: N1_7  and  C7_8 
REMARK    3  A    between atoms: C7_8  and  N2_9 
REMARK    4  A    between atoms: N2_9  and  C9_11 
REMARK    5  A    between atoms: C11_13  and  C12_14 
REMARK    6  A    between atoms: C12_14  and  C13_15 
ROOT
HETATM    1  C12 UNL     1      21.286   4.378  52.167  1.00  0.00     0.109 C 
ENDROOT
BRANCH   1   2
HETATM    2  C11 UNL     1      22.431   3.426  52.314  1.00  0.00     0.127 C 
HETATM    3  N1  UNL     1      22.198   2.110  51.763  1.00  0.00    -0.342 N 
HETATM    4  C6  UNL     1      23.075   1.220  51.081  1.00  0.00     0.126 C 
HETATM    5  C5  UNL     1      24.419   1.054  51.756  1.00  0.00     0.022 C 
HETATM    6  C4  UNL     1      24.416   1.240  53.228  1.00  0.00     0.028 C 
HETATM    7  C3  UNL     1      25.280   2.390  53.698  1.00  0.00     0.101 C 
HETATM    8  N5  UNL     1      24.720   3.672  53.314  1.00  0.00    -0.308 N 
HETATM    9  N4  UNL     1      23.425   4.039  52.925  1.00  0.00    -0.165 NA
HETATM   10  H33 UNL     1      25.415   4.434  53.338  1.00  0.00     0.182 HD
BRANCH   3  11
HETATM   11  C7  UNL     1      20.811   1.797  52.030  1.00  0.00     0.398 C 
BRANCH  11  12
HETATM   12  N2  UNL     1      20.490   0.433  52.261  1.00  0.00     0.101 NA
HETATM   13  C8  UNL     1      19.294   0.172  51.428  1.00  0.00     0.312 C 
BRANCH  12  14
HETATM   14  C9  UNL     1      20.095   0.066  53.582  1.00  0.00     0.269 C 
HETATM   15  C10 UNL     1      21.378  -0.391  54.305  1.00  0.00     0.037 C 
ENDBRANCH  12  14
ENDBRANCH  11  12
ENDBRANCH   3  11
BRANCH   7  16
HETATM   16  C2  UNL     1      26.718   2.246  53.269  1.00  0.00     0.022 C 
HETATM   17  C1  UNL     1      27.401   1.113  54.004  1.00  0.00     0.007 C 
ENDBRANCH   7  16
ENDBRANCH   1   2
BRANCH   1  18
HETATM   18  C13 UNL     1      21.712   5.637  51.532  1.00  0.00     0.013 C 
HETATM   19  C14 UNL     1      22.652   5.971  50.692  1.00  0.00     0.068 C 
HETATM   20  N3  UNL     1      23.535   4.977  50.202  1.00  0.00    -0.352 N 
HETATM   21  C23 UNL     1      22.590   7.424  50.416  1.00  0.00     0.141 C 
HETATM   22  C15 UNL     1      24.871   5.009  49.723  1.00  0.00     0.068 A 
HETATM   23  H26 UNL     1      23.048   4.057  50.218  1.00  0.00     0.166 HD
HETATM   24  C16 UNL     1      25.202   3.670  49.703  1.00  0.00     0.032 A 
HETATM   25  C20 UNL     1      25.724   6.021  49.341  1.00  0.00     0.117 A 
HETATM   26  C17 UNL     1      26.467   3.327  49.274  1.00  0.00     0.004 A 
HETATM   27  C18 UNL     1      27.383   4.299  48.873  1.00  0.00     0.027 A 
HETATM   28  C19 UNL     1      26.968   5.599  48.925  1.00  0.00     0.069 A 
HETATM   29 CL1  UNL     1      28.105   6.853  48.424  1.00  0.00    -0.081 Cl
HETATM   30  O1  UNL     1      25.620   7.378  49.278  1.00  0.00    -0.343 OA
HETATM   31  C21 UNL     1      25.007   8.444  49.938  1.00  0.00     0.206 C 
HETATM   32  C22 UNL     1      23.555   8.317  50.130  1.00  0.00     0.044 C 
HETATM   33  F1  UNL     1      21.316   7.938  50.468  1.00  0.00    -0.204 F 
ENDBRANCH   1  18
TORSDOF 6
ENDMDL
MODEL 7
REMARK VINA RESULT:      -8.0      4.689      9.716
REMARK  6 active torsions:
REMARK  status: ('A' for Active; 'I' for Inactive)
REMARK    1  A    between atoms: C2_2  and  C3_3 
REMARK    2  A    between atoms: N1_7  and  C7_8 
REMARK    3  A    between atoms: C7_8  and  N2_9 
REMARK    4  A    between atoms: N2_9  and  C9_11 
REMARK    5  A    between atoms: C11_13  and  C12_14 
REMARK    6  A    between atoms: C12_14  and  C13_15 
ROOT
HETATM    1  C12 UNL     1      28.336   6.339  48.145  1.00  0.00     0.109 C 
ENDROOT
BRANCH   1   2
HETATM    2  C11 UNL     1      29.828   6.226  48.147  1.00  0.00     0.127 C 
HETATM    3  N1  UNL     1      30.523   7.403  48.618  1.00  0.00    -0.342 N 
HETATM    4  C6  UNL     1      31.705   7.532  49.401  1.00  0.00     0.126 C 
HETATM    5  C5  UNL     1      32.843   6.651  48.935  1.00  0.00     0.022 C 
HETATM    6  C4  UNL     1      32.846   6.333  47.486  1.00  0.00     0.028 C 
HETATM    7  C3  UNL     1      32.710   4.854  47.188  1.00  0.00     0.101 C 
HETATM    8  N5  UNL     1      31.386   4.362  47.518  1.00  0.00    -0.308 N 
HETATM    9  N4  UNL     1      30.170   5.029  47.714  1.00  0.00    -0.165 NA
HETATM   10  H33 UNL     1      31.358   3.335  47.622  1.00  0.00     0.182 HD
BRANCH   3  11
HETATM   11  C7  UNL     1      29.772   8.541  48.133  1.00  0.00     0.398 C 
BRANCH  11  12
HETATM   12  N2  UNL     1      29.761   9.703  48.950  1.00  0.00     0.101 NA
HETATM   13  C8  UNL     1      28.442   9.688  49.622  1.00  0.00     0.312 C 
BRANCH  12  14
HETATM   14  C9  UNL     1      29.815  10.968  48.293  1.00  0.00     0.269 C 
HETATM   15  C10 UNL     1      30.744  11.857  49.145  1.00  0.00     0.037 C 
ENDBRANCH  12  14
ENDBRANCH  11  12
ENDBRANCH   3  11
BRANCH   7  16
HETATM   16  C2  UNL     1      33.800   4.033  47.827  1.00  0.00     0.022 C 
HETATM   17  C1  UNL     1      34.734   3.452  46.787  1.00  0.00     0.007 C 
ENDBRANCH   7  16
ENDBRANCH   1   2
BRANCH   1  18
HETATM   18  C13 UNL     1      27.704   5.124  48.686  1.00  0.00     0.013 C 
HETATM   19  C14 UNL     1      26.501   4.812  49.082  1.00  0.00     0.068 C 
HETATM   20  N3  UNL     1      25.474   5.787  49.028  1.00  0.00    -0.352 N 
HETATM   21  C23 UNL     1      26.469   3.405  49.540  1.00  0.00     0.141 C 
HETATM   22  C15 UNL     1      24.277   5.986  49.767  1.00  0.00     0.068 A 
HETATM   23  H26 UNL     1      25.696   6.467  48.272  1.00  0.00     0.166 HD
HETATM   24  C16 UNL     1      23.923   7.268  49.401  1.00  0.00     0.032 A 
HETATM   25  C20 UNL     1      23.553   5.204  50.639  1.00  0.00     0.117 A 
HETATM   26  C17 UNL     1      22.772   7.797  49.946  1.00  0.00     0.004 A 
HETATM   27  C18 UNL     1      21.991   7.063  50.837  1.00  0.00     0.027 A 
HETATM   28  C19 UNL     1      22.418   5.802  51.141  1.00  0.00     0.069 A 
HETATM   29 CL1  UNL     1      21.450   4.847  52.267  1.00  0.00    -0.081 Cl
HETATM   30  O1  UNL     1      23.704   3.944  51.135  1.00  0.00    -0.343 OA
HETATM   31  C21 UNL     1      24.704   3.044  51.507  1.00  0.00     0.206 C 
HETATM   32  C22 UNL     1      25.739   2.796  50.492  1.00  0.00     0.044 C 
HETATM   33  F1  UNL     1      27.349   2.590  48.868  1.00  0.00    -0.204 F 
ENDBRANCH   1  18
TORSDOF 6
ENDMDL
MODEL 8
REMARK VINA RESULT:      -7.7      3.970      9.186
REMARK  6 active torsions:
REMARK  status: ('A' for Active; 'I' for Inactive)
REMARK    1  A    between atoms: C2_2  and  C3_3 
REMARK    2  A    between atoms: N1_7  and  C7_8 
REMARK    3  A    between atoms: C7_8  and  N2_9 
REMARK    4  A    between atoms: N2_9  and  C9_11 
REMARK    5  A    between atoms: C11_13  and  C12_14 
REMARK    6  A    between atoms: C12_14  and  C13_15 
ROOT
HETATM    1  C12 UNL     1      23.721   3.981  49.812  1.00  0.00     0.109 C 
ENDROOT
BRANCH   1   2
HETATM    2  C11 UNL     1      24.168   5.405  49.700  1.00  0.00     0.127 C 
HETATM    3  N1  UNL     1      23.124   6.342  49.350  1.00  0.00    -0.342 N 
HETATM    4  C6  UNL     1      22.891   7.678  49.782  1.00  0.00     0.126 C 
HETATM    5  C5  UNL     1      24.127   8.549  49.756  1.00  0.00     0.022 C 
HETATM    6  C4  UNL     1      25.144   8.177  48.741  1.00  0.00     0.028 C 
HETATM    7  C3  UNL     1      26.479   7.779  49.335  1.00  0.00     0.101 C 
HETATM    8  N5  UNL     1      26.395   6.513  50.037  1.00  0.00    -0.308 N 
HETATM    9  N4  UNL     1      25.456   5.475  49.971  1.00  0.00    -0.165 NA
HETATM   10  H33 UNL     1      27.175   6.371  50.698  1.00  0.00     0.182 HD
BRANCH   3  11
HETATM   11  C7  UNL     1      22.265   5.659  48.406  1.00  0.00     0.398 C 
BRANCH  11  12
HETATM   12  N2  UNL     1      21.991   6.326  47.183  1.00  0.00     0.101 NA
HETATM   13  C8  UNL     1      20.550   6.657  47.239  1.00  0.00     0.312 C 
BRANCH  12  14
HETATM   14  C9  UNL     1      22.141   5.576  45.978  1.00  0.00     0.269 C 
HETATM   15  C10 UNL     1      21.012   6.041  45.037  1.00  0.00     0.037 C 
ENDBRANCH  12  14
ENDBRANCH  11  12
ENDBRANCH   3  11
BRANCH   7  16
HETATM   16  C2  UNL     1      27.078   8.866  50.190  1.00  0.00     0.022 C 
HETATM   17  C1  UNL     1      27.648   9.983  49.342  1.00  0.00     0.007 C 
ENDBRANCH   7  16
ENDBRANCH   1   2
BRANCH   1  18
HETATM   18  C13 UNL     1      24.711   3.162  50.530  1.00  0.00     0.013 C 
HETATM   19  C14 UNL     1      24.657   2.077  51.252  1.00  0.00     0.068 C 
HETATM   20  N3  UNL     1      23.406   1.446  51.469  1.00  0.00    -0.352 N 
HETATM   21  C23 UNL     1      26.011   1.717  51.727  1.00  0.00     0.141 C 
HETATM   22  C15 UNL     1      22.895   0.624  52.509  1.00  0.00     0.068 A 
HETATM   23  H26 UNL     1      22.777   1.662  50.668  1.00  0.00     0.166 HD
HETATM   24  C16 UNL     1      21.544   0.619  52.233  1.00  0.00     0.032 A 
HETATM   25  C20 UNL     1      23.470  -0.050  53.563  1.00  0.00     0.117 A 
HETATM   26  C17 UNL     1      20.720  -0.107  53.068  1.00  0.00     0.004 A 
HETATM   27  C18 UNL     1      21.234  -0.812  54.155  1.00  0.00     0.027 A 
HETATM   28  C19 UNL     1      22.583  -0.750  54.351  1.00  0.00     0.069 A 
HETATM   29 CL1  UNL     1      23.265  -1.632  55.720  1.00  0.00    -0.081 Cl
HETATM   30  O1  UNL     1      24.747  -0.185  54.020  1.00  0.00    -0.343 OA
HETATM   31  C21 UNL     1      25.940   0.531  54.115  1.00  0.00     0.206 C 
HETATM   32  C22 UNL     1      26.427   1.115  52.856  1.00  0.00     0.044 C 
HETATM   33  F1  UNL     1      27.011   2.070  50.852  1.00  0.00    -0.204 F 
ENDBRANCH   1  18
TORSDOF 6
ENDMDL
MODEL 9
REMARK VINA RESULT:      -7.6      3.902      7.908
REMARK  6 active torsions:
REMARK  status: ('A' for Active; 'I' for Inactive)
REMARK    1  A    between atoms: C2_2  and  C3_3 
REMARK    2  A    between atoms: N1_7  and  C7_8 
REMARK    3  A    between atoms: C7_8  and  N2_9 
REMARK    4  A    between atoms: N2_9  and  C9_11 
REMARK    5  A    between atoms: C11_13  and  C12_14 
REMARK    6  A    between atoms: C12_14  and  C13_15 
ROOT
HETATM    1  C12 UNL     1      23.279   2.574  49.124  1.00  0.00     0.109 C 
ENDROOT
BRANCH   1   2
HETATM    2  C11 UNL     1      23.782   3.946  49.446  1.00  0.00     0.127 C 
HETATM    3  N1  UNL     1      25.210   4.032  49.656  1.00  0.00    -0.342 N 
HETATM    4  C6  UNL     1      26.141   5.050  49.303  1.00  0.00     0.126 C 
HETATM    5  C5  UNL     1      25.678   6.446  49.655  1.00  0.00     0.022 C 
HETATM    6  C4  UNL     1      24.762   6.536  50.819  1.00  0.00     0.028 C 
HETATM    7  C3  UNL     1      23.396   7.091  50.477  1.00  0.00     0.101 C 
HETATM    8  N5  UNL     1      22.630   6.164  49.666  1.00  0.00    -0.308 N 
HETATM    9  N4  UNL     1      22.768   4.787  49.451  1.00  0.00    -0.165 NA
HETATM   10  H33 UNL     1      21.850   6.621  49.168  1.00  0.00     0.182 HD
BRANCH   3  11
HETATM   11  C7  UNL     1      25.595   2.818  50.343  1.00  0.00     0.398 C 
BRANCH  11  12
HETATM   12  N2  UNL     1      25.857   2.919  51.736  1.00  0.00     0.101 NA
HETATM   13  C8  UNL     1      27.072   2.105  51.958  1.00  0.00     0.312 C 
BRANCH  12  14
HETATM   14  C9  UNL     1      24.888   2.371  52.628  1.00  0.00     0.269 C 
HETATM   15  C10 UNL     1      24.006   3.551  53.085  1.00  0.00     0.037 C 
ENDBRANCH  12  14
ENDBRANCH  11  12
ENDBRANCH   3  11
BRANCH   7  16
HETATM   16  C2  UNL     1      23.468   8.464  49.859  1.00  0.00     0.022 C 
HETATM   17  C1  UNL     1      22.700   8.523  48.556  1.00  0.00     0.007 C 
ENDBRANCH   7  16
ENDBRANCH   1   2
BRANCH   1  18
HETATM   18  C13 UNL     1      21.816   2.490  49.270  1.00  0.00     0.013 C 
HETATM   19  C14 UNL     1      21.008   2.017  50.178  1.00  0.00     0.068 C 
HETATM   20  N3  UNL     1      21.545   1.420  51.346  1.00  0.00    -0.352 N 
HETATM   21  C23 UNL     1      19.603   2.219  49.760  1.00  0.00     0.141 C 
HETATM   22  C15 UNL     1      21.066   0.428  52.243  1.00  0.00     0.068 A 
HETATM   23  H26 UNL     1      22.481   1.835  51.537  1.00  0.00     0.166 HD
HETATM   24  C16 UNL     1      22.203   0.116  52.959  1.00  0.00     0.032 A 
HETATM   25  C20 UNL     1      19.836  -0.154  52.455  1.00  0.00     0.117 A 
HETATM   26  C17 UNL     1      22.097  -0.840  53.948  1.00  0.00     0.004 A 
HETATM   27  C18 UNL     1      20.883  -1.471  54.216  1.00  0.00     0.027 A 
HETATM   28  C19 UNL     1      19.811  -1.098  53.457  1.00  0.00     0.069 A 
HETATM   29 CL1  UNL     1      18.259  -1.879  53.772  1.00  0.00    -0.081 Cl
HETATM   30  O1  UNL     1      18.607  -0.009  51.886  1.00  0.00    -0.343 OA
HETATM   31  C21 UNL     1      18.015   0.273  50.653  1.00  0.00     0.206 C 
HETATM   32  C22 UNL     1      18.494   1.492  49.987  1.00  0.00     0.044 C 
HETATM   33  F1  UNL     1      19.414   3.351  49.002  1.00  0.00    -0.204 F 
ENDBRANCH   1  18
TORSDOF 6
ENDMDL
