MODEL 1
REMARK VINA RESULT:      -7.8      0.000      0.000
REMARK  5 active torsions:
REMARK  status: ('A' for Active; 'I' for Inactive)
REMARK    1  A    between atoms: C2_2  and  C3_3 
REMARK    2  A    between atoms: C3_3  and  C4_4 
REMARK    3  A    between atoms: C4_4  and  C5_5 
REMARK    4  A    between atoms: C6_6  and  C7_7 
REMARK       I    between atoms: C7_7  and  N1_9 
REMARK    5  A    between atoms: N1_9  and  C8_10 
ROOT
HETATM    1  C8  UNL     1      22.213   3.008  51.438  1.00  0.00     0.129 C 
HETATM    2  C9  UNL     1      22.952   3.583  52.408  1.00  0.00     0.028 C 
HETATM    3  C10 UNL     1      24.203   3.480  53.215  1.00  0.00     0.072 C 
HETATM    4  C11 UNL     1      25.028   2.318  52.903  1.00  0.00    -0.025 A 
HETATM    5  C12 UNL     1      24.830   1.200  53.718  1.00  0.00     0.053 A 
HETATM    6  C13 UNL     1      25.487  -0.007  53.620  1.00  0.00     0.138 A 
HETATM    7  F1  UNL     1      25.236  -1.034  54.445  1.00  0.00    -0.204 F 
HETATM    8  C14 UNL     1      26.438  -0.122  52.616  1.00  0.00     0.074 A 
HETATM    9 CL1  UNL     1      27.290  -1.636  52.463  1.00  0.00    -0.081 Cl
HETATM   10  C15 UNL     1      26.643   0.980  51.803  1.00  0.00     0.056 A 
HETATM   11  C16 UNL     1      25.959   2.196  51.926  1.00  0.00     0.037 A 
HETATM   12  N2  UNL     1      26.416   3.097  50.927  1.00  0.00    -0.371 N 
HETATM   13  C17 UNL     1      25.545   4.008  50.173  1.00  0.00     0.272 C 
HETATM   14  N3  UNL     1      24.463   3.262  49.550  1.00  0.00    -0.263 NA
HETATM   15  C18 UNL     1      23.280   3.827  49.454  1.00  0.00     0.231 C 
HETATM   16  N4  UNL     1      22.683   2.684  48.803  1.00  0.00    -0.219 NA
HETATM   17  C19 UNL     1      22.326   1.670  49.489  1.00  0.00     0.201 C 
HETATM   18  N5  UNL     1      22.543   1.785  50.743  1.00  0.00    -0.208 NA
HETATM   19  H16 UNL     1      27.451   3.147  50.680  1.00  0.00     0.161 HD
ENDROOT
BRANCH   1  20
HETATM   20  N1  UNL     1      20.955   3.540  50.958  1.00  0.00    -0.301 N 
HETATM   21  C7  UNL     1      19.847   3.199  51.774  1.00  0.00     0.302 C 
HETATM   22  O1  UNL     1      20.009   2.496  52.804  1.00  0.00    -0.258 OA
HETATM   23  H10 UNL     1      20.659   4.135  50.128  1.00  0.00     0.171 HD
BRANCH  21  24
HETATM   24  C6  UNL     1      18.492   3.607  51.508  1.00  0.00    -0.005 C 
HETATM   25  C5  UNL     1      17.352   3.941  51.304  1.00  0.00    -0.096 C 
BRANCH  25  26
HETATM   26  C4  UNL     1      15.963   4.347  51.081  1.00  0.00     0.094 C 
BRANCH  26  27
HETATM   27  C3  UNL     1      15.017   3.620  51.988  1.00  0.00     0.012 C 
BRANCH  27  28
HETATM   28  C2  UNL     1      14.979   4.222  53.376  1.00  0.00    -0.004 C 
HETATM   29  C1  UNL     1      13.507   4.419  53.747  1.00  0.00     0.005 C 
ENDBRANCH  27  28
ENDBRANCH  26  27
ENDBRANCH  25  26
ENDBRANCH  21  24
ENDBRANCH   1  20
TORSDOF 5
ENDMDL
MODEL 2
REMARK VINA RESULT:      -7.7      3.834      8.223
REMARK  5 active torsions:
REMARK  status: ('A' for Active; 'I' for Inactive)
REMARK    1  A    between atoms: C2_2  and  C3_3 
REMARK    2  A    between atoms: C3_3  and  C4_4 
REMARK    3  A    between atoms: C4_4  and  C5_5 
REMARK    4  A    between atoms: C6_6  and  C7_7 
REMARK       I    between atoms: C7_7  and  N1_9 
REMARK    5  A    between atoms: N1_9  and  C8_10 
ROOT
HETATM    1  C8  UNL     1      23.967   3.884  49.945  1.00  0.00     0.129 C 
HETATM    2  C9  UNL     1      23.273   2.968  49.239  1.00  0.00     0.028 C 
HETATM    3  C10 UNL     1      22.262   1.873  49.319  1.00  0.00     0.072 C 
HETATM    4  C11 UNL     1      21.762   1.610  50.664  1.00  0.00    -0.025 A 
HETATM    5  C12 UNL     1      22.408   0.585  51.359  1.00  0.00     0.053 A 
HETATM    6  C13 UNL     1      22.116   0.155  52.635  1.00  0.00     0.138 A 
HETATM    7  F1  UNL     1      22.788  -0.840  53.233  1.00  0.00    -0.204 F 
HETATM    8  C14 UNL     1      21.080   0.803  53.291  1.00  0.00     0.074 A 
HETATM    9 CL1  UNL     1      20.682   0.285  54.908  1.00  0.00    -0.081 Cl
HETATM   10  C15 UNL     1      20.432   1.821  52.612  1.00  0.00     0.056 A 
HETATM   11  C16 UNL     1      20.752   2.236  51.313  1.00  0.00     0.037 A 
HETATM   12  N2  UNL     1      19.892   3.303  50.935  1.00  0.00    -0.371 N 
HETATM   13  C17 UNL     1      20.323   4.486  50.180  1.00  0.00     0.272 C 
HETATM   14  N3  UNL     1      21.448   5.121  50.848  1.00  0.00    -0.263 NA
HETATM   15  C18 UNL     1      22.386   5.677  50.114  1.00  0.00     0.231 C 
HETATM   16  N4  UNL     1      23.163   6.097  51.257  1.00  0.00    -0.219 NA
HETATM   17  C19 UNL     1      23.907   5.261  51.868  1.00  0.00     0.201 C 
HETATM   18  N5  UNL     1      23.885   4.083  51.373  1.00  0.00    -0.208 NA
HETATM   19  H16 UNL     1      18.859   3.280  51.195  1.00  0.00     0.161 HD
ENDROOT
BRANCH   1  20
HETATM   20  N1  UNL     1      24.919   4.803  49.358  1.00  0.00    -0.301 N 
HETATM   21  C7  UNL     1      26.244   4.301  49.320  1.00  0.00     0.302 C 
HETATM   22  O1  UNL     1      26.503   3.156  49.771  1.00  0.00    -0.258 OA
HETATM   23  H10 UNL     1      24.861   5.780  48.942  1.00  0.00     0.171 HD
BRANCH  21  24
HETATM   24  C6  UNL     1      27.368   5.026  48.786  1.00  0.00    -0.005 C 
HETATM   25  C5  UNL     1      28.319   5.614  48.339  1.00  0.00    -0.096 C 
BRANCH  25  26
HETATM   26  C4  UNL     1      29.484   6.308  47.786  1.00  0.00     0.094 C 
BRANCH  26  27
HETATM   27  C3  UNL     1      30.724   5.470  47.869  1.00  0.00     0.012 C 
BRANCH  27  28
HETATM   28  C2  UNL     1      31.584   5.836  49.059  1.00  0.00    -0.004 C 
HETATM   29  C1  UNL     1      31.484   7.352  49.244  1.00  0.00     0.005 C 
ENDBRANCH  27  28
ENDBRANCH  26  27
ENDBRANCH  25  26
ENDBRANCH  21  24
ENDBRANCH   1  20
TORSDOF 5
ENDMDL
MODEL 3
REMARK VINA RESULT:      -7.2      5.474      8.978
REMARK  5 active torsions:
REMARK  status: ('A' for Active; 'I' for Inactive)
REMARK    1  A    between atoms: C2_2  and  C3_3 
REMARK    2  A    between atoms: C3_3  and  C4_4 
REMARK    3  A    between atoms: C4_4  and  C5_5 
REMARK    4  A    between atoms: C6_6  and  C7_7 
REMARK       I    between atoms: C7_7  and  N1_9 
REMARK    5  A    between atoms: N1_9  and  C8_10 
ROOT
HETATM    1  C8  UNL     1      24.881   5.113  50.151  1.00  0.00     0.129 C 
HETATM    2  C9  UNL     1      25.370   6.322  50.495  1.00  0.00     0.028 C 
HETATM    3  C10 UNL     1      25.513   7.747  50.076  1.00  0.00     0.072 C 
HETATM    4  C11 UNL     1      24.913   8.059  48.782  1.00  0.00    -0.025 A 
HETATM    5  C12 UNL     1      25.782   8.018  47.689  1.00  0.00     0.053 A 
HETATM    6  C13 UNL     1      25.452   8.274  46.376  1.00  0.00     0.138 A 
HETATM    7  F1  UNL     1      26.349   8.213  45.381  1.00  0.00    -0.204 F 
HETATM    8  C14 UNL     1      24.130   8.604  46.116  1.00  0.00     0.074 A 
HETATM    9 CL1  UNL     1      23.676   8.935  44.465  1.00  0.00    -0.081 Cl
HETATM   10  C15 UNL     1      23.260   8.648  47.193  1.00  0.00     0.056 A 
HETATM   11  C16 UNL     1      23.625   8.382  48.519  1.00  0.00     0.037 A 
HETATM   12  N2  UNL     1      22.484   8.512  49.356  1.00  0.00    -0.371 N 
HETATM   13  C17 UNL     1      22.173   7.616  50.477  1.00  0.00     0.272 C 
HETATM   14  N3  UNL     1      22.157   6.235  50.021  1.00  0.00    -0.263 NA
HETATM   15  C18 UNL     1      22.590   5.296  50.833  1.00  0.00     0.231 C 
HETATM   16  N4  UNL     1      22.346   4.233  49.887  1.00  0.00    -0.219 NA
HETATM   17  C19 UNL     1      23.169   4.019  48.936  1.00  0.00     0.201 C 
HETATM   18  N5  UNL     1      24.174   4.809  48.928  1.00  0.00    -0.208 NA
HETATM   19  H16 UNL     1      21.785   9.300  49.195  1.00  0.00     0.161 HD
ENDROOT
BRANCH   1  20
HETATM   20  N1  UNL     1      25.010   3.927  50.970  1.00  0.00    -0.301 N 
HETATM   21  C7  UNL     1      26.183   3.177  50.702  1.00  0.00     0.302 C 
HETATM   22  O1  UNL     1      26.995   3.561  49.821  1.00  0.00    -0.258 OA
HETATM   23  H10 UNL     1      24.427   3.476  51.737  1.00  0.00     0.171 HD
BRANCH  21  24
HETATM   24  C6  UNL     1      26.536   1.959  51.383  1.00  0.00    -0.005 C 
HETATM   25  C5  UNL     1      26.815   0.930  51.945  1.00  0.00    -0.096 C 
BRANCH  25  26
HETATM   26  C4  UNL     1      27.141  -0.333  52.610  1.00  0.00     0.094 C 
BRANCH  26  27
HETATM   27  C3  UNL     1      27.563  -0.122  54.033  1.00  0.00     0.012 C 
BRANCH  27  28
HETATM   28  C2  UNL     1      29.042   0.176  54.152  1.00  0.00    -0.004 C 
HETATM   29  C1  UNL     1      29.795  -0.996  53.517  1.00  0.00     0.005 C 
ENDBRANCH  27  28
ENDBRANCH  26  27
ENDBRANCH  25  26
ENDBRANCH  21  24
ENDBRANCH   1  20
TORSDOF 5
ENDMDL
MODEL 4
REMARK VINA RESULT:      -7.1      3.780      8.248
REMARK  5 active torsions:
REMARK  status: ('A' for Active; 'I' for Inactive)
REMARK    1  A    between atoms: C2_2  and  C3_3 
REMARK    2  A    between atoms: C3_3  and  C4_4 
REMARK    3  A    between atoms: C4_4  and  C5_5 
REMARK    4  A    between atoms: C6_6  and  C7_7 
REMARK       I    between atoms: C7_7  and  N1_9 
REMARK    5  A    between atoms: N1_9  and  C8_10 
ROOT
HETATM    1  C8  UNL     1      23.204   2.928  50.626  1.00  0.00     0.129 C 
HETATM    2  C9  UNL     1      22.971   2.311  49.449  1.00  0.00     0.028 C 
HETATM    3  C10 UNL     1      21.917   1.803  48.523  1.00  0.00     0.072 C 
HETATM    4  C11 UNL     1      20.551   2.010  48.992  1.00  0.00    -0.025 A 
HETATM    5  C12 UNL     1      19.976   0.932  49.671  1.00  0.00     0.053 A 
HETATM    6  C13 UNL     1      18.706   0.888  50.203  1.00  0.00     0.138 A 
HETATM    7  F1  UNL     1      18.229  -0.190  50.843  1.00  0.00    -0.204 F 
HETATM    8  C14 UNL     1      17.924   2.023  50.050  1.00  0.00     0.074 A 
HETATM    9 CL1  UNL     1      16.310   2.003  50.712  1.00  0.00    -0.081 Cl
HETATM   10  C15 UNL     1      18.483   3.098  49.379  1.00  0.00     0.056 A 
HETATM   11  C16 UNL     1      19.779   3.113  48.848  1.00  0.00     0.037 A 
HETATM   12  N2  UNL     1      20.021   4.373  48.236  1.00  0.00    -0.371 N 
HETATM   13  C17 UNL     1      21.291   5.105  48.323  1.00  0.00     0.272 C 
HETATM   14  N3  UNL     1      21.673   5.277  49.716  1.00  0.00    -0.263 NA
HETATM   15  C18 UNL     1      22.948   5.236  50.032  1.00  0.00     0.231 C 
HETATM   16  N4  UNL     1      22.704   5.449  51.439  1.00  0.00    -0.219 NA
HETATM   17  C19 UNL     1      22.320   4.481  52.177  1.00  0.00     0.201 C 
HETATM   18  N5  UNL     1      22.193   3.371  51.557  1.00  0.00    -0.208 NA
HETATM   19  H16 UNL     1      19.259   4.850  47.666  1.00  0.00     0.161 HD
ENDROOT
BRANCH   1  20
HETATM   20  N1  UNL     1      24.527   3.224  51.133  1.00  0.00    -0.301 N 
HETATM   21  C7  UNL     1      25.108   2.156  51.863  1.00  0.00     0.302 C 
HETATM   22  O1  UNL     1      24.479   1.078  52.019  1.00  0.00    -0.258 OA
HETATM   23  H10 UNL     1      25.177   4.064  51.090  1.00  0.00     0.171 HD
BRANCH  21  24
HETATM   24  C6  UNL     1      26.413   2.207  52.467  1.00  0.00    -0.005 C 
HETATM   25  C5  UNL     1      27.504   2.229  52.979  1.00  0.00    -0.096 C 
BRANCH  25  26
HETATM   26  C4  UNL     1      28.831   2.231  53.597  1.00  0.00     0.094 C 
BRANCH  26  27
HETATM   27  C3  UNL     1      29.002   1.092  54.556  1.00  0.00     0.012 C 
BRANCH  27  28
HETATM   28  C2  UNL     1      28.670  -0.243  53.923  1.00  0.00    -0.004 C 
HETATM   29  C1  UNL     1      29.996  -0.953  53.636  1.00  0.00     0.005 C 
ENDBRANCH  27  28
ENDBRANCH  26  27
ENDBRANCH  25  26
ENDBRANCH  21  24
ENDBRANCH   1  20
TORSDOF 5
ENDMDL
MODEL 5
REMARK VINA RESULT:      -7.1      8.274     11.119
REMARK  5 active torsions:
REMARK  status: ('A' for Active; 'I' for Inactive)
REMARK    1  A    between atoms: C2_2  and  C3_3 
REMARK    2  A    between atoms: C3_3  and  C4_4 
REMARK    3  A    between atoms: C4_4  and  C5_5 
REMARK    4  A    between atoms: C6_6  and  C7_7 
REMARK       I    between atoms: C7_7  and  N1_9 
REMARK    5  A    between atoms: N1_9  and  C8_10 
ROOT
HETATM    1  C8  UNL     1      29.598   7.573  48.283  1.00  0.00     0.129 C 
HETATM    2  C9  UNL     1      30.716   7.721  49.022  1.00  0.00     0.028 C 
HETATM    3  C10 UNL     1      32.111   8.252  49.036  1.00  0.00     0.072 C 
HETATM    4  C11 UNL     1      32.529   8.885  47.789  1.00  0.00    -0.025 A 
HETATM    5  C12 UNL     1      33.226   8.064  46.900  1.00  0.00     0.053 A 
HETATM    6  C13 UNL     1      33.720   8.432  45.667  1.00  0.00     0.138 A 
HETATM    7  F1  UNL     1      34.381   7.580  44.870  1.00  0.00    -0.204 F 
HETATM    8  C14 UNL     1      33.505   9.745  45.274  1.00  0.00     0.074 A 
HETATM    9 CL1  UNL     1      34.117  10.247  43.720  1.00  0.00    -0.081 Cl
HETATM   10  C15 UNL     1      32.815  10.568  46.148  1.00  0.00     0.056 A 
HETATM   11  C16 UNL     1      32.324  10.164  47.396  1.00  0.00     0.037 A 
HETATM   12  N2  UNL     1      31.666  11.259  48.019  1.00  0.00    -0.371 N 
HETATM   13  C17 UNL     1      30.415  11.148  48.782  1.00  0.00     0.272 C 
HETATM   14  N3  UNL     1      29.395  10.498  47.975  1.00  0.00    -0.263 NA
HETATM   15  C18 UNL     1      28.534   9.702  48.568  1.00  0.00     0.231 C 
HETATM   16  N4  UNL     1      27.838   9.386  47.341  1.00  0.00    -0.219 NA
HETATM   17  C19 UNL     1      28.325   8.528  46.532  1.00  0.00     0.201 C 
HETATM   18  N5  UNL     1      29.429   8.014  46.917  1.00  0.00    -0.208 NA
HETATM   19  H16 UNL     1      32.074  12.241  47.954  1.00  0.00     0.161 HD
ENDROOT
BRANCH   1  20
HETATM   20  N1  UNL     1      28.394   6.928  48.761  1.00  0.00    -0.301 N 
HETATM   21  C7  UNL     1      28.388   5.523  48.568  1.00  0.00     0.302 C 
HETATM   22  O1  UNL     1      29.369   4.952  48.026  1.00  0.00    -0.258 OA
HETATM   23  H10 UNL     1      27.499   7.260  49.229  1.00  0.00     0.171 HD
BRANCH  21  24
HETATM   24  C6  UNL     1      27.305   4.659  48.958  1.00  0.00    -0.005 C 
HETATM   25  C5  UNL     1      26.407   3.933  49.304  1.00  0.00    -0.096 C 
BRANCH  25  26
HETATM   26  C4  UNL     1      25.320   3.058  49.748  1.00  0.00     0.094 C 
BRANCH  26  27
HETATM   27  C3  UNL     1      25.478   2.657  51.184  1.00  0.00     0.012 C 
BRANCH  27  28
HETATM   28  C2  UNL     1      26.735   1.847  51.416  1.00  0.00    -0.004 C 
HETATM   29  C1  UNL     1      26.308   0.504  52.012  1.00  0.00     0.005 C 
ENDBRANCH  27  28
ENDBRANCH  26  27
ENDBRANCH  25  26
ENDBRANCH  21  24
ENDBRANCH   1  20
TORSDOF 5
ENDMDL
MODEL 6
REMARK VINA RESULT:      -6.8      4.299      8.693
REMARK  5 active torsions:
REMARK  status: ('A' for Active; 'I' for Inactive)
REMARK    1  A    between atoms: C2_2  and  C3_3 
REMARK    2  A    between atoms: C3_3  and  C4_4 
REMARK    3  A    between atoms: C4_4  and  C5_5 
REMARK    4  A    between atoms: C6_6  and  C7_7 
REMARK       I    between atoms: C7_7  and  N1_9 
REMARK    5  A    between atoms: N1_9  and  C8_10 
ROOT
HETATM    1  C8  UNL     1      19.860   1.273  51.555  1.00  0.00     0.129 C 
HETATM    2  C9  UNL     1      19.073   0.420  50.869  1.00  0.00     0.028 C 
HETATM    3  C10 UNL     1      17.693   0.173  50.358  1.00  0.00     0.072 C 
HETATM    4  C11 UNL     1      16.732   1.222  50.682  1.00  0.00    -0.025 A 
HETATM    5  C12 UNL     1      15.966   1.005  51.831  1.00  0.00     0.053 A 
HETATM    6  C13 UNL     1      14.999   1.846  52.336  1.00  0.00     0.138 A 
HETATM    7  F1  UNL     1      14.306   1.564  53.450  1.00  0.00    -0.204 F 
HETATM    8  C14 UNL     1      14.765   3.021  51.637  1.00  0.00     0.074 A 
HETATM    9 CL1  UNL     1      13.547   4.111  52.249  1.00  0.00    -0.081 Cl
HETATM   10  C15 UNL     1      15.518   3.247  50.497  1.00  0.00     0.056 A 
HETATM   11  C16 UNL     1      16.495   2.372  50.007  1.00  0.00     0.037 A 
HETATM   12  N2  UNL     1      17.070   2.921  48.829  1.00  0.00    -0.371 N 
HETATM   13  C17 UNL     1      18.501   2.862  48.501  1.00  0.00     0.272 C 
HETATM   14  N3  UNL     1      19.287   3.402  49.598  1.00  0.00    -0.263 NA
HETATM   15  C18 UNL     1      20.456   2.863  49.863  1.00  0.00     0.231 C 
HETATM   16  N4  UNL     1      20.724   3.758  50.965  1.00  0.00    -0.219 NA
HETATM   17  C19 UNL     1      20.186   3.552  52.104  1.00  0.00     0.201 C 
HETATM   18  N5  UNL     1      19.434   2.520  52.146  1.00  0.00    -0.208 NA
HETATM   19  H16 UNL     1      16.458   3.415  48.110  1.00  0.00     0.161 HD
ENDROOT
BRANCH   1  20
HETATM   20  N1  UNL     1      21.267   1.045  51.810  1.00  0.00    -0.301 N 
HETATM   21  C7  UNL     1      21.515   0.250  52.957  1.00  0.00     0.302 C 
HETATM   22  O1  UNL     1      20.557  -0.186  53.646  1.00  0.00    -0.258 OA
HETATM   23  H10 UNL     1      22.173   1.337  51.335  1.00  0.00     0.171 HD
BRANCH  21  24
HETATM   24  C6  UNL     1      22.828  -0.115  53.418  1.00  0.00    -0.005 C 
HETATM   25  C5  UNL     1      23.937  -0.410  53.788  1.00  0.00    -0.096 C 
BRANCH  25  26
HETATM   26  C4  UNL     1      25.293  -0.748  54.225  1.00  0.00     0.094 C 
BRANCH  26  27
HETATM   27  C3  UNL     1      26.305   0.230  53.711  1.00  0.00     0.012 C 
BRANCH  27  28
HETATM   28  C2  UNL     1      26.565   0.058  52.230  1.00  0.00    -0.004 C 
HETATM   29  C1  UNL     1      26.485   1.446  51.589  1.00  0.00     0.005 C 
ENDBRANCH  27  28
ENDBRANCH  26  27
ENDBRANCH  25  26
ENDBRANCH  21  24
ENDBRANCH   1  20
TORSDOF 5
ENDMDL
MODEL 7
REMARK VINA RESULT:      -6.7      7.351      9.842
REMARK  5 active torsions:
REMARK  status: ('A' for Active; 'I' for Inactive)
REMARK    1  A    between atoms: C2_2  and  C3_3 
REMARK    2  A    between atoms: C3_3  and  C4_4 
REMARK    3  A    between atoms: C4_4  and  C5_5 
REMARK    4  A    between atoms: C6_6  and  C7_7 
REMARK       I    between atoms: C7_7  and  N1_9 
REMARK    5  A    between atoms: N1_9  and  C8_10 
ROOT
HETATM    1  C8  UNL     1      29.276   6.474  48.219  1.00  0.00     0.129 C 
HETATM    2  C9  UNL     1      30.324   5.844  48.789  1.00  0.00     0.028 C 
HETATM    3  C10 UNL     1      31.765   5.489  48.638  1.00  0.00     0.072 C 
HETATM    4  C11 UNL     1      32.382   5.974  47.408  1.00  0.00    -0.025 A 
HETATM    5  C12 UNL     1      32.411   5.064  46.348  1.00  0.00     0.053 A 
HETATM    6  C13 UNL     1      32.938   5.289  45.095  1.00  0.00     0.138 A 
HETATM    7  F1  UNL     1      32.926   4.358  44.129  1.00  0.00    -0.204 F 
HETATM    8  C14 UNL     1      33.493   6.539  44.865  1.00  0.00     0.074 A 
HETATM    9 CL1  UNL     1      34.169   6.859  43.290  1.00  0.00    -0.081 Cl
HETATM   10  C15 UNL     1      33.470   7.449  45.909  1.00  0.00     0.056 A 
HETATM   11  C16 UNL     1      32.926   7.191  47.174  1.00  0.00     0.037 A 
HETATM   12  N2  UNL     1      33.068   8.345  47.990  1.00  0.00    -0.371 N 
HETATM   13  C17 UNL     1      32.042   8.832  48.922  1.00  0.00     0.272 C 
HETATM   14  N3  UNL     1      30.779   9.010  48.224  1.00  0.00    -0.263 NA
HETATM   15  C18 UNL     1      29.661   8.750  48.864  1.00  0.00     0.231 C 
HETATM   16  N4  UNL     1      28.826   9.088  47.734  1.00  0.00    -0.219 NA
HETATM   17  C19 UNL     1      28.668   8.253  46.782  1.00  0.00     0.201 C 
HETATM   18  N5  UNL     1      29.296   7.152  46.943  1.00  0.00    -0.208 NA
HETATM   19  H16 UNL     1      33.963   8.923  47.957  1.00  0.00     0.161 HD
ENDROOT
BRANCH   1  20
HETATM   20  N1  UNL     1      27.959   6.548  48.813  1.00  0.00    -0.301 N 
HETATM   21  C7  UNL     1      27.329   5.286  48.957  1.00  0.00     0.302 C 
HETATM   22  O1  UNL     1      27.915   4.237  48.583  1.00  0.00    -0.258 OA
HETATM   23  H10 UNL     1      27.340   7.334  49.173  1.00  0.00     0.171 HD
BRANCH  21  24
HETATM   24  C6  UNL     1      26.017   5.097  49.519  1.00  0.00    -0.005 C 
HETATM   25  C5  UNL     1      24.918   4.920  49.979  1.00  0.00    -0.096 C 
BRANCH  25  26
HETATM   26  C4  UNL     1      23.585   4.680  50.537  1.00  0.00     0.094 C 
BRANCH  26  27
HETATM   27  C3  UNL     1      23.652   4.197  51.954  1.00  0.00     0.012 C 
BRANCH  27  28
HETATM   28  C2  UNL     1      23.901   2.707  52.040  1.00  0.00    -0.004 C 
HETATM   29  C1  UNL     1      24.929   2.480  53.151  1.00  0.00     0.005 C 
ENDBRANCH  27  28
ENDBRANCH  26  27
ENDBRANCH  25  26
ENDBRANCH  21  24
ENDBRANCH   1  20
TORSDOF 5
ENDMDL
MODEL 8
REMARK VINA RESULT:      -6.6      3.932      5.589
REMARK  5 active torsions:
REMARK  status: ('A' for Active; 'I' for Inactive)
REMARK    1  A    between atoms: C2_2  and  C3_3 
REMARK    2  A    between atoms: C3_3  and  C4_4 
REMARK    3  A    between atoms: C4_4  and  C5_5 
REMARK    4  A    between atoms: C6_6  and  C7_7 
REMARK       I    between atoms: C7_7  and  N1_9 
REMARK    5  A    between atoms: N1_9  and  C8_10 
ROOT
HETATM    1  C8  UNL     1      23.207   3.412  49.527  1.00  0.00     0.129 C 
HETATM    2  C9  UNL     1      22.509   2.712  50.444  1.00  0.00     0.028 C 
HETATM    3  C10 UNL     1      22.596   1.938  51.716  1.00  0.00     0.072 C 
HETATM    4  C11 UNL     1      23.941   1.840  52.273  1.00  0.00    -0.025 A 
HETATM    5  C12 UNL     1      24.653   0.686  51.934  1.00  0.00     0.053 A 
HETATM    6  C13 UNL     1      25.932   0.370  52.336  1.00  0.00     0.138 A 
HETATM    7  F1  UNL     1      26.546  -0.763  51.964  1.00  0.00    -0.204 F 
HETATM    8  C14 UNL     1      26.574   1.286  53.156  1.00  0.00     0.074 A 
HETATM    9 CL1  UNL     1      28.195   0.918  53.685  1.00  0.00    -0.081 Cl
HETATM   10  C15 UNL     1      25.879   2.433  53.499  1.00  0.00     0.056 A 
HETATM   11  C16 UNL     1      24.577   2.728  53.074  1.00  0.00     0.037 A 
HETATM   12  N2  UNL     1      24.181   3.983  53.608  1.00  0.00    -0.371 N 
HETATM   13  C17 UNL     1      23.414   4.993  52.867  1.00  0.00     0.272 C 
HETATM   14  N3  UNL     1      24.080   5.304  51.613  1.00  0.00    -0.263 NA
HETATM   15  C18 UNL     1      23.345   5.573  50.557  1.00  0.00     0.231 C 
HETATM   16  N4  UNL     1      24.488   5.779  49.697  1.00  0.00    -0.219 NA
HETATM   17  C19 UNL     1      25.114   4.779  49.212  1.00  0.00     0.201 C 
HETATM   18  N5  UNL     1      24.633   3.646  49.555  1.00  0.00    -0.208 NA
HETATM   19  H16 UNL     1      24.435   4.248  54.608  1.00  0.00     0.161 HD
ENDROOT
BRANCH   1  20
HETATM   20  N1  UNL     1      22.615   4.028  48.358  1.00  0.00    -0.301 N 
HETATM   21  C7  UNL     1      22.374   3.118  47.298  1.00  0.00     0.302 C 
HETATM   22  O1  UNL     1      22.670   1.902  47.425  1.00  0.00    -0.258 OA
HETATM   23  H10 UNL     1      22.313   5.014  48.101  1.00  0.00     0.171 HD
BRANCH  21  24
HETATM   24  C6  UNL     1      21.793   3.487  46.034  1.00  0.00    -0.005 C 
HETATM   25  C5  UNL     1      21.288   3.794  44.984  1.00  0.00    -0.096 C 
BRANCH  25  26
HETATM   26  C4  UNL     1      20.654   4.178  43.721  1.00  0.00     0.094 C 
BRANCH  26  27
HETATM   27  C3  UNL     1      20.869   5.627  43.406  1.00  0.00     0.012 C 
BRANCH  27  28
HETATM   28  C2  UNL     1      20.816   5.904  41.919  1.00  0.00    -0.004 C 
HETATM   29  C1  UNL     1      19.381   5.637  41.458  1.00  0.00     0.005 C 
ENDBRANCH  27  28
ENDBRANCH  26  27
ENDBRANCH  25  26
ENDBRANCH  21  24
ENDBRANCH   1  20
TORSDOF 5
ENDMDL
MODEL 9
REMARK VINA RESULT:      -6.4      5.486      8.052
REMARK  5 active torsions:
REMARK  status: ('A' for Active; 'I' for Inactive)
REMARK    1  A    between atoms: C2_2  and  C3_3 
REMARK    2  A    between atoms: C3_3  and  C4_4 
REMARK    3  A    between atoms: C4_4  and  C5_5 
REMARK    4  A    between atoms: C6_6  and  C7_7 
REMARK       I    between atoms: C7_7  and  N1_9 
REMARK    5  A    between atoms: N1_9  and  C8_10 
ROOT
HETATM    1  C8  UNL     1      22.843   5.493  49.948  1.00  0.00     0.129 C 
HETATM    2  C9  UNL     1      21.936   5.427  48.952  1.00  0.00     0.028 C 
HETATM    3  C10 UNL     1      20.999   6.214  48.098  1.00  0.00     0.072 C 
HETATM    4  C11 UNL     1      20.986   7.646  48.378  1.00  0.00    -0.025 A 
HETATM    5  C12 UNL     1      19.990   8.081  49.256  1.00  0.00     0.053 A 
HETATM    6  C13 UNL     1      19.777   9.378  49.670  1.00  0.00     0.138 A 
HETATM    7  F1  UNL     1      18.794   9.713  50.519  1.00  0.00    -0.204 F 
HETATM    8  C14 UNL     1      20.634  10.344  49.164  1.00  0.00     0.074 A 
HETATM    9 CL1  UNL     1      20.393  11.997  49.666  1.00  0.00    -0.081 Cl
HETATM   10  C15 UNL     1      21.625   9.925  48.292  1.00  0.00     0.056 A 
HETATM   11  C16 UNL     1      21.817   8.598  47.889  1.00  0.00     0.037 A 
HETATM   12  N2  UNL     1      22.923   8.532  47.000  1.00  0.00    -0.371 N 
HETATM   13  C17 UNL     1      23.929   7.462  47.008  1.00  0.00     0.272 C 
HETATM   14  N3  UNL     1      24.500   7.324  48.338  1.00  0.00    -0.263 NA
HETATM   15  C18 UNL     1      24.829   6.125  48.764  1.00  0.00     0.231 C 
HETATM   16  N4  UNL     1      25.297   6.605  50.044  1.00  0.00    -0.219 NA
HETATM   17  C19 UNL     1      24.463   6.884  50.968  1.00  0.00     0.201 C 
HETATM   18  N5  UNL     1      23.242   6.695  50.643  1.00  0.00    -0.208 NA
HETATM   19  H16 UNL     1      23.067   9.287  46.262  1.00  0.00     0.161 HD
ENDROOT
BRANCH   1  20
HETATM   20  N1  UNL     1      23.546   4.344  50.476  1.00  0.00    -0.301 N 
HETATM   21  C7  UNL     1      22.817   3.638  51.466  1.00  0.00     0.302 C 
HETATM   22  O1  UNL     1      21.671   4.026  51.809  1.00  0.00    -0.258 OA
HETATM   23  H10 UNL     1      24.494   3.895  50.297  1.00  0.00     0.171 HD
BRANCH  21  24
HETATM   24  C6  UNL     1      23.302   2.463  52.142  1.00  0.00    -0.005 C 
HETATM   25  C5  UNL     1      23.695   1.484  52.725  1.00  0.00    -0.096 C 
BRANCH  25  26
HETATM   26  C4  UNL     1      24.152   0.294  53.445  1.00  0.00     0.094 C 
BRANCH  26  27
HETATM   27  C3  UNL     1      23.116  -0.789  53.447  1.00  0.00     0.012 C 
BRANCH  27  28
HETATM   28  C2  UNL     1      22.014  -0.525  54.450  1.00  0.00    -0.004 C 
HETATM   29  C1  UNL     1      20.992  -1.656  54.312  1.00  0.00     0.005 C 
ENDBRANCH  27  28
ENDBRANCH  26  27
ENDBRANCH  25  26
ENDBRANCH  21  24
ENDBRANCH   1  20
TORSDOF 5
ENDMDL
