MODEL 1
REMARK VINA RESULT:      -8.4      0.000      0.000
REMARK  8 active torsions:
REMARK  status: ('A' for Active; 'I' for Inactive)
REMARK    1  A    between atoms: O1_2  and  C2_3 
REMARK    2  A    between atoms: C4_5  and  N1_6 
REMARK    3  A    between atoms: N1_6  and  C5_7 
REMARK    4  A    between atoms: C7_9  and  C8_10 
REMARK    5  A    between atoms: C8_10  and  N2_11 
REMARK    6  A    between atoms: N2_11  and  O2_13 
REMARK    7  A    between atoms: C16_22  and  N5_23 
REMARK    8  A    between atoms: N5_23  and  C17_24 
ROOT
HETATM    1  C2  UNL     1      27.346   0.542  53.862  1.00  0.00     0.096 A 
HETATM    2  C3  UNL     1      27.228   1.196  52.717  1.00  0.00     0.042 A 
HETATM    3  C4  UNL     1      25.855   1.132  52.179  1.00  0.00     0.145 A 
HETATM    4  C11 UNL     1      25.100   0.320  53.176  1.00  0.00     0.028 A 
HETATM    5  C12 UNL     1      26.029  -0.012  54.166  1.00  0.00     0.100 A 
HETATM    6  N3  UNL     1      25.663  -0.753  55.229  1.00  0.00    -0.256 NA
HETATM    7  C13 UNL     1      24.398  -1.209  55.392  1.00  0.00     0.142 A 
HETATM    8  C14 UNL     1      23.451  -0.898  54.429  1.00  0.00     0.089 A 
HETATM    9  C15 UNL     1      22.100  -1.370  54.578  1.00  0.00     0.103 C 
HETATM   10  N4  UNL     1      21.014  -1.766  54.708  1.00  0.00    -0.191 NA
HETATM   11  C16 UNL     1      23.803  -0.129  53.313  1.00  0.00     0.066 A 
ENDROOT
BRANCH  11  12
HETATM   12  N5  UNL     1      22.848   0.200  52.314  1.00  0.00    -0.354 N 
HETATM   13  H20 UNL     1      23.281  -0.350  51.529  1.00  0.00     0.166 HD
BRANCH  12  14
HETATM   14  C17 UNL     1      21.677   0.957  52.176  1.00  0.00     0.033 A 
HETATM   15  C18 UNL     1      21.719   2.283  52.540  1.00  0.00     0.029 A 
HETATM   16  C19 UNL     1      20.532   2.971  52.376  1.00  0.00     0.004 A 
HETATM   17  C20 UNL     1      19.385   2.384  51.885  1.00  0.00     0.019 A 
HETATM   18  C21 UNL     1      19.373   1.053  51.528  1.00  0.00     0.013 A 
HETATM   19 BR1  UNL     1      17.793   0.245  50.852  1.00  0.00    -0.051 Br
HETATM   20  C22 UNL     1      20.547   0.343  51.682  1.00  0.00     0.048 A 
ENDBRANCH  12  14
ENDBRANCH  11  12
BRANCH   3  21
HETATM   21  N1  UNL     1      25.262   2.434  51.988  1.00  0.00    -0.381 N 
HETATM   22  H6  UNL     1      24.702   3.194  52.439  1.00  0.00     0.160 HD
BRANCH  21  23
HETATM   23  C5  UNL     1      25.438   3.045  50.707  1.00  0.00    -0.001 C 
HETATM   24  C6  UNL     1      24.227   3.035  49.857  1.00  0.00     0.067 C 
HETATM   25  C7  UNL     1      26.462   3.646  50.071  1.00  0.00     0.014 C 
BRANCH  25  26
HETATM   26  C8  UNL     1      27.107   4.339  48.943  1.00  0.00     0.149 C 
BRANCH  26  27
HETATM   27  N2  UNL     1      26.947   5.764  48.939  1.00  0.00    -0.198 NA
HETATM   28  C9  UNL     1      25.624   6.230  48.657  1.00  0.00     0.144 C 
BRANCH  27  29
HETATM   29  O2  UNL     1      27.874   6.290  48.141  1.00  0.00    -0.309 OA
HETATM   30  C10 UNL     1      29.111   5.644  48.218  1.00  0.00     0.229 C 
ENDBRANCH  27  29
ENDBRANCH  26  27
ENDBRANCH  25  26
ENDBRANCH  21  23
ENDBRANCH   3  21
BRANCH   1  31
HETATM   31  O1  UNL     1      28.502   0.412  54.621  1.00  0.00    -0.354 OA
HETATM   32  C1  UNL     1      29.631  -0.227  54.037  1.00  0.00     0.210 C 
ENDBRANCH   1  31
TORSDOF 8
ENDMDL
MODEL 2
REMARK VINA RESULT:      -8.3      3.385      7.300
REMARK  8 active torsions:
REMARK  status: ('A' for Active; 'I' for Inactive)
REMARK    1  A    between atoms: O1_2  and  C2_3 
REMARK    2  A    between atoms: C4_5  and  N1_6 
REMARK    3  A    between atoms: N1_6  and  C5_7 
REMARK    4  A    between atoms: C7_9  and  C8_10 
REMARK    5  A    between atoms: C8_10  and  N2_11 
REMARK    6  A    between atoms: N2_11  and  O2_13 
REMARK    7  A    between atoms: C16_22  and  N5_23 
REMARK    8  A    between atoms: N5_23  and  C17_24 
ROOT
HETATM    1  C2  UNL     1      20.241   0.691  51.740  1.00  0.00     0.096 A 
HETATM    2  C3  UNL     1      21.430   0.156  51.965  1.00  0.00     0.042 A 
HETATM    3  C4  UNL     1      22.510   1.161  51.921  1.00  0.00     0.145 A 
HETATM    4  C11 UNL     1      21.813   2.446  51.626  1.00  0.00     0.028 A 
HETATM    5  C12 UNL     1      20.457   2.120  51.526  1.00  0.00     0.100 A 
HETATM    6  N3  UNL     1      19.542   3.071  51.262  1.00  0.00    -0.256 NA
HETATM    7  C13 UNL     1      19.878   4.370  51.083  1.00  0.00     0.142 A 
HETATM    8  C14 UNL     1      21.214   4.729  51.175  1.00  0.00     0.089 A 
HETATM    9  C15 UNL     1      21.599   6.102  50.988  1.00  0.00     0.103 C 
HETATM   10  N4  UNL     1      21.895   7.216  50.827  1.00  0.00    -0.191 NA
HETATM   11  C16 UNL     1      22.189   3.761  51.448  1.00  0.00     0.066 A 
ENDROOT
BRANCH  11  12
HETATM   12  N5  UNL     1      23.563   4.107  51.546  1.00  0.00    -0.354 N 
HETATM   13  H20 UNL     1      23.559   4.388  52.560  1.00  0.00     0.166 HD
BRANCH  12  14
HETATM   14  C17 UNL     1      24.705   4.150  50.736  1.00  0.00     0.033 A 
HETATM   15  C18 UNL     1      25.480   3.017  50.651  1.00  0.00     0.029 A 
HETATM   16  C19 UNL     1      26.589   3.127  49.834  1.00  0.00     0.004 A 
HETATM   17  C20 UNL     1      26.905   4.281  49.149  1.00  0.00     0.019 A 
HETATM   18  C21 UNL     1      26.110   5.402  49.252  1.00  0.00     0.013 A 
HETATM   19 BR1  UNL     1      26.546   6.991  48.309  1.00  0.00    -0.051 Br
HETATM   20  C22 UNL     1      24.995   5.318  50.063  1.00  0.00     0.048 A 
ENDBRANCH  12  14
ENDBRANCH  11  12
BRANCH   3  21
HETATM   21  N1  UNL     1      23.267   1.231  53.148  1.00  0.00    -0.381 N 
HETATM   22  H6  UNL     1      23.423   1.774  54.028  1.00  0.00     0.160 HD
BRANCH  21  23
HETATM   23  C5  UNL     1      24.230   0.198  53.374  1.00  0.00    -0.001 C 
HETATM   24  C6  UNL     1      23.842  -0.778  54.415  1.00  0.00     0.067 C 
HETATM   25  C7  UNL     1      25.434  -0.112  52.854  1.00  0.00     0.014 C 
BRANCH  25  26
HETATM   26  C8  UNL     1      26.662  -0.915  52.723  1.00  0.00     0.149 C 
BRANCH  26  27
HETATM   27  N2  UNL     1      27.515  -0.907  53.875  1.00  0.00    -0.198 NA
HETATM   28  C9  UNL     1      27.823   0.388  54.399  1.00  0.00     0.144 C 
BRANCH  27  29
HETATM   29  O2  UNL     1      28.594  -1.639  53.605  1.00  0.00    -0.309 OA
HETATM   30  C10 UNL     1      29.790  -0.918  53.670  1.00  0.00     0.229 C 
ENDBRANCH  27  29
ENDBRANCH  26  27
ENDBRANCH  25  26
ENDBRANCH  21  23
ENDBRANCH   3  21
BRANCH   1  31
HETATM   31  O1  UNL     1      19.026   0.018  51.713  1.00  0.00    -0.354 OA
HETATM   32  C1  UNL     1      18.603  -0.670  52.884  1.00  0.00     0.210 C 
ENDBRANCH   1  31
TORSDOF 8
ENDMDL
MODEL 3
REMARK VINA RESULT:      -8.2      2.628      3.741
REMARK  8 active torsions:
REMARK  status: ('A' for Active; 'I' for Inactive)
REMARK    1  A    between atoms: O1_2  and  C2_3 
REMARK    2  A    between atoms: C4_5  and  N1_6 
REMARK    3  A    between atoms: N1_6  and  C5_7 
REMARK    4  A    between atoms: C7_9  and  C8_10 
REMARK    5  A    between atoms: C8_10  and  N2_11 
REMARK    6  A    between atoms: N2_11  and  O2_13 
REMARK    7  A    between atoms: C16_22  and  N5_23 
REMARK    8  A    between atoms: N5_23  and  C17_24 
ROOT
HETATM    1  C2  UNL     1      27.329   1.127  53.139  1.00  0.00     0.096 A 
HETATM    2  C3  UNL     1      26.907   2.130  52.387  1.00  0.00     0.042 A 
HETATM    3  C4  UNL     1      25.435   2.179  52.298  1.00  0.00     0.145 A 
HETATM    4  C11 UNL     1      24.972   1.029  53.126  1.00  0.00     0.028 A 
HETATM    5  C12 UNL     1      26.137   0.426  53.611  1.00  0.00     0.100 A 
HETATM    6  N3  UNL     1      26.068  -0.658  54.405  1.00  0.00    -0.256 NA
HETATM    7  C13 UNL     1      24.888  -1.215  54.770  1.00  0.00     0.142 A 
HETATM    8  C14 UNL     1      23.713  -0.643  54.307  1.00  0.00     0.089 A 
HETATM    9  C15 UNL     1      22.447  -1.214  54.679  1.00  0.00     0.103 C 
HETATM   10  N4  UNL     1      21.430  -1.692  54.983  1.00  0.00    -0.191 NA
HETATM   11  C16 UNL     1      23.754   0.486  53.479  1.00  0.00     0.066 A 
ENDROOT
BRANCH  11  12
HETATM   12  N5  UNL     1      22.562   1.086  52.993  1.00  0.00    -0.354 N 
HETATM   13  H20 UNL     1      22.381   1.712  53.820  1.00  0.00     0.166 HD
BRANCH  12  14
HETATM   14  C17 UNL     1      21.732   1.033  51.866  1.00  0.00     0.033 A 
HETATM   15  C18 UNL     1      20.440   0.591  52.035  1.00  0.00     0.029 A 
HETATM   16  C19 UNL     1      19.677   0.565  50.884  1.00  0.00     0.004 A 
HETATM   17  C20 UNL     1      20.161   0.951  49.652  1.00  0.00     0.019 A 
HETATM   18  C21 UNL     1      21.461   1.390  49.512  1.00  0.00     0.013 A 
HETATM   19 BR1  UNL     1      22.128   1.920  47.816  1.00  0.00    -0.051 Br
HETATM   20  C22 UNL     1      22.245   1.425  50.648  1.00  0.00     0.048 A 
ENDBRANCH  12  14
ENDBRANCH  11  12
BRANCH   3  21
HETATM   21  N1  UNL     1      24.882   3.430  52.761  1.00  0.00    -0.381 N 
HETATM   22  H6  UNL     1      24.833   4.099  53.563  1.00  0.00     0.160 HD
BRANCH  21  23
HETATM   23  C5  UNL     1      24.041   4.143  51.850  1.00  0.00    -0.001 C 
HETATM   24  C6  UNL     1      24.599   4.282  50.488  1.00  0.00     0.067 C 
HETATM   25  C7  UNL     1      22.831   4.731  51.933  1.00  0.00     0.014 C 
BRANCH  25  26
HETATM   26  C8  UNL     1      21.676   5.480  51.411  1.00  0.00     0.149 C 
BRANCH  26  27
HETATM   27  N2  UNL     1      20.719   4.692  50.692  1.00  0.00    -0.198 NA
HETATM   28  C9  UNL     1      20.025   5.376  49.644  1.00  0.00     0.144 C 
BRANCH  27  29
HETATM   29  O2  UNL     1      19.906   4.111  51.573  1.00  0.00    -0.309 OA
HETATM   30  C10 UNL     1      18.580   4.026  51.139  1.00  0.00     0.229 C 
ENDBRANCH  27  29
ENDBRANCH  26  27
ENDBRANCH  25  26
ENDBRANCH  21  23
ENDBRANCH   3  21
BRANCH   1  31
HETATM   31  O1  UNL     1      28.651   0.807  53.422  1.00  0.00    -0.354 OA
HETATM   32  C1  UNL     1      29.337   1.564  54.411  1.00  0.00     0.210 C 
ENDBRANCH   1  31
TORSDOF 8
ENDMDL
MODEL 4
REMARK VINA RESULT:      -8.2      1.946      2.637
REMARK  8 active torsions:
REMARK  status: ('A' for Active; 'I' for Inactive)
REMARK    1  A    between atoms: O1_2  and  C2_3 
REMARK    2  A    between atoms: C4_5  and  N1_6 
REMARK    3  A    between atoms: N1_6  and  C5_7 
REMARK    4  A    between atoms: C7_9  and  C8_10 
REMARK    5  A    between atoms: C8_10  and  N2_11 
REMARK    6  A    between atoms: N2_11  and  O2_13 
REMARK    7  A    between atoms: C16_22  and  N5_23 
REMARK    8  A    between atoms: N5_23  and  C17_24 
ROOT
HETATM    1  C2  UNL     1      27.292   0.362  53.902  1.00  0.00     0.096 A 
HETATM    2  C3  UNL     1      27.222   1.037  52.766  1.00  0.00     0.042 A 
HETATM    3  C4  UNL     1      25.857   1.042  52.205  1.00  0.00     0.145 A 
HETATM    4  C11 UNL     1      25.050   0.249  53.176  1.00  0.00     0.028 A 
HETATM    5  C12 UNL     1      25.947  -0.139  54.176  1.00  0.00     0.100 A 
HETATM    6  N3  UNL     1      25.531  -0.879  55.220  1.00  0.00    -0.256 NA
HETATM    7  C13 UNL     1      24.244  -1.282  55.356  1.00  0.00     0.142 A 
HETATM    8  C14 UNL     1      23.329  -0.915  54.382  1.00  0.00     0.089 A 
HETATM    9  C15 UNL     1      21.956  -1.329  54.502  1.00  0.00     0.103 C 
HETATM   10  N4  UNL     1      20.851  -1.678  54.608  1.00  0.00    -0.191 NA
HETATM   11  C16 UNL     1      23.732  -0.144  53.284  1.00  0.00     0.066 A 
ENDROOT
BRANCH  11  12
HETATM   12  N5  UNL     1      22.810   0.241  52.276  1.00  0.00    -0.354 N 
HETATM   13  H20 UNL     1      23.283  -0.243  51.470  1.00  0.00     0.166 HD
BRANCH  12  14
HETATM   14  C17 UNL     1      21.631   0.987  52.147  1.00  0.00     0.033 A 
HETATM   15  C18 UNL     1      21.627   2.276  52.627  1.00  0.00     0.029 A 
HETATM   16  C19 UNL     1      20.435   2.956  52.466  1.00  0.00     0.004 A 
HETATM   17  C20 UNL     1      19.325   2.395  51.871  1.00  0.00     0.019 A 
HETATM   18  C21 UNL     1      19.358   1.100  51.399  1.00  0.00     0.013 A 
HETATM   19 BR1  UNL     1      17.830   0.327  50.580  1.00  0.00    -0.051 Br
HETATM   20  C22 UNL     1      20.538   0.399  51.547  1.00  0.00     0.048 A 
ENDBRANCH  12  14
ENDBRANCH  11  12
BRANCH   3  21
HETATM   21  N1  UNL     1      25.324   2.372  52.025  1.00  0.00    -0.381 N 
HETATM   22  H6  UNL     1      25.038   3.252  52.512  1.00  0.00     0.160 HD
BRANCH  21  23
HETATM   23  C5  UNL     1      25.022   2.774  50.686  1.00  0.00    -0.001 C 
HETATM   24  C6  UNL     1      26.193   3.243  49.913  1.00  0.00     0.067 C 
HETATM   25  C7  UNL     1      23.903   2.826  49.937  1.00  0.00     0.014 C 
BRANCH  25  26
HETATM   26  C8  UNL     1      23.131   3.103  48.714  1.00  0.00     0.149 C 
BRANCH  26  27
HETATM   27  N2  UNL     1      22.053   4.033  48.879  1.00  0.00    -0.198 NA
HETATM   28  C9  UNL     1      22.230   4.998  49.922  1.00  0.00     0.144 C 
BRANCH  27  29
HETATM   29  O2  UNL     1      20.916   3.347  48.982  1.00  0.00    -0.309 OA
HETATM   30  C10 UNL     1      20.848   2.244  48.127  1.00  0.00     0.229 C 
ENDBRANCH  27  29
ENDBRANCH  26  27
ENDBRANCH  25  26
ENDBRANCH  21  23
ENDBRANCH   3  21
BRANCH   1  31
HETATM   31  O1  UNL     1      28.428   0.169  54.678  1.00  0.00    -0.354 OA
HETATM   32  C1  UNL     1      29.564  -0.443  54.080  1.00  0.00     0.210 C 
ENDBRANCH   1  31
TORSDOF 8
ENDMDL
MODEL 5
REMARK VINA RESULT:      -8.1      2.077      2.578
REMARK  8 active torsions:
REMARK  status: ('A' for Active; 'I' for Inactive)
REMARK    1  A    between atoms: O1_2  and  C2_3 
REMARK    2  A    between atoms: C4_5  and  N1_6 
REMARK    3  A    between atoms: N1_6  and  C5_7 
REMARK    4  A    between atoms: C7_9  and  C8_10 
REMARK    5  A    between atoms: C8_10  and  N2_11 
REMARK    6  A    between atoms: N2_11  and  O2_13 
REMARK    7  A    between atoms: C16_22  and  N5_23 
REMARK    8  A    between atoms: N5_23  and  C17_24 
ROOT
HETATM    1  C2  UNL     1      27.373   1.058  52.868  1.00  0.00     0.096 A 
HETATM    2  C3  UNL     1      26.963   2.044  52.086  1.00  0.00     0.042 A 
HETATM    3  C4  UNL     1      25.492   2.139  52.035  1.00  0.00     0.145 A 
HETATM    4  C11 UNL     1      25.014   1.039  52.921  1.00  0.00     0.028 A 
HETATM    5  C12 UNL     1      26.172   0.417  53.399  1.00  0.00     0.100 A 
HETATM    6  N3  UNL     1      26.089  -0.631  54.238  1.00  0.00    -0.256 NA
HETATM    7  C13 UNL     1      24.902  -1.133  54.657  1.00  0.00     0.142 A 
HETATM    8  C14 UNL     1      23.735  -0.540  54.202  1.00  0.00     0.089 A 
HETATM    9  C15 UNL     1      22.461  -1.052  54.631  1.00  0.00     0.103 C 
HETATM   10  N4  UNL     1      21.438  -1.483  54.981  1.00  0.00    -0.191 NA
HETATM   11  C16 UNL     1      23.789   0.553  53.328  1.00  0.00     0.066 A 
ENDROOT
BRANCH  11  12
HETATM   12  N5  UNL     1      22.605   1.174  52.850  1.00  0.00    -0.354 N 
HETATM   13  H20 UNL     1      22.525   1.906  53.601  1.00  0.00     0.166 HD
BRANCH  12  14
HETATM   14  C17 UNL     1      21.692   1.043  51.795  1.00  0.00     0.033 A 
HETATM   15  C18 UNL     1      22.145   1.272  50.517  1.00  0.00     0.029 A 
HETATM   16  C19 UNL     1      21.195   1.125  49.525  1.00  0.00     0.004 A 
HETATM   17  C20 UNL     1      19.887   0.773  49.784  1.00  0.00     0.019 A 
HETATM   18  C21 UNL     1      19.460   0.549  51.076  1.00  0.00     0.013 A 
HETATM   19 BR1  UNL     1      17.660   0.066  51.433  1.00  0.00    -0.051 Br
HETATM   20  C22 UNL     1      20.392   0.691  52.086  1.00  0.00     0.048 A 
ENDBRANCH  12  14
ENDBRANCH  11  12
BRANCH   3  21
HETATM   21  N1  UNL     1      24.993   3.426  52.461  1.00  0.00    -0.381 N 
HETATM   22  H6  UNL     1      24.999   4.134  53.230  1.00  0.00     0.160 HD
BRANCH  21  23
HETATM   23  C5  UNL     1      24.130   4.118  51.555  1.00  0.00    -0.001 C 
HETATM   24  C6  UNL     1      24.539   4.030  50.137  1.00  0.00     0.067 C 
HETATM   25  C7  UNL     1      23.003   4.847  51.683  1.00  0.00     0.014 C 
BRANCH  25  26
HETATM   26  C8  UNL     1      21.878   5.658  51.187  1.00  0.00     0.149 C 
BRANCH  26  27
HETATM   27  N2  UNL     1      22.254   6.880  50.539  1.00  0.00    -0.198 NA
HETATM   28  C9  UNL     1      22.330   6.817  49.111  1.00  0.00     0.144 C 
BRANCH  27  29
HETATM   29  O2  UNL     1      23.370   7.333  51.108  1.00  0.00    -0.309 OA
HETATM   30  C10 UNL     1      24.105   8.195  50.291  1.00  0.00     0.229 C 
ENDBRANCH  27  29
ENDBRANCH  26  27
ENDBRANCH  25  26
ENDBRANCH  21  23
ENDBRANCH   3  21
BRANCH   1  31
HETATM   31  O1  UNL     1      28.691   0.705  53.128  1.00  0.00    -0.354 OA
HETATM   32  C1  UNL     1      29.315   1.220  54.298  1.00  0.00     0.210 C 
ENDBRANCH   1  31
TORSDOF 8
ENDMDL
MODEL 6
REMARK VINA RESULT:      -7.6      3.147      6.766
REMARK  8 active torsions:
REMARK  status: ('A' for Active; 'I' for Inactive)
REMARK    1  A    between atoms: O1_2  and  C2_3 
REMARK    2  A    between atoms: C4_5  and  N1_6 
REMARK    3  A    between atoms: N1_6  and  C5_7 
REMARK    4  A    between atoms: C7_9  and  C8_10 
REMARK    5  A    between atoms: C8_10  and  N2_11 
REMARK    6  A    between atoms: N2_11  and  O2_13 
REMARK    7  A    between atoms: C16_22  and  N5_23 
REMARK    8  A    between atoms: N5_23  and  C17_24 
ROOT
HETATM    1  C2  UNL     1      25.471  -0.476  53.368  1.00  0.00     0.096 A 
HETATM    2  C3  UNL     1      24.203  -0.657  53.700  1.00  0.00     0.042 A 
HETATM    3  C4  UNL     1      23.322   0.370  53.112  1.00  0.00     0.145 A 
HETATM    4  C11 UNL     1      24.240   1.254  52.339  1.00  0.00     0.028 A 
HETATM    5  C12 UNL     1      25.517   0.712  52.519  1.00  0.00     0.100 A 
HETATM    6  N3  UNL     1      26.591   1.283  51.942  1.00  0.00    -0.256 NA
HETATM    7  C13 UNL     1      26.495   2.393  51.172  1.00  0.00     0.142 A 
HETATM    8  C14 UNL     1      25.244   2.956  50.973  1.00  0.00     0.089 A 
HETATM    9  C15 UNL     1      25.115   4.135  50.159  1.00  0.00     0.103 C 
HETATM   10  N4  UNL     1      25.027   5.093  49.505  1.00  0.00    -0.191 NA
HETATM   11  C16 UNL     1      24.109   2.384  51.559  1.00  0.00     0.066 A 
ENDROOT
BRANCH  11  12
HETATM   12  N5  UNL     1      22.819   2.947  51.369  1.00  0.00    -0.354 N 
HETATM   13  H20 UNL     1      22.916   3.741  52.052  1.00  0.00     0.166 HD
BRANCH  12  14
HETATM   14  C17 UNL     1      21.663   2.714  50.612  1.00  0.00     0.033 A 
HETATM   15  C18 UNL     1      21.777   1.945  49.477  1.00  0.00     0.029 A 
HETATM   16  C19 UNL     1      20.600   1.753  48.780  1.00  0.00     0.004 A 
HETATM   17  C20 UNL     1      19.394   2.286  49.183  1.00  0.00     0.019 A 
HETATM   18  C21 UNL     1      19.308   3.053  50.325  1.00  0.00     0.013 A 
HETATM   19 BR1  UNL     1      17.648   3.787  50.879  1.00  0.00    -0.051 Br
HETATM   20  C22 UNL     1      20.471   3.259  51.040  1.00  0.00     0.048 A 
ENDBRANCH  12  14
ENDBRANCH  11  12
BRANCH   3  21
HETATM   21  N1  UNL     1      22.284  -0.187  52.276  1.00  0.00    -0.381 N 
HETATM   22  H6  UNL     1      22.085  -0.704  51.389  1.00  0.00     0.160 HD
BRANCH  21  23
HETATM   23  C5  UNL     1      20.936  -0.039  52.731  1.00  0.00    -0.001 C 
HETATM   24  C6  UNL     1      20.814   0.379  54.144  1.00  0.00     0.067 C 
HETATM   25  C7  UNL     1      19.720  -0.186  52.170  1.00  0.00     0.014 C 
BRANCH  25  26
HETATM   26  C8  UNL     1      18.248  -0.171  52.159  1.00  0.00     0.149 C 
BRANCH  26  27
HETATM   27  N2  UNL     1      17.629  -0.771  53.304  1.00  0.00    -0.198 NA
HETATM   28  C9  UNL     1      17.908  -2.162  53.493  1.00  0.00     0.144 C 
BRANCH  27  29
HETATM   29  O2  UNL     1      16.327  -0.493  53.274  1.00  0.00    -0.309 OA
HETATM   30  C10 UNL     1      15.646  -1.111  52.222  1.00  0.00     0.229 C 
ENDBRANCH  27  29
ENDBRANCH  26  27
ENDBRANCH  25  26
ENDBRANCH  21  23
ENDBRANCH   3  21
BRANCH   1  31
HETATM   31  O1  UNL     1      26.546  -1.265  53.756  1.00  0.00    -0.354 OA
HETATM   32  C1  UNL     1      27.159  -2.105  52.785  1.00  0.00     0.210 C 
ENDBRANCH   1  31
TORSDOF 8
ENDMDL
MODEL 7
REMARK VINA RESULT:      -7.6      2.220      2.691
REMARK  8 active torsions:
REMARK  status: ('A' for Active; 'I' for Inactive)
REMARK    1  A    between atoms: O1_2  and  C2_3 
REMARK    2  A    between atoms: C4_5  and  N1_6 
REMARK    3  A    between atoms: N1_6  and  C5_7 
REMARK    4  A    between atoms: C7_9  and  C8_10 
REMARK    5  A    between atoms: C8_10  and  N2_11 
REMARK    6  A    between atoms: N2_11  and  O2_13 
REMARK    7  A    between atoms: C16_22  and  N5_23 
REMARK    8  A    between atoms: N5_23  and  C17_24 
ROOT
HETATM    1  C2  UNL     1      27.006   0.494  53.466  1.00  0.00     0.096 A 
HETATM    2  C3  UNL     1      27.294   1.342  52.492  1.00  0.00     0.042 A 
HETATM    3  C4  UNL     1      26.095   1.741  51.729  1.00  0.00     0.145 A 
HETATM    4  C11 UNL     1      24.975   1.002  52.378  1.00  0.00     0.028 A 
HETATM    5  C12 UNL     1      25.564   0.267  53.412  1.00  0.00     0.100 A 
HETATM    6  N3  UNL     1      24.814  -0.520  54.206  1.00  0.00    -0.256 NA
HETATM    7  C13 UNL     1      23.475  -0.643  54.047  1.00  0.00     0.142 A 
HETATM    8  C14 UNL     1      22.859   0.071  53.031  1.00  0.00     0.089 A 
HETATM    9  C15 UNL     1      21.437  -0.041  52.841  1.00  0.00     0.103 C 
HETATM   10  N4  UNL     1      20.288  -0.148  52.695  1.00  0.00    -0.191 NA
HETATM   11  C16 UNL     1      23.612   0.899  52.190  1.00  0.00     0.066 A 
ENDROOT
BRANCH  11  12
HETATM   12  N5  UNL     1      23.001   1.638  51.143  1.00  0.00    -0.354 N 
HETATM   13  H20 UNL     1      22.937   0.854  50.445  1.00  0.00     0.166 HD
BRANCH  12  14
HETATM   14  C17 UNL     1      22.552   2.940  50.887  1.00  0.00     0.033 A 
HETATM   15  C18 UNL     1      22.220   3.732  51.962  1.00  0.00     0.029 A 
HETATM   16  C19 UNL     1      21.788   5.004  51.640  1.00  0.00     0.004 A 
HETATM   17  C20 UNL     1      21.692   5.458  50.341  1.00  0.00     0.019 A 
HETATM   18  C21 UNL     1      22.031   4.642  49.283  1.00  0.00     0.013 A 
HETATM   19 BR1  UNL     1      21.899   5.267  47.496  1.00  0.00    -0.051 Br
HETATM   20  C22 UNL     1      22.467   3.366  49.579  1.00  0.00     0.048 A 
ENDBRANCH  12  14
ENDBRANCH  11  12
BRANCH   3  21
HETATM   21  N1  UNL     1      25.871   3.168  51.735  1.00  0.00    -0.381 N 
HETATM   22  H6  UNL     1      25.645   3.996  52.332  1.00  0.00     0.160 HD
BRANCH  21  23
HETATM   23  C5  UNL     1      25.967   3.844  50.479  1.00  0.00    -0.001 C 
HETATM   24  C6  UNL     1      26.580   3.040  49.400  1.00  0.00     0.067 C 
HETATM   25  C7  UNL     1      25.622   5.066  50.026  1.00  0.00     0.014 C 
BRANCH  25  26
HETATM   26  C8  UNL     1      25.502   6.125  49.010  1.00  0.00     0.149 C 
BRANCH  26  27
HETATM   27  N2  UNL     1      24.818   7.307  49.448  1.00  0.00    -0.198 NA
HETATM   28  C9  UNL     1      24.354   8.168  48.403  1.00  0.00     0.144 C 
BRANCH  27  29
HETATM   29  O2  UNL     1      25.583   7.928  50.343  1.00  0.00    -0.309 OA
HETATM   30  C10 UNL     1      26.667   8.608  49.780  1.00  0.00     0.229 C 
ENDBRANCH  27  29
ENDBRANCH  26  27
ENDBRANCH  25  26
ENDBRANCH  21  23
ENDBRANCH   3  21
BRANCH   1  31
HETATM   31  O1  UNL     1      27.906  -0.070  54.361  1.00  0.00    -0.354 OA
HETATM   32  C1  UNL     1      29.084  -0.680  53.848  1.00  0.00     0.210 C 
ENDBRANCH   1  31
TORSDOF 8
ENDMDL
MODEL 8
REMARK VINA RESULT:      -7.6      3.212      5.670
REMARK  8 active torsions:
REMARK  status: ('A' for Active; 'I' for Inactive)
REMARK    1  A    between atoms: O1_2  and  C2_3 
REMARK    2  A    between atoms: C4_5  and  N1_6 
REMARK    3  A    between atoms: N1_6  and  C5_7 
REMARK    4  A    between atoms: C7_9  and  C8_10 
REMARK    5  A    between atoms: C8_10  and  N2_11 
REMARK    6  A    between atoms: N2_11  and  O2_13 
REMARK    7  A    between atoms: C16_22  and  N5_23 
REMARK    8  A    between atoms: N5_23  and  C17_24 
ROOT
HETATM    1  C2  UNL     1      19.735   1.703  50.740  1.00  0.00     0.096 A 
HETATM    2  C3  UNL     1      20.672   2.575  50.402  1.00  0.00     0.042 A 
HETATM    3  C4  UNL     1      21.892   2.426  51.218  1.00  0.00     0.145 A 
HETATM    4  C11 UNL     1      21.585   1.303  52.149  1.00  0.00     0.028 A 
HETATM    5  C12 UNL     1      20.285   0.899  51.829  1.00  0.00     0.100 A 
HETATM    6  N3  UNL     1      19.698  -0.112  52.496  1.00  0.00    -0.256 NA
HETATM    7  C13 UNL     1      20.323  -0.781  53.495  1.00  0.00     0.142 A 
HETATM    8  C14 UNL     1      21.613  -0.405  53.838  1.00  0.00     0.089 A 
HETATM    9  C15 UNL     1      22.300  -1.098  54.895  1.00  0.00     0.103 C 
HETATM   10  N4  UNL     1      22.839  -1.663  55.758  1.00  0.00    -0.191 NA
HETATM   11  C16 UNL     1      22.249   0.643  53.162  1.00  0.00     0.066 A 
ENDROOT
BRANCH  11  12
HETATM   12  N5  UNL     1      23.570   1.043  53.499  1.00  0.00    -0.354 N 
HETATM   13  H20 UNL     1      23.312   1.881  54.079  1.00  0.00     0.166 HD
BRANCH  12  14
HETATM   14  C17 UNL     1      24.891   0.639  53.266  1.00  0.00     0.033 A 
HETATM   15  C18 UNL     1      25.103  -0.632  52.785  1.00  0.00     0.029 A 
HETATM   16  C19 UNL     1      26.427  -0.965  52.576  1.00  0.00     0.004 A 
HETATM   17  C20 UNL     1      27.468  -0.096  52.827  1.00  0.00     0.019 A 
HETATM   18  C21 UNL     1      27.226   1.173  53.309  1.00  0.00     0.013 A 
HETATM   19 BR1  UNL     1      28.659   2.369  53.654  1.00  0.00    -0.051 Br
HETATM   20  C22 UNL     1      25.910   1.530  53.526  1.00  0.00     0.048 A 
ENDBRANCH  12  14
ENDBRANCH  11  12
BRANCH   3  21
HETATM   21  N1  UNL     1      23.071   2.161  50.428  1.00  0.00    -0.381 N 
HETATM   22  H6  UNL     1      23.524   1.492  49.765  1.00  0.00     0.160 HD
BRANCH  21  23
HETATM   23  C5  UNL     1      24.122   3.129  50.488  1.00  0.00    -0.001 C 
HETATM   24  C6  UNL     1      24.019   4.070  51.625  1.00  0.00     0.067 C 
HETATM   25  C7  UNL     1      25.214   3.397  49.745  1.00  0.00     0.014 C 
BRANCH  25  26
HETATM   26  C8  UNL     1      26.437   4.137  49.393  1.00  0.00     0.149 C 
BRANCH  26  27
HETATM   27  N2  UNL     1      26.269   5.555  49.264  1.00  0.00    -0.198 NA
HETATM   28  C9  UNL     1      25.062   5.971  48.616  1.00  0.00     0.144 C 
BRANCH  27  29
HETATM   29  O2  UNL     1      27.368   6.061  48.708  1.00  0.00    -0.309 OA
HETATM   30  C10 UNL     1      27.139   7.231  47.978  1.00  0.00     0.229 C 
ENDBRANCH  27  29
ENDBRANCH  26  27
ENDBRANCH  25  26
ENDBRANCH  21  23
ENDBRANCH   3  21
BRANCH   1  31
HETATM   31  O1  UNL     1      18.476   1.581  50.167  1.00  0.00    -0.354 OA
HETATM   32  C1  UNL     1      17.369   2.189  50.822  1.00  0.00     0.210 C 
ENDBRANCH   1  31
TORSDOF 8
ENDMDL
MODEL 9
REMARK VINA RESULT:      -7.5      3.516      5.990
REMARK  8 active torsions:
REMARK  status: ('A' for Active; 'I' for Inactive)
REMARK    1  A    between atoms: O1_2  and  C2_3 
REMARK    2  A    between atoms: C4_5  and  N1_6 
REMARK    3  A    between atoms: N1_6  and  C5_7 
REMARK    4  A    between atoms: C7_9  and  C8_10 
REMARK    5  A    between atoms: C8_10  and  N2_11 
REMARK    6  A    between atoms: N2_11  and  O2_13 
REMARK    7  A    between atoms: C16_22  and  N5_23 
REMARK    8  A    between atoms: N5_23  and  C17_24 
ROOT
HETATM    1  C2  UNL     1      18.263   1.563  50.711  1.00  0.00     0.096 A 
HETATM    2  C3  UNL     1      19.199   2.171  50.000  1.00  0.00     0.042 A 
HETATM    3  C4  UNL     1      20.558   1.797  50.435  1.00  0.00     0.145 A 
HETATM    4  C11 UNL     1      20.343   0.839  51.556  1.00  0.00     0.028 A 
HETATM    5  C12 UNL     1      18.955   0.726  51.688  1.00  0.00     0.100 A 
HETATM    6  N3  UNL     1      18.419  -0.077  52.626  1.00  0.00    -0.256 NA
HETATM    7  C13 UNL     1      19.180  -0.805  53.477  1.00  0.00     0.142 A 
HETATM    8  C14 UNL     1      20.560  -0.717  53.374  1.00  0.00     0.089 A 
HETATM    9  C15 UNL     1      21.392  -1.480  54.266  1.00  0.00     0.103 C 
HETATM   10  N4  UNL     1      22.051  -2.097  54.999  1.00  0.00    -0.191 NA
HETATM   11  C16 UNL     1      21.147   0.109  52.408  1.00  0.00     0.066 A 
ENDROOT
BRANCH  11  12
HETATM   12  N5  UNL     1      22.558   0.214  52.286  1.00  0.00    -0.354 N 
HETATM   13  H20 UNL     1      22.690  -0.561  51.587  1.00  0.00     0.166 HD
BRANCH  12  14
HETATM   14  C17 UNL     1      23.611   0.980  52.802  1.00  0.00     0.033 A 
HETATM   15  C18 UNL     1      23.463   2.347  52.831  1.00  0.00     0.029 A 
HETATM   16  C19 UNL     1      24.537   3.041  53.353  1.00  0.00     0.004 A 
HETATM   17  C20 UNL     1      25.679   2.421  53.814  1.00  0.00     0.019 A 
HETATM   18  C21 UNL     1      25.801   1.048  53.773  1.00  0.00     0.013 A 
HETATM   19 BR1  UNL     1      27.373   0.194  54.407  1.00  0.00    -0.051 Br
HETATM   20  C22 UNL     1      24.740   0.331  53.255  1.00  0.00     0.048 A 
ENDBRANCH  12  14
ENDBRANCH  11  12
BRANCH   3  21
HETATM   21  N1  UNL     1      21.350   1.216  49.377  1.00  0.00    -0.381 N 
HETATM   22  H6  UNL     1      21.475   0.379  48.762  1.00  0.00     0.160 HD
BRANCH  21  23
HETATM   23  C5  UNL     1      22.437   1.999  48.875  1.00  0.00    -0.001 C 
HETATM   24  C6  UNL     1      22.505   2.072  47.400  1.00  0.00     0.067 C 
HETATM   25  C7  UNL     1      23.437   2.709  49.435  1.00  0.00     0.014 C 
BRANCH  25  26
HETATM   26  C8  UNL     1      24.634   3.566  49.416  1.00  0.00     0.149 C 
BRANCH  26  27
HETATM   27  N2  UNL     1      24.534   4.760  50.203  1.00  0.00    -0.198 NA
HETATM   28  C9  UNL     1      23.356   5.542  49.983  1.00  0.00     0.144 C 
BRANCH  27  29
HETATM   29  O2  UNL     1      25.662   5.453  50.062  1.00  0.00    -0.309 OA
HETATM   30  C10 UNL     1      26.510   4.949  49.072  1.00  0.00     0.229 C 
ENDBRANCH  27  29
ENDBRANCH  26  27
ENDBRANCH  25  26
ENDBRANCH  21  23
ENDBRANCH   3  21
BRANCH   1  31
HETATM   31  O1  UNL     1      16.890   1.699  50.554  1.00  0.00    -0.354 OA
HETATM   32  C1  UNL     1      16.260   2.872  51.056  1.00  0.00     0.210 C 
ENDBRANCH   1  31
TORSDOF 8
ENDMDL
