MODEL 1
REMARK VINA RESULT:      -7.7      0.000      0.000
REMARK  6 active torsions:
REMARK  status: ('A' for Active; 'I' for Inactive)
REMARK    1  A    between atoms: N1_1  and  C1_2 
REMARK    2  A    between atoms: C2_4  and  N3_5 
REMARK    3  A    between atoms: N3_5  and  C3_6 
REMARK    4  A    between atoms: C4_7  and  C5_9 
REMARK    5  A    between atoms: C7_12  and  C8_13 
REMARK    6  A    between atoms: C8_13  and  C9_14 
ROOT
HETATM    1  C1  UNL     1      24.305   6.006  51.179  1.00  0.00     0.718 C 
HETATM    2  N2  UNL     1      25.098   5.844  50.146  1.00  0.00    -0.076 NA
HETATM    3  C2  UNL     1      25.398   4.469  49.769  1.00  0.00     0.250 C 
HETATM    4  C6  UNL     1      24.086   3.763  49.784  1.00  0.00     0.049 C 
HETATM    5  C7  UNL     1      22.754   4.001  49.884  1.00  0.00     0.039 C 
HETATM    6  N4  UNL     1      22.314   5.346  50.040  1.00  0.00    -0.248 NA
HETATM    7  C15 UNL     1      21.859   5.631  51.223  1.00  0.00     0.120 C 
HETATM    8  C16 UNL     1      22.527   5.053  52.185  1.00  0.00     0.139 C 
HETATM    9  N5  UNL     1      23.773   4.852  51.883  1.00  0.00    -0.059 NA
ENDROOT
BRANCH   5  10
HETATM   10  C8  UNL     1      21.884   2.767  49.823  1.00  0.00     0.099 C 
BRANCH  10  11
HETATM   11  C9  UNL     1      21.870   1.967  51.039  1.00  0.00    -0.031 A 
HETATM   12  C10 UNL     1      22.948   1.193  51.435  1.00  0.00     0.011 A 
HETATM   13  C11 UNL     1      22.932   0.453  52.619  1.00  0.00     0.024 A 
HETATM   14  C12 UNL     1      21.806   0.480  53.445  1.00  0.00     0.035 A 
HETATM   15 CL2  UNL     1      21.744  -0.431  54.938  1.00  0.00    -0.084 Cl
HETATM   16  C13 UNL     1      20.763   1.253  53.022  1.00  0.00     0.048 A 
HETATM   17  C14 UNL     1      20.735   1.998  51.860  1.00  0.00     0.042 A 
HETATM   18 CL3  UNL     1      19.257   2.899  51.479  1.00  0.00    -0.084 Cl
ENDBRANCH  10  11
ENDBRANCH   5  10
BRANCH   3  19
HETATM   19  N3  UNL     1      26.344   3.907  50.704  1.00  0.00    -0.370 N 
HETATM   20  H4  UNL     1      27.075   4.090  51.456  1.00  0.00     0.161 HD
BRANCH  19  21
HETATM   21  C3  UNL     1      26.481   2.495  50.767  1.00  0.00     0.124 C 
HETATM   22  C4  UNL     1      26.706   1.666  51.785  1.00  0.00     0.122 C 
HETATM   23  F1  UNL     1      26.818   0.299  51.705  1.00  0.00    -0.208 F 
BRANCH  22  24
HETATM   24  C5  UNL     1      26.885   2.023  53.221  1.00  0.00     0.186 C 
HETATM   25 CL1  UNL     1      28.553   2.520  53.584  1.00  0.00    -0.123 Cl
ENDBRANCH  22  24
ENDBRANCH  19  21
ENDBRANCH   3  19
BRANCH   1  26
HETATM   26  N1  UNL     1      23.968   7.334  51.602  1.00  0.00    -0.231 N 
HETATM   27  H1  UNL     1      24.276   7.634  52.560  1.00  0.00     0.174 HD
HETATM   28  H2  UNL     1      23.440   7.876  50.892  1.00  0.00     0.174 HD
ENDBRANCH   1  26
TORSDOF 6
ENDMDL
MODEL 2
REMARK VINA RESULT:      -7.5      3.059      5.010
REMARK  6 active torsions:
REMARK  status: ('A' for Active; 'I' for Inactive)
REMARK    1  A    between atoms: N1_1  and  C1_2 
REMARK    2  A    between atoms: C2_4  and  N3_5 
REMARK    3  A    between atoms: N3_5  and  C3_6 
REMARK    4  A    between atoms: C4_7  and  C5_9 
REMARK    5  A    between atoms: C7_12  and  C8_13 
REMARK    6  A    between atoms: C8_13  and  C9_14 
ROOT
HETATM    1  C1  UNL     1      23.462   4.457  50.065  1.00  0.00     0.718 C 
HETATM    2  N2  UNL     1      24.244   3.767  49.269  1.00  0.00    -0.076 NA
HETATM    3  C2  UNL     1      25.623   3.592  49.707  1.00  0.00     0.250 C 
HETATM    4  C6  UNL     1      25.532   3.197  51.141  1.00  0.00     0.049 C 
HETATM    5  C7  UNL     1      24.630   2.824  52.084  1.00  0.00     0.039 C 
HETATM    6  N4  UNL     1      23.257   2.747  51.716  1.00  0.00    -0.248 NA
HETATM    7  C15 UNL     1      22.510   3.685  52.215  1.00  0.00     0.120 C 
HETATM    8  C16 UNL     1      23.104   4.848  52.255  1.00  0.00     0.139 C 
HETATM    9  N5  UNL     1      23.979   5.000  51.309  1.00  0.00    -0.059 NA
ENDROOT
BRANCH   5  10
HETATM   10  C8  UNL     1      25.218   2.539  53.446  1.00  0.00     0.099 C 
BRANCH  10  11
HETATM   11  C9  UNL     1      26.382   1.665  53.440  1.00  0.00    -0.031 A 
HETATM   12  C10 UNL     1      27.677   2.146  53.539  1.00  0.00     0.011 A 
HETATM   13  C11 UNL     1      28.782   1.293  53.563  1.00  0.00     0.024 A 
HETATM   14  C12 UNL     1      28.601  -0.090  53.486  1.00  0.00     0.035 A 
HETATM   15 CL2  UNL     1      29.958  -1.195  53.513  1.00  0.00    -0.084 Cl
HETATM   16  C13 UNL     1      27.310  -0.527  53.388  1.00  0.00     0.048 A 
HETATM   17  C14 UNL     1      26.190   0.279  53.360  1.00  0.00     0.042 A 
HETATM   18 CL3  UNL     1      24.606  -0.497  53.185  1.00  0.00    -0.084 Cl
ENDBRANCH  10  11
ENDBRANCH   5  10
BRANCH   3  19
HETATM   19  N3  UNL     1      26.352   4.823  49.513  1.00  0.00    -0.370 N 
HETATM   20  H4  UNL     1      26.391   5.873  49.673  1.00  0.00     0.161 HD
BRANCH  19  21
HETATM   21  C3  UNL     1      27.583   4.779  48.807  1.00  0.00     0.124 C 
HETATM   22  C4  UNL     1      28.360   5.740  48.307  1.00  0.00     0.122 C 
HETATM   23  F1  UNL     1      29.543   5.556  47.637  1.00  0.00    -0.208 F 
BRANCH  22  24
HETATM   24  C5  UNL     1      28.126   7.211  48.361  1.00  0.00     0.186 C 
HETATM   25 CL1  UNL     1      26.777   7.713  47.317  1.00  0.00    -0.123 Cl
ENDBRANCH  22  24
ENDBRANCH  19  21
ENDBRANCH   3  19
BRANCH   1  26
HETATM   26  N1  UNL     1      22.093   4.665  49.693  1.00  0.00    -0.231 N 
HETATM   27  H1  UNL     1      21.386   3.961  50.019  1.00  0.00     0.174 HD
HETATM   28  H2  UNL     1      21.942   5.520  49.123  1.00  0.00     0.174 HD
ENDBRANCH   1  26
TORSDOF 6
ENDMDL
MODEL 3
REMARK VINA RESULT:      -7.4      2.502      4.003
REMARK  6 active torsions:
REMARK  status: ('A' for Active; 'I' for Inactive)
REMARK    1  A    between atoms: N1_1  and  C1_2 
REMARK    2  A    between atoms: C2_4  and  N3_5 
REMARK    3  A    between atoms: N3_5  and  C3_6 
REMARK    4  A    between atoms: C4_7  and  C5_9 
REMARK    5  A    between atoms: C7_12  and  C8_13 
REMARK    6  A    between atoms: C8_13  and  C9_14 
ROOT
HETATM    1  C1  UNL     1      25.650   2.267  52.015  1.00  0.00     0.718 C 
HETATM    2  N2  UNL     1      25.873   1.031  51.634  1.00  0.00    -0.076 NA
HETATM    3  C2  UNL     1      25.484  -0.016  52.571  1.00  0.00     0.250 C 
HETATM    4  C6  UNL     1      24.116   0.357  53.030  1.00  0.00     0.049 C 
HETATM    5  C7  UNL     1      23.109   1.226  52.765  1.00  0.00     0.039 C 
HETATM    6  N4  UNL     1      23.284   2.171  51.714  1.00  0.00    -0.248 NA
HETATM    7  C15 UNL     1      23.450   3.396  52.112  1.00  0.00     0.120 C 
HETATM    8  C16 UNL     1      24.172   3.492  53.196  1.00  0.00     0.139 C 
HETATM    9  N5  UNL     1      25.044   2.537  53.307  1.00  0.00    -0.059 NA
ENDROOT
BRANCH   5  10
HETATM   10  C8  UNL     1      21.896   1.079  53.653  1.00  0.00     0.099 C 
BRANCH  10  11
HETATM   11  C9  UNL     1      20.662   0.744  52.956  1.00  0.00    -0.031 A 
HETATM   12  C10 UNL     1      20.059   1.603  52.052  1.00  0.00     0.011 A 
HETATM   13  C11 UNL     1      18.893   1.256  51.368  1.00  0.00     0.024 A 
HETATM   14  C12 UNL     1      18.298   0.010  51.586  1.00  0.00     0.035 A 
HETATM   15 CL2  UNL     1      16.836  -0.465  50.750  1.00  0.00    -0.084 Cl
HETATM   16  C13 UNL     1      18.920  -0.808  52.484  1.00  0.00     0.048 A 
HETATM   17  C14 UNL     1      20.072  -0.507  53.182  1.00  0.00     0.042 A 
HETATM   18 CL3  UNL     1      20.689  -1.703  54.337  1.00  0.00    -0.084 Cl
ENDBRANCH  10  11
ENDBRANCH   5  10
BRANCH   3  19
HETATM   19  N3  UNL     1      26.438  -0.075  53.653  1.00  0.00    -0.370 N 
HETATM   20  H4  UNL     1      26.633   0.100  54.683  1.00  0.00     0.161 HD
BRANCH  19  21
HETATM   21  C3  UNL     1      27.746  -0.558  53.380  1.00  0.00     0.124 C 
HETATM   22  C4  UNL     1      28.953  -0.097  53.707  1.00  0.00     0.122 C 
HETATM   23  F1  UNL     1      30.155  -0.670  53.373  1.00  0.00    -0.208 F 
BRANCH  22  24
HETATM   24  C5  UNL     1      29.271   1.126  54.498  1.00  0.00     0.186 C 
HETATM   25 CL1  UNL     1      28.807   2.614  53.644  1.00  0.00    -0.123 Cl
ENDBRANCH  22  24
ENDBRANCH  19  21
ENDBRANCH   3  19
BRANCH   1  26
HETATM   26  N1  UNL     1      26.009   3.345  51.140  1.00  0.00    -0.231 N 
HETATM   27  H1  UNL     1      25.795   4.322  51.457  1.00  0.00     0.174 HD
HETATM   28  H2  UNL     1      26.457   3.032  50.257  1.00  0.00     0.174 HD
ENDBRANCH   1  26
TORSDOF 6
ENDMDL
MODEL 4
REMARK VINA RESULT:      -7.3      2.779      5.141
REMARK  6 active torsions:
REMARK  status: ('A' for Active; 'I' for Inactive)
REMARK    1  A    between atoms: N1_1  and  C1_2 
REMARK    2  A    between atoms: C2_4  and  N3_5 
REMARK    3  A    between atoms: N3_5  and  C3_6 
REMARK    4  A    between atoms: C4_7  and  C5_9 
REMARK    5  A    between atoms: C7_12  and  C8_13 
REMARK    6  A    between atoms: C8_13  and  C9_14 
ROOT
HETATM    1  C1  UNL     1      22.072   2.587  49.987  1.00  0.00     0.718 C 
HETATM    2  N2  UNL     1      23.053   2.693  49.121  1.00  0.00    -0.076 NA
HETATM    3  C2  UNL     1      24.165   3.553  49.504  1.00  0.00     0.250 C 
HETATM    4  C6  UNL     1      24.487   3.177  50.909  1.00  0.00     0.049 C 
HETATM    5  C7  UNL     1      24.196   2.244  51.851  1.00  0.00     0.039 C 
HETATM    6  N4  UNL     1      23.275   1.210  51.521  1.00  0.00    -0.248 NA
HETATM    7  C15 UNL     1      22.119   1.310  52.107  1.00  0.00     0.120 C 
HETATM    8  C16 UNL     1      21.700   2.544  52.210  1.00  0.00     0.139 C 
HETATM    9  N5  UNL     1      22.129   3.303  51.250  1.00  0.00    -0.059 NA
ENDROOT
BRANCH   5  10
HETATM   10  C8  UNL     1      24.906   2.434  53.171  1.00  0.00     0.099 C 
BRANCH  10  11
HETATM   11  C9  UNL     1      26.141   1.678  53.318  1.00  0.00    -0.031 A 
HETATM   12  C10 UNL     1      27.385   2.217  53.033  1.00  0.00     0.011 A 
HETATM   13  C11 UNL     1      28.563   1.489  53.207  1.00  0.00     0.024 A 
HETATM   14  C12 UNL     1      28.512   0.176  53.683  1.00  0.00     0.035 A 
HETATM   15 CL2  UNL     1      29.964  -0.771  53.917  1.00  0.00    -0.084 Cl
HETATM   16  C13 UNL     1      27.268  -0.321  53.952  1.00  0.00     0.048 A 
HETATM   17  C14 UNL     1      26.079   0.361  53.794  1.00  0.00     0.042 A 
HETATM   18 CL3  UNL     1      24.569  -0.492  54.164  1.00  0.00    -0.084 Cl
ENDBRANCH  10  11
ENDBRANCH   5  10
BRANCH   3  19
HETATM   19  N3  UNL     1      23.773   4.936  49.373  1.00  0.00    -0.370 N 
HETATM   20  H4  UNL     1      23.093   5.637  48.951  1.00  0.00     0.161 HD
BRANCH  19  21
HETATM   21  C3  UNL     1      24.539   5.926  50.044  1.00  0.00     0.124 C 
HETATM   22  C4  UNL     1      25.705   6.502  49.750  1.00  0.00     0.122 C 
HETATM   23  F1  UNL     1      26.343   7.460  50.498  1.00  0.00    -0.208 F 
BRANCH  22  24
HETATM   24  C5  UNL     1      26.568   6.244  48.563  1.00  0.00     0.186 C 
HETATM   25 CL1  UNL     1      27.502   4.740  48.730  1.00  0.00    -0.123 Cl
ENDBRANCH  22  24
ENDBRANCH  19  21
ENDBRANCH   3  19
BRANCH   1  26
HETATM   26  N1  UNL     1      20.947   1.755  49.673  1.00  0.00    -0.231 N 
HETATM   27  H1  UNL     1      20.451   1.929  48.765  1.00  0.00     0.174 HD
HETATM   28  H2  UNL     1      20.738   1.045  50.402  1.00  0.00     0.174 HD
ENDBRANCH   1  26
TORSDOF 6
ENDMDL
MODEL 5
REMARK VINA RESULT:      -7.0      2.938      5.204
REMARK  6 active torsions:
REMARK  status: ('A' for Active; 'I' for Inactive)
REMARK    1  A    between atoms: N1_1  and  C1_2 
REMARK    2  A    between atoms: C2_4  and  N3_5 
REMARK    3  A    between atoms: N3_5  and  C3_6 
REMARK    4  A    between atoms: C4_7  and  C5_9 
REMARK    5  A    between atoms: C7_12  and  C8_13 
REMARK    6  A    between atoms: C8_13  and  C9_14 
ROOT
HETATM    1  C1  UNL     1      20.256   1.734  49.423  1.00  0.00     0.718 C 
HETATM    2  N2  UNL     1      21.168   1.508  48.508  1.00  0.00    -0.076 NA
HETATM    3  C2  UNL     1      22.424   2.231  48.652  1.00  0.00     0.250 C 
HETATM    4  C6  UNL     1      22.798   2.088  50.088  1.00  0.00     0.049 C 
HETATM    5  C7  UNL     1      22.446   1.416  51.213  1.00  0.00     0.039 C 
HETATM    6  N4  UNL     1      21.356   0.503  51.147  1.00  0.00    -0.248 NA
HETATM    7  C15 UNL     1      20.279   0.903  51.755  1.00  0.00     0.120 C 
HETATM    8  C16 UNL     1      20.060   2.185  51.623  1.00  0.00     0.139 C 
HETATM    9  N5  UNL     1      20.521   2.663  50.509  1.00  0.00    -0.059 NA
ENDROOT
BRANCH   5  10
HETATM   10  C8  UNL     1      23.280   1.740  52.430  1.00  0.00     0.099 C 
BRANCH  10  11
HETATM   11  C9  UNL     1      24.505   0.964  52.559  1.00  0.00    -0.031 A 
HETATM   12  C10 UNL     1      25.681   1.314  51.916  1.00  0.00     0.011 A 
HETATM   13  C11 UNL     1      26.856   0.577  52.073  1.00  0.00     0.024 A 
HETATM   14  C12 UNL     1      26.871  -0.551  52.898  1.00  0.00     0.035 A 
HETATM   15 CL2  UNL     1      28.322  -1.502  53.124  1.00  0.00    -0.084 Cl
HETATM   16  C13 UNL     1      25.693  -0.865  53.514  1.00  0.00     0.048 A 
HETATM   17  C14 UNL     1      24.509  -0.166  53.388  1.00  0.00     0.042 A 
HETATM   18 CL3  UNL     1      23.083  -0.775  54.246  1.00  0.00    -0.084 Cl
ENDBRANCH  10  11
ENDBRANCH   5  10
BRANCH   3  19
HETATM   19  N3  UNL     1      22.237   3.608  48.260  1.00  0.00    -0.370 N 
HETATM   20  H4  UNL     1      21.596   4.332  47.816  1.00  0.00     0.161 HD
BRANCH  19  21
HETATM   21  C3  UNL     1      23.285   4.534  48.507  1.00  0.00     0.124 C 
HETATM   22  C4  UNL     1      23.372   5.587  49.320  1.00  0.00     0.122 C 
HETATM   23  F1  UNL     1      24.462   6.410  49.463  1.00  0.00    -0.208 F 
BRANCH  22  24
HETATM   24  C5  UNL     1      22.325   6.105  50.245  1.00  0.00     0.186 C 
HETATM   25 CL1  UNL     1      22.400   5.327  51.842  1.00  0.00    -0.123 Cl
ENDBRANCH  22  24
ENDBRANCH  19  21
ENDBRANCH   3  19
BRANCH   1  26
HETATM   26  N1  UNL     1      18.997   1.053  49.341  1.00  0.00    -0.231 N 
HETATM   27  H1  UNL     1      18.502   1.053  48.415  1.00  0.00     0.174 HD
HETATM   28  H2  UNL     1      18.700   0.617  50.235  1.00  0.00     0.174 HD
ENDBRANCH   1  26
TORSDOF 6
ENDMDL
MODEL 6
REMARK VINA RESULT:      -6.9      2.814      3.281
REMARK  6 active torsions:
REMARK  status: ('A' for Active; 'I' for Inactive)
REMARK    1  A    between atoms: N1_1  and  C1_2 
REMARK    2  A    between atoms: C2_4  and  N3_5 
REMARK    3  A    between atoms: N3_5  and  C3_6 
REMARK    4  A    between atoms: C4_7  and  C5_9 
REMARK    5  A    between atoms: C7_12  and  C8_13 
REMARK    6  A    between atoms: C8_13  and  C9_14 
ROOT
HETATM    1  C1  UNL     1      23.392   5.969  50.834  1.00  0.00     0.718 C 
HETATM    2  N2  UNL     1      23.752   5.846  49.577  1.00  0.00    -0.076 NA
HETATM    3  C2  UNL     1      24.737   4.813  49.284  1.00  0.00     0.250 C 
HETATM    4  C6  UNL     1      24.270   3.604  50.018  1.00  0.00     0.049 C 
HETATM    5  C7  UNL     1      23.205   3.131  50.714  1.00  0.00     0.039 C 
HETATM    6  N4  UNL     1      22.075   3.980  50.887  1.00  0.00    -0.248 NA
HETATM    7  C15 UNL     1      21.919   4.432  52.095  1.00  0.00     0.120 C 
HETATM    8  C16 UNL     1      23.047   4.728  52.683  1.00  0.00     0.139 C 
HETATM    9  N5  UNL     1      23.967   5.103  51.848  1.00  0.00    -0.059 NA
ENDROOT
BRANCH   5  10
HETATM   10  C8  UNL     1      23.366   1.724  51.239  1.00  0.00     0.099 C 
BRANCH  10  11
HETATM   11  C9  UNL     1      22.138   1.101  51.711  1.00  0.00    -0.031 A 
HETATM   12  C10 UNL     1      21.869   0.906  53.056  1.00  0.00     0.011 A 
HETATM   13  C11 UNL     1      20.674   0.335  53.495  1.00  0.00     0.024 A 
HETATM   14  C12 UNL     1      19.704  -0.059  52.570  1.00  0.00     0.035 A 
HETATM   15 CL2  UNL     1      18.192  -0.778  53.077  1.00  0.00    -0.084 Cl
HETATM   16  C13 UNL     1      20.005   0.148  51.254  1.00  0.00     0.048 A 
HETATM   17  C14 UNL     1      21.172   0.707  50.775  1.00  0.00     0.042 A 
HETATM   18 CL3  UNL     1      21.375   0.845  49.019  1.00  0.00    -0.084 Cl
ENDBRANCH  10  11
ENDBRANCH   5  10
BRANCH   3  19
HETATM   19  N3  UNL     1      26.043   5.256  49.714  1.00  0.00    -0.370 N 
HETATM   20  H4  UNL     1      26.606   5.867  50.378  1.00  0.00     0.161 HD
BRANCH  19  21
HETATM   21  C3  UNL     1      27.187   4.741  49.049  1.00  0.00     0.124 C 
HETATM   22  C4  UNL     1      28.206   5.341  48.433  1.00  0.00     0.122 C 
HETATM   23  F1  UNL     1      29.263   4.713  47.823  1.00  0.00    -0.208 F 
BRANCH  22  24
HETATM   24  C5  UNL     1      28.428   6.805  48.267  1.00  0.00     0.186 C 
HETATM   25 CL1  UNL     1      27.074   7.596  47.429  1.00  0.00    -0.123 Cl
ENDBRANCH  22  24
ENDBRANCH  19  21
ENDBRANCH   3  19
BRANCH   1  26
HETATM   26  N1  UNL     1      22.424   6.965  51.190  1.00  0.00    -0.231 N 
HETATM   27  H1  UNL     1      22.154   7.043  52.202  1.00  0.00     0.174 HD
HETATM   28  H2  UNL     1      22.084   7.523  50.383  1.00  0.00     0.174 HD
ENDBRANCH   1  26
TORSDOF 6
ENDMDL
MODEL 7
REMARK VINA RESULT:      -6.9      2.518      5.203
REMARK  6 active torsions:
REMARK  status: ('A' for Active; 'I' for Inactive)
REMARK    1  A    between atoms: N1_1  and  C1_2 
REMARK    2  A    between atoms: C2_4  and  N3_5 
REMARK    3  A    between atoms: N3_5  and  C3_6 
REMARK    4  A    between atoms: C4_7  and  C5_9 
REMARK    5  A    between atoms: C7_12  and  C8_13 
REMARK    6  A    between atoms: C8_13  and  C9_14 
ROOT
HETATM    1  C1  UNL     1      22.055   5.400  51.266  1.00  0.00     0.718 C 
HETATM    2  N2  UNL     1      21.539   5.055  52.423  1.00  0.00    -0.076 NA
HETATM    3  C2  UNL     1      21.170   3.653  52.574  1.00  0.00     0.250 C 
HETATM    4  C6  UNL     1      22.331   2.882  52.048  1.00  0.00     0.049 C 
HETATM    5  C7  UNL     1      23.612   3.045  51.633  1.00  0.00     0.039 C 
HETATM    6  N4  UNL     1      24.168   4.356  51.643  1.00  0.00    -0.248 NA
HETATM    7  C15 UNL     1      24.339   4.879  50.466  1.00  0.00     0.120 C 
HETATM    8  C16 UNL     1      23.377   4.590  49.630  1.00  0.00     0.139 C 
HETATM    9  N5  UNL     1      22.235   4.410  50.219  1.00  0.00    -0.059 NA
ENDROOT
BRANCH   5  10
HETATM   10  C8  UNL     1      24.302   1.775  51.191  1.00  0.00     0.099 C 
BRANCH  10  11
HETATM   11  C9  UNL     1      25.392   1.339  52.052  1.00  0.00    -0.031 A 
HETATM   12  C10 UNL     1      26.672   1.858  51.955  1.00  0.00     0.011 A 
HETATM   13  C11 UNL     1      27.701   1.452  52.807  1.00  0.00     0.024 A 
HETATM   14  C12 UNL     1      27.455   0.494  53.794  1.00  0.00     0.035 A 
HETATM   15 CL2  UNL     1      28.715  -0.043  54.883  1.00  0.00    -0.084 Cl
HETATM   16  C13 UNL     1      26.182   0.004  53.858  1.00  0.00     0.048 A 
HETATM   17  C14 UNL     1      25.136   0.376  53.038  1.00  0.00     0.042 A 
HETATM   18 CL3  UNL     1      23.569  -0.420  53.266  1.00  0.00    -0.084 Cl
ENDBRANCH  10  11
ENDBRANCH   5  10
BRANCH   3  19
HETATM   19  N3  UNL     1      19.951   3.393  51.845  1.00  0.00    -0.370 N 
HETATM   20  H4  UNL     1      19.166   3.788  51.246  1.00  0.00     0.161 HD
BRANCH  19  21
HETATM   21  C3  UNL     1      19.442   2.068  51.824  1.00  0.00     0.124 C 
HETATM   22  C4  UNL     1      19.325   1.173  50.843  1.00  0.00     0.122 C 
HETATM   23  F1  UNL     1      18.805  -0.093  50.962  1.00  0.00    -0.208 F 
BRANCH  22  24
HETATM   24  C5  UNL     1      19.724   1.336  49.416  1.00  0.00     0.186 C 
HETATM   25 CL1  UNL     1      21.425   0.896  49.143  1.00  0.00    -0.123 Cl
ENDBRANCH  22  24
ENDBRANCH  19  21
ENDBRANCH   3  19
BRANCH   1  26
HETATM   26  N1  UNL     1      22.442   6.764  51.052  1.00  0.00    -0.231 N 
HETATM   27  H1  UNL     1      23.461   6.964  50.899  1.00  0.00     0.174 HD
HETATM   28  H2  UNL     1      21.646   7.430  51.070  1.00  0.00     0.174 HD
ENDBRANCH   1  26
TORSDOF 6
ENDMDL
MODEL 8
REMARK VINA RESULT:      -6.8      1.988      2.446
REMARK  6 active torsions:
REMARK  status: ('A' for Active; 'I' for Inactive)
REMARK    1  A    between atoms: N1_1  and  C1_2 
REMARK    2  A    between atoms: C2_4  and  N3_5 
REMARK    3  A    between atoms: N3_5  and  C3_6 
REMARK    4  A    between atoms: C4_7  and  C5_9 
REMARK    5  A    between atoms: C7_12  and  C8_13 
REMARK    6  A    between atoms: C8_13  and  C9_14 
ROOT
HETATM    1  C1  UNL     1      25.314   6.731  50.353  1.00  0.00     0.718 C 
HETATM    2  N2  UNL     1      26.143   5.982  49.664  1.00  0.00    -0.076 NA
HETATM    3  C2  UNL     1      25.815   4.565  49.575  1.00  0.00     0.250 C 
HETATM    4  C6  UNL     1      24.363   4.518  49.246  1.00  0.00     0.049 C 
HETATM    5  C7  UNL     1      23.332   5.319  48.876  1.00  0.00     0.039 C 
HETATM    6  N4  UNL     1      23.578   6.712  48.715  1.00  0.00    -0.248 NA
HETATM    7  C15 UNL     1      23.059   7.462  49.640  1.00  0.00     0.120 C 
HETATM    8  C16 UNL     1      23.120   6.927  50.830  1.00  0.00     0.139 C 
HETATM    9  N5  UNL     1      24.142   6.142  50.979  1.00  0.00    -0.059 NA
ENDROOT
BRANCH   5  10
HETATM   10  C8  UNL     1      22.014   4.607  48.684  1.00  0.00     0.099 C 
BRANCH  10  11
HETATM   11  C9  UNL     1      21.783   3.490  49.589  1.00  0.00    -0.031 A 
HETATM   12  C10 UNL     1      21.355   3.665  50.895  1.00  0.00     0.011 A 
HETATM   13  C11 UNL     1      21.108   2.583  51.743  1.00  0.00     0.024 A 
HETATM   14  C12 UNL     1      21.291   1.277  51.283  1.00  0.00     0.035 A 
HETATM   15 CL2  UNL     1      20.993  -0.107  52.312  1.00  0.00    -0.084 Cl
HETATM   16  C13 UNL     1      21.715   1.145  49.991  1.00  0.00     0.048 A 
HETATM   17  C14 UNL     1      21.971   2.183  49.119  1.00  0.00     0.042 A 
HETATM   18 CL3  UNL     1      22.555   1.787  47.493  1.00  0.00    -0.084 Cl
ENDBRANCH  10  11
ENDBRANCH   5  10
BRANCH   3  19
HETATM   19  N3  UNL     1      26.124   3.919  50.829  1.00  0.00    -0.370 N 
HETATM   20  H4  UNL     1      26.798   3.831  51.648  1.00  0.00     0.161 HD
BRANCH  19  21
HETATM   21  C3  UNL     1      25.228   2.936  51.326  1.00  0.00     0.124 C 
HETATM   22  C4  UNL     1      25.415   1.677  51.722  1.00  0.00     0.122 C 
HETATM   23  F1  UNL     1      24.446   0.823  52.187  1.00  0.00    -0.208 F 
BRANCH  22  24
HETATM   24  C5  UNL     1      26.698   0.919  51.751  1.00  0.00     0.186 C 
HETATM   25 CL1  UNL     1      26.495  -0.716  52.420  1.00  0.00    -0.123 Cl
ENDBRANCH  22  24
ENDBRANCH  19  21
ENDBRANCH   3  19
BRANCH   1  26
HETATM   26  N1  UNL     1      25.577   8.135  50.478  1.00  0.00    -0.231 N 
HETATM   27  H1  UNL     1      25.930   8.485  51.403  1.00  0.00     0.174 HD
HETATM   28  H2  UNL     1      25.386   8.673  49.611  1.00  0.00     0.174 HD
ENDBRANCH   1  26
TORSDOF 6
ENDMDL
MODEL 9
REMARK VINA RESULT:      -6.7      3.170      4.712
REMARK  6 active torsions:
REMARK  status: ('A' for Active; 'I' for Inactive)
REMARK    1  A    between atoms: N1_1  and  C1_2 
REMARK    2  A    between atoms: C2_4  and  N3_5 
REMARK    3  A    between atoms: N3_5  and  C3_6 
REMARK    4  A    between atoms: C4_7  and  C5_9 
REMARK    5  A    between atoms: C7_12  and  C8_13 
REMARK    6  A    between atoms: C8_13  and  C9_14 
ROOT
HETATM    1  C1  UNL     1      21.534   3.555  48.899  1.00  0.00     0.718 C 
HETATM    2  N2  UNL     1      22.609   3.685  48.157  1.00  0.00    -0.076 NA
HETATM    3  C2  UNL     1      23.761   4.313  48.791  1.00  0.00     0.250 C 
HETATM    4  C6  UNL     1      23.884   3.654  50.121  1.00  0.00     0.049 C 
HETATM    5  C7  UNL     1      23.392   2.614  50.840  1.00  0.00     0.039 C 
HETATM    6  N4  UNL     1      22.402   1.783  50.242  1.00  0.00    -0.248 NA
HETATM    7  C15 UNL     1      21.208   1.926  50.734  1.00  0.00     0.120 C 
HETATM    8  C16 UNL     1      20.920   3.165  51.032  1.00  0.00     0.139 C 
HETATM    9  N5  UNL     1      21.533   4.022  50.275  1.00  0.00    -0.059 NA
ENDROOT
BRANCH   5  10
HETATM   10  C8  UNL     1      23.970   2.473  52.229  1.00  0.00     0.099 C 
BRANCH  10  11
HETATM   11  C9  UNL     1      24.805   1.298  52.429  1.00  0.00    -0.031 A 
HETATM   12  C10 UNL     1      24.333   0.141  53.028  1.00  0.00     0.011 A 
HETATM   13  C11 UNL     1      25.137  -0.990  53.186  1.00  0.00     0.024 A 
HETATM   14  C12 UNL     1      26.459  -0.978  52.734  1.00  0.00     0.035 A 
HETATM   15 CL2  UNL     1      27.500  -2.374  52.912  1.00  0.00    -0.084 Cl
HETATM   16  C13 UNL     1      26.888   0.179  52.150  1.00  0.00     0.048 A 
HETATM   17  C14 UNL     1      26.130   1.319  51.973  1.00  0.00     0.042 A 
HETATM   18 CL3  UNL     1      26.902   2.730  51.226  1.00  0.00    -0.084 Cl
ENDBRANCH  10  11
ENDBRANCH   5  10
BRANCH   3  19
HETATM   19  N3  UNL     1      23.542   5.736  48.891  1.00  0.00    -0.370 N 
HETATM   20  H4  UNL     1      22.973   6.578  48.576  1.00  0.00     0.161 HD
BRANCH  19  21
HETATM   21  C3  UNL     1      24.380   6.494  49.752  1.00  0.00     0.124 C 
HETATM   22  C4  UNL     1      25.641   6.907  49.632  1.00  0.00     0.122 C 
HETATM   23  F1  UNL     1      26.342   7.644  50.554  1.00  0.00    -0.208 F 
BRANCH  22  24
HETATM   24  C5  UNL     1      26.566   6.668  48.488  1.00  0.00     0.186 C 
HETATM   25 CL1  UNL     1      27.373   5.087  48.598  1.00  0.00    -0.123 Cl
ENDBRANCH  22  24
ENDBRANCH  19  21
ENDBRANCH   3  19
BRANCH   1  26
HETATM   26  N1  UNL     1      20.365   2.944  48.337  1.00  0.00    -0.231 N 
HETATM   27  H1  UNL     1      19.888   3.441  47.544  1.00  0.00     0.174 HD
HETATM   28  H2  UNL     1      20.107   2.046  48.788  1.00  0.00     0.174 HD
ENDBRANCH   1  26
TORSDOF 6
ENDMDL
