MODEL 1
REMARK VINA RESULT:      -8.3      0.000      0.000
REMARK  4 active torsions:
REMARK  status: ('A' for Active; 'I' for Inactive)
REMARK    1  A    between atoms: C5_6  and  C6_7 
REMARK    2  A    between atoms: C6_7  and  O1_8 
REMARK    3  A    between atoms: O1_8  and  O2_9 
REMARK    4  A    between atoms: O2_9  and  C7_10 
ROOT
HETATM    1  C7  UNL     1      26.079   2.277  51.464  1.00  0.00     0.191 C 
HETATM    2  C8  UNL     1      24.733   2.289  51.434  1.00  0.00     0.060 C 
HETATM    3  C9  UNL     1      23.526   1.614  51.883  1.00  0.00     0.001 C 
HETATM    4  C10 UNL     1      23.256   0.567  52.604  1.00  0.00    -0.023 C 
HETATM    5  C11 UNL     1      23.734  -0.577  53.402  1.00  0.00     0.054 C 
HETATM    6  C12 UNL     1      25.217  -0.543  53.370  1.00  0.00    -0.022 C 
HETATM    7  C13 UNL     1      26.394  -1.044  53.106  1.00  0.00     0.015 C 
HETATM    8  C14 UNL     1      27.820  -0.951  53.101  1.00  0.00     0.113 C 
HETATM    9  N1  UNL     1      28.665  -0.085  53.449  1.00  0.00    -0.268 NA
HETATM   10  C15 UNL     1      28.418   1.191  54.009  1.00  0.00     0.482 C 
HETATM   11  N2  UNL     1      27.736   1.923  53.224  1.00  0.00    -0.331 NA
HETATM   12  N3  UNL     1      27.253   1.589  51.963  1.00  0.00    -0.290 N 
HETATM   13  H15 UNL     1      27.757   0.834  51.404  1.00  0.00     0.187 HD
ENDROOT
BRANCH   1  14
HETATM   14  O2  UNL     1      26.977   3.177  50.853  1.00  0.00    -0.178 OA
BRANCH  14  15
HETATM   15  O1  UNL     1      26.904   3.458  49.550  1.00  0.00    -0.229 OA
BRANCH  15  16
HETATM   16  C6  UNL     1      26.237   4.629  49.292  1.00  0.00     0.249 C 
BRANCH  16  17
HETATM   17  C5  UNL     1      27.223   5.547  48.625  1.00  0.00    -0.030 A 
HETATM   18  C4  UNL     1      26.877   6.795  48.151  1.00  0.00     0.009 A 
HETATM   19  C3  UNL     1      27.850   7.576  47.548  1.00  0.00     0.002 A 
HETATM   20  C2  UNL     1      29.151   7.169  47.396  1.00  0.00     0.019 A 
HETATM   21  C1  UNL     1      29.471   5.908  47.882  1.00  0.00     0.011 A 
HETATM   22 BR1  UNL     1      31.272   5.310  47.685  1.00  0.00    -0.051 Br
HETATM   23  C16 UNL     1      28.516   5.096  48.493  1.00  0.00     0.028 A 
ENDBRANCH  16  17
ENDBRANCH  15  16
ENDBRANCH  14  15
ENDBRANCH   1  14
TORSDOF 4
ENDMDL
MODEL 2
REMARK VINA RESULT:      -8.1      4.363      7.911
REMARK  4 active torsions:
REMARK  status: ('A' for Active; 'I' for Inactive)
REMARK    1  A    between atoms: C5_6  and  C6_7 
REMARK    2  A    between atoms: C6_7  and  O1_8 
REMARK    3  A    between atoms: O1_8  and  O2_9 
REMARK    4  A    between atoms: O2_9  and  C7_10 
ROOT
HETATM    1  C7  UNL     1      24.054   0.347  53.077  1.00  0.00     0.191 C 
HETATM    2  C8  UNL     1      23.518   1.238  52.223  1.00  0.00     0.060 C 
HETATM    3  C9  UNL     1      23.808   2.277  51.248  1.00  0.00     0.001 C 
HETATM    4  C10 UNL     1      24.880   2.823  50.759  1.00  0.00    -0.023 C 
HETATM    5  C11 UNL     1      26.352   2.907  50.717  1.00  0.00     0.054 C 
HETATM    6  C12 UNL     1      26.873   1.921  51.696  1.00  0.00    -0.022 C 
HETATM    7  C13 UNL     1      27.551   1.570  52.756  1.00  0.00     0.015 C 
HETATM    8  C14 UNL     1      28.021   0.574  53.666  1.00  0.00     0.113 C 
HETATM    9  N1  UNL     1      27.885  -0.672  53.783  1.00  0.00    -0.268 NA
HETATM   10  C15 UNL     1      27.142  -1.544  52.951  1.00  0.00     0.482 C 
HETATM   11  N2  UNL     1      25.908  -1.238  52.934  1.00  0.00    -0.331 NA
HETATM   12  N3  UNL     1      25.287  -0.195  53.614  1.00  0.00    -0.290 N 
HETATM   13  H15 UNL     1      25.738   0.178  54.505  1.00  0.00     0.187 HD
ENDROOT
BRANCH   1  14
HETATM   14  O2  UNL     1      23.391  -0.565  53.924  1.00  0.00    -0.178 OA
BRANCH  14  15
HETATM   15  O1  UNL     1      22.316  -1.242  53.514  1.00  0.00    -0.229 OA
BRANCH  15  16
HETATM   16  C6  UNL     1      21.218  -1.037  54.311  1.00  0.00     0.249 C 
BRANCH  16  17
HETATM   17  C5  UNL     1      20.058  -0.789  53.388  1.00  0.00    -0.030 A 
HETATM   18  C4  UNL     1      18.812  -1.346  53.591  1.00  0.00     0.009 A 
HETATM   19  C3  UNL     1      17.799  -1.065  52.690  1.00  0.00     0.002 A 
HETATM   20  C2  UNL     1      17.970  -0.254  51.597  1.00  0.00     0.019 A 
HETATM   21  C1  UNL     1      19.233   0.293  51.417  1.00  0.00     0.011 A 
HETATM   22 BR1  UNL     1      19.506   1.425  49.906  1.00  0.00    -0.051 Br
HETATM   23  C16 UNL     1      20.276   0.030  52.306  1.00  0.00     0.028 A 
ENDBRANCH  16  17
ENDBRANCH  15  16
ENDBRANCH  14  15
ENDBRANCH   1  14
TORSDOF 4
ENDMDL
MODEL 3
REMARK VINA RESULT:      -7.9      2.465      3.359
REMARK  4 active torsions:
REMARK  status: ('A' for Active; 'I' for Inactive)
REMARK    1  A    between atoms: C5_6  and  C6_7 
REMARK    2  A    between atoms: C6_7  and  O1_8 
REMARK    3  A    between atoms: O1_8  and  O2_9 
REMARK    4  A    between atoms: O2_9  and  C7_10 
ROOT
HETATM    1  C7  UNL     1      22.867   1.588  52.580  1.00  0.00     0.191 C 
HETATM    2  C8  UNL     1      21.805   1.024  53.185  1.00  0.00     0.060 C 
HETATM    3  C9  UNL     1      21.376   0.025  54.150  1.00  0.00     0.001 C 
HETATM    4  C10 UNL     1      21.963  -0.844  54.916  1.00  0.00    -0.023 C 
HETATM    5  C11 UNL     1      23.209  -1.466  55.401  1.00  0.00     0.054 C 
HETATM    6  C12 UNL     1      24.331  -0.818  54.678  1.00  0.00    -0.022 C 
HETATM    7  C13 UNL     1      25.376  -0.822  53.894  1.00  0.00     0.015 C 
HETATM    8  C14 UNL     1      26.436  -0.141  53.220  1.00  0.00     0.113 C 
HETATM    9  N1  UNL     1      26.820   1.055  53.128  1.00  0.00    -0.268 NA
HETATM   10  C15 UNL     1      26.247   2.198  53.734  1.00  0.00     0.482 C 
HETATM   11  N2  UNL     1      25.045   2.376  53.359  1.00  0.00    -0.331 NA
HETATM   12  N3  UNL     1      24.313   1.592  52.472  1.00  0.00    -0.290 N 
HETATM   13  H15 UNL     1      24.836   1.015  51.744  1.00  0.00     0.187 HD
ENDROOT
BRANCH   1  14
HETATM   14  O2  UNL     1      22.883   2.617  51.617  1.00  0.00    -0.178 OA
BRANCH  14  15
HETATM   15  O1  UNL     1      23.243   2.384  50.352  1.00  0.00    -0.229 OA
BRANCH  15  16
HETATM   16  C6  UNL     1      23.089   3.481  49.541  1.00  0.00     0.249 C 
BRANCH  16  17
HETATM   17  C5  UNL     1      24.463   4.052  49.326  1.00  0.00    -0.030 A 
HETATM   18  C4  UNL     1      25.615   3.334  49.569  1.00  0.00     0.009 A 
HETATM   19  C3  UNL     1      26.841   3.938  49.344  1.00  0.00     0.002 A 
HETATM   20  C2  UNL     1      26.970   5.226  48.888  1.00  0.00     0.019 A 
HETATM   21  C1  UNL     1      25.794   5.925  48.652  1.00  0.00     0.011 A 
HETATM   22 BR1  UNL     1      25.939   7.719  48.019  1.00  0.00    -0.051 Br
HETATM   23  C16 UNL     1      24.544   5.346  48.869  1.00  0.00     0.028 A 
ENDBRANCH  16  17
ENDBRANCH  15  16
ENDBRANCH  14  15
ENDBRANCH   1  14
TORSDOF 4
ENDMDL
MODEL 4
REMARK VINA RESULT:      -7.7      2.948      3.681
REMARK  4 active torsions:
REMARK  status: ('A' for Active; 'I' for Inactive)
REMARK    1  A    between atoms: C5_6  and  C6_7 
REMARK    2  A    between atoms: C6_7  and  O1_8 
REMARK    3  A    between atoms: O1_8  and  O2_9 
REMARK    4  A    between atoms: O2_9  and  C7_10 
ROOT
HETATM    1  C7  UNL     1      26.298   2.196  51.675  1.00  0.00     0.191 C 
HETATM    2  C8  UNL     1      24.975   1.988  51.811  1.00  0.00     0.060 C 
HETATM    3  C9  UNL     1      23.955   1.204  52.489  1.00  0.00     0.001 C 
HETATM    4  C10 UNL     1      23.946   0.247  53.367  1.00  0.00    -0.023 C 
HETATM    5  C11 UNL     1      24.694  -0.675  54.242  1.00  0.00     0.054 C 
HETATM    6  C12 UNL     1      26.137  -0.409  54.024  1.00  0.00    -0.022 C 
HETATM    7  C13 UNL     1      27.352  -0.750  53.684  1.00  0.00     0.015 C 
HETATM    8  C14 UNL     1      28.732  -0.432  53.492  1.00  0.00     0.113 C 
HETATM    9  N1  UNL     1      29.442   0.599  53.617  1.00  0.00    -0.268 NA
HETATM   10  C15 UNL     1      29.032   1.889  54.032  1.00  0.00     0.482 C 
HETATM   11  N2  UNL     1      28.157   2.378  53.249  1.00  0.00    -0.331 NA
HETATM   12  N3  UNL     1      27.618   1.786  52.111  1.00  0.00    -0.290 N 
HETATM   13  H15 UNL     1      28.188   1.047  51.597  1.00  0.00     0.187 HD
ENDROOT
BRANCH   1  14
HETATM   14  O2  UNL     1      26.959   3.126  50.847  1.00  0.00    -0.178 OA
BRANCH  14  15
HETATM   15  O1  UNL     1      26.429   3.530  49.690  1.00  0.00    -0.229 OA
BRANCH  15  16
HETATM   16  C6  UNL     1      25.841   4.768  49.774  1.00  0.00     0.249 C 
BRANCH  16  17
HETATM   17  C5  UNL     1      24.537   4.675  49.033  1.00  0.00    -0.030 A 
HETATM   18  C4  UNL     1      23.985   5.745  48.358  1.00  0.00     0.009 A 
HETATM   19  C3  UNL     1      22.778   5.571  47.701  1.00  0.00     0.002 A 
HETATM   20  C2  UNL     1      22.096   4.381  47.686  1.00  0.00     0.019 A 
HETATM   21  C1  UNL     1      22.675   3.321  48.372  1.00  0.00     0.011 A 
HETATM   22 BR1  UNL     1      21.752   1.652  48.371  1.00  0.00    -0.051 Br
HETATM   23  C16 UNL     1      23.889   3.463  49.045  1.00  0.00     0.028 A 
ENDBRANCH  16  17
ENDBRANCH  15  16
ENDBRANCH  14  15
ENDBRANCH   1  14
TORSDOF 4
ENDMDL
MODEL 5
REMARK VINA RESULT:      -7.7      3.415      7.554
REMARK  4 active torsions:
REMARK  status: ('A' for Active; 'I' for Inactive)
REMARK    1  A    between atoms: C5_6  and  C6_7 
REMARK    2  A    between atoms: C6_7  and  O1_8 
REMARK    3  A    between atoms: O1_8  and  O2_9 
REMARK    4  A    between atoms: O2_9  and  C7_10 
ROOT
HETATM    1  C7  UNL     1      24.776   4.468  50.174  1.00  0.00     0.191 C 
HETATM    2  C8  UNL     1      25.958   3.905  49.860  1.00  0.00     0.060 C 
HETATM    3  C9  UNL     1      27.232   4.104  49.187  1.00  0.00     0.001 C 
HETATM    4  C10 UNL     1      27.795   5.069  48.526  1.00  0.00    -0.023 C 
HETATM    5  C11 UNL     1      27.731   6.439  47.984  1.00  0.00     0.054 C 
HETATM    6  C12 UNL     1      26.400   6.988  48.344  1.00  0.00    -0.022 C 
HETATM    7  C13 UNL     1      25.229   7.497  48.065  1.00  0.00     0.015 C 
HETATM    8  C14 UNL     1      23.962   8.015  48.473  1.00  0.00     0.113 C 
HETATM    9  N1  UNL     1      23.377   8.195  49.574  1.00  0.00    -0.268 NA
HETATM   10  C15 UNL     1      23.863   7.904  50.870  1.00  0.00     0.482 C 
HETATM   11  N2  UNL     1      24.113   6.665  51.011  1.00  0.00    -0.331 NA
HETATM   12  N3  UNL     1      23.959   5.660  50.062  1.00  0.00    -0.290 N 
HETATM   13  H15 UNL     1      23.249   5.797  49.278  1.00  0.00     0.187 HD
ENDROOT
BRANCH   1  14
HETATM   14  O2  UNL     1      23.705   3.911  50.901  1.00  0.00    -0.178 OA
BRANCH  14  15
HETATM   15  O1  UNL     1      23.799   3.675  52.211  1.00  0.00    -0.229 OA
BRANCH  15  16
HETATM   16  C6  UNL     1      23.315   2.441  52.569  1.00  0.00     0.249 C 
BRANCH  16  17
HETATM   17  C5  UNL     1      24.512   1.571  52.833  1.00  0.00    -0.030 A 
HETATM   18  C4  UNL     1      24.439   0.194  52.866  1.00  0.00     0.009 A 
HETATM   19  C3  UNL     1      25.592  -0.532  53.117  1.00  0.00     0.002 A 
HETATM   20  C2  UNL     1      26.814   0.053  53.337  1.00  0.00     0.019 A 
HETATM   21  C1  UNL     1      26.858   1.440  53.298  1.00  0.00     0.011 A 
HETATM   22 BR1  UNL     1      28.541   2.285  53.601  1.00  0.00    -0.051 Br
HETATM   23  C16 UNL     1      25.715   2.200  53.048  1.00  0.00     0.028 A 
ENDBRANCH  16  17
ENDBRANCH  15  16
ENDBRANCH  14  15
ENDBRANCH   1  14
TORSDOF 4
ENDMDL
MODEL 6
REMARK VINA RESULT:      -7.7      4.428      6.524
REMARK  4 active torsions:
REMARK  status: ('A' for Active; 'I' for Inactive)
REMARK    1  A    between atoms: C5_6  and  C6_7 
REMARK    2  A    between atoms: C6_7  and  O1_8 
REMARK    3  A    between atoms: O1_8  and  O2_9 
REMARK    4  A    between atoms: O2_9  and  C7_10 
ROOT
HETATM    1  C7  UNL     1      23.236   1.504  51.925  1.00  0.00     0.191 C 
HETATM    2  C8  UNL     1      23.460   0.699  52.981  1.00  0.00     0.060 C 
HETATM    3  C9  UNL     1      22.860  -0.252  53.902  1.00  0.00     0.001 C 
HETATM    4  C10 UNL     1      21.679  -0.764  54.076  1.00  0.00    -0.023 C 
HETATM    5  C11 UNL     1      20.267  -0.858  53.661  1.00  0.00     0.054 C 
HETATM    6  C12 UNL     1      20.086   0.068  52.516  1.00  0.00    -0.022 C 
HETATM    7  C13 UNL     1      19.540   1.090  51.912  1.00  0.00     0.015 C 
HETATM    8  C14 UNL     1      19.412   1.949  50.777  1.00  0.00     0.113 C 
HETATM    9  N1  UNL     1      19.959   2.031  49.646  1.00  0.00    -0.268 NA
HETATM   10  C15 UNL     1      20.973   1.201  49.112  1.00  0.00     0.482 C 
HETATM   11  N2  UNL     1      22.031   1.240  49.816  1.00  0.00    -0.331 NA
HETATM   12  N3  UNL     1      22.246   1.976  50.977  1.00  0.00    -0.290 N 
HETATM   13  H15 UNL     1      21.673   2.860  51.138  1.00  0.00     0.187 HD
ENDROOT
BRANCH   1  14
HETATM   14  O2  UNL     1      24.147   2.345  51.254  1.00  0.00    -0.178 OA
BRANCH  14  15
HETATM   15  O1  UNL     1      25.396   1.953  50.994  1.00  0.00    -0.229 OA
BRANCH  15  16
HETATM   16  C6  UNL     1      26.341   2.727  51.620  1.00  0.00     0.249 C 
BRANCH  16  17
HETATM   17  C5  UNL     1      27.200   1.790  52.423  1.00  0.00    -0.030 A 
HETATM   18  C4  UNL     1      28.159   2.233  53.310  1.00  0.00     0.009 A 
HETATM   19  C3  UNL     1      28.907   1.300  54.009  1.00  0.00     0.002 A 
HETATM   20  C2  UNL     1      28.743  -0.054  53.864  1.00  0.00     0.019 A 
HETATM   21  C1  UNL     1      27.771  -0.472  52.965  1.00  0.00     0.011 A 
HETATM   22 BR1  UNL     1      27.517  -2.349  52.740  1.00  0.00    -0.051 Br
HETATM   23  C16 UNL     1      27.000   0.441  52.245  1.00  0.00     0.028 A 
ENDBRANCH  16  17
ENDBRANCH  15  16
ENDBRANCH  14  15
ENDBRANCH   1  14
TORSDOF 4
ENDMDL
MODEL 7
REMARK VINA RESULT:      -7.7      2.576      3.841
REMARK  4 active torsions:
REMARK  status: ('A' for Active; 'I' for Inactive)
REMARK    1  A    between atoms: C5_6  and  C6_7 
REMARK    2  A    between atoms: C6_7  and  O1_8 
REMARK    3  A    between atoms: O1_8  and  O2_9 
REMARK    4  A    between atoms: O2_9  and  C7_10 
ROOT
HETATM    1  C7  UNL     1      24.471   2.715  50.916  1.00  0.00     0.191 C 
HETATM    2  C8  UNL     1      25.765   2.371  51.056  1.00  0.00     0.060 C 
HETATM    3  C9  UNL     1      26.687   1.423  51.659  1.00  0.00     0.001 C 
HETATM    4  C10 UNL     1      26.582   0.376  52.420  1.00  0.00    -0.023 C 
HETATM    5  C11 UNL     1      25.727  -0.565  53.168  1.00  0.00     0.054 C 
HETATM    6  C12 UNL     1      24.324  -0.113  52.992  1.00  0.00    -0.022 C 
HETATM    7  C13 UNL     1      23.165   0.304  53.428  1.00  0.00     0.015 C 
HETATM    8  C14 UNL     1      21.823   0.733  53.194  1.00  0.00     0.113 C 
HETATM    9  N1  UNL     1      21.100   0.912  52.179  1.00  0.00    -0.268 NA
HETATM   10  C15 UNL     1      21.451   0.717  50.821  1.00  0.00     0.482 C 
HETATM   11  N2  UNL     1      22.420   1.463  50.475  1.00  0.00    -0.331 NA
HETATM   12  N3  UNL     1      23.105   2.379  51.267  1.00  0.00    -0.290 N 
HETATM   13  H15 UNL     1      22.609   2.802  52.111  1.00  0.00     0.187 HD
ENDROOT
BRANCH   1  14
HETATM   14  O2  UNL     1      23.924   3.792  50.190  1.00  0.00    -0.178 OA
BRANCH  14  15
HETATM   15  O1  UNL     1      24.532   4.286  49.109  1.00  0.00    -0.229 OA
BRANCH  15  16
HETATM   16  C6  UNL     1      24.765   5.636  49.195  1.00  0.00     0.249 C 
BRANCH  16  17
HETATM   17  C5  UNL     1      26.181   5.858  48.741  1.00  0.00    -0.030 A 
HETATM   18  C4  UNL     1      27.157   4.889  48.846  1.00  0.00     0.009 A 
HETATM   19  C3  UNL     1      28.437   5.178  48.403  1.00  0.00     0.002 A 
HETATM   20  C2  UNL     1      28.788   6.388  47.861  1.00  0.00     0.019 A 
HETATM   21  C1  UNL     1      27.786   7.345  47.767  1.00  0.00     0.011 A 
HETATM   22 BR1  UNL     1      28.240   9.039  47.018  1.00  0.00    -0.051 Br
HETATM   23  C16 UNL     1      26.486   7.086  48.204  1.00  0.00     0.028 A 
ENDBRANCH  16  17
ENDBRANCH  15  16
ENDBRANCH  14  15
ENDBRANCH   1  14
TORSDOF 4
ENDMDL
MODEL 8
REMARK VINA RESULT:      -7.5      4.092      8.406
REMARK  4 active torsions:
REMARK  status: ('A' for Active; 'I' for Inactive)
REMARK    1  A    between atoms: C5_6  and  C6_7 
REMARK    2  A    between atoms: C6_7  and  O1_8 
REMARK    3  A    between atoms: O1_8  and  O2_9 
REMARK    4  A    between atoms: O2_9  and  C7_10 
ROOT
HETATM    1  C7  UNL     1      25.472   4.833  49.697  1.00  0.00     0.191 C 
HETATM    2  C8  UNL     1      26.711   4.480  49.305  1.00  0.00     0.060 C 
HETATM    3  C9  UNL     1      27.913   4.921  48.617  1.00  0.00     0.001 C 
HETATM    4  C10 UNL     1      28.302   6.008  48.023  1.00  0.00    -0.023 C 
HETATM    5  C11 UNL     1      28.015   7.392  47.601  1.00  0.00     0.054 C 
HETATM    6  C12 UNL     1      26.633   7.704  48.041  1.00  0.00    -0.022 C 
HETATM    7  C13 UNL     1      25.390   8.053  47.838  1.00  0.00     0.015 C 
HETATM    8  C14 UNL     1      24.078   8.341  48.323  1.00  0.00     0.113 C 
HETATM    9  N1  UNL     1      23.517   8.344  49.451  1.00  0.00    -0.268 NA
HETATM   10  C15 UNL     1      24.091   8.028  50.705  1.00  0.00     0.482 C 
HETATM   11  N2  UNL     1      24.527   6.833  50.734  1.00  0.00    -0.331 NA
HETATM   12  N3  UNL     1      24.484   5.894  49.708  1.00  0.00    -0.290 N 
HETATM   13  H15 UNL     1      23.732   5.985  48.959  1.00  0.00     0.187 HD
ENDROOT
BRANCH   1  14
HETATM   14  O2  UNL     1      24.524   4.066  50.404  1.00  0.00    -0.178 OA
BRANCH  14  15
HETATM   15  O1  UNL     1      24.387   2.755  50.188  1.00  0.00    -0.229 OA
BRANCH  15  16
HETATM   16  C6  UNL     1      23.234   2.242  50.728  1.00  0.00     0.249 C 
BRANCH  16  17
HETATM   17  C5  UNL     1      23.655   1.300  51.822  1.00  0.00    -0.030 A 
HETATM   18  C4  UNL     1      24.978   1.017  52.093  1.00  0.00     0.009 A 
HETATM   19  C3  UNL     1      25.277   0.136  53.119  1.00  0.00     0.002 A 
HETATM   20  C2  UNL     1      24.318  -0.475  53.887  1.00  0.00     0.019 A 
HETATM   21  C1  UNL     1      22.996  -0.171  53.593  1.00  0.00     0.011 A 
HETATM   22 BR1  UNL     1      21.637  -1.003  54.642  1.00  0.00    -0.051 Br
HETATM   23  C16 UNL     1      22.660   0.711  52.566  1.00  0.00     0.028 A 
ENDBRANCH  16  17
ENDBRANCH  15  16
ENDBRANCH  14  15
ENDBRANCH   1  14
TORSDOF 4
ENDMDL
MODEL 9
REMARK VINA RESULT:      -7.2      3.675      7.926
REMARK  4 active torsions:
REMARK  status: ('A' for Active; 'I' for Inactive)
REMARK    1  A    between atoms: C5_6  and  C6_7 
REMARK    2  A    between atoms: C6_7  and  O1_8 
REMARK    3  A    between atoms: O1_8  and  O2_9 
REMARK    4  A    between atoms: O2_9  and  C7_10 
ROOT
HETATM    1  C7  UNL     1      25.554   5.369  49.422  1.00  0.00     0.191 C 
HETATM    2  C8  UNL     1      24.358   5.612  48.853  1.00  0.00     0.060 C 
HETATM    3  C9  UNL     1      23.650   6.402  47.860  1.00  0.00     0.001 C 
HETATM    4  C10 UNL     1      23.967   7.328  47.006  1.00  0.00    -0.023 C 
HETATM    5  C11 UNL     1      24.996   8.197  46.405  1.00  0.00     0.054 C 
HETATM    6  C12 UNL     1      26.276   7.896  47.092  1.00  0.00    -0.022 C 
HETATM    7  C13 UNL     1      27.324   8.212  47.805  1.00  0.00     0.015 C 
HETATM    8  C14 UNL     1      28.551   7.861  48.448  1.00  0.00     0.113 C 
HETATM    9  N1  UNL     1      29.222   6.805  48.587  1.00  0.00    -0.268 NA
HETATM   10  C15 UNL     1      28.921   5.515  48.090  1.00  0.00     0.482 C 
HETATM   11  N2  UNL     1      27.819   5.079  48.552  1.00  0.00    -0.331 NA
HETATM   12  N3  UNL     1      26.960   5.725  49.435  1.00  0.00    -0.290 N 
HETATM   13  H15 UNL     1      27.358   6.465  50.091  1.00  0.00     0.187 HD
ENDROOT
BRANCH   1  14
HETATM   14  O2  UNL     1      25.870   4.449  50.442  1.00  0.00    -0.178 OA
BRANCH  14  15
HETATM   15  O1  UNL     1      25.597   3.148  50.317  1.00  0.00    -0.229 OA
BRANCH  15  16
HETATM   16  C6  UNL     1      24.464   2.772  50.994  1.00  0.00     0.249 C 
BRANCH  16  17
HETATM   17  C5  UNL     1      24.829   1.557  51.800  1.00  0.00    -0.030 A 
HETATM   18  C4  UNL     1      26.092   1.002  51.782  1.00  0.00     0.009 A 
HETATM   19  C3  UNL     1      26.342  -0.119  52.555  1.00  0.00     0.002 A 
HETATM   20  C2  UNL     1      25.392  -0.712  53.346  1.00  0.00     0.019 A 
HETATM   21  C1  UNL     1      24.130  -0.133  53.346  1.00  0.00     0.011 A 
HETATM   22 BR1  UNL     1      22.784  -0.933  54.435  1.00  0.00    -0.051 Br
HETATM   23  C16 UNL     1      23.844   0.996  52.578  1.00  0.00     0.028 A 
ENDBRANCH  16  17
ENDBRANCH  15  16
ENDBRANCH  14  15
ENDBRANCH   1  14
TORSDOF 4
ENDMDL
