MODEL 1
REMARK VINA RESULT:      -8.7      0.000      0.000
REMARK  5 active torsions:
REMARK  status: ('A' for Active; 'I' for Inactive)
REMARK       I    between atoms: C1_2  and  N1_3 
REMARK    1  A    between atoms: C1_2  and  C16_21 
REMARK    2  A    between atoms: N1_3  and  C2_4 
REMARK    3  A    between atoms: C5_7  and  N2_8 
REMARK    4  A    between atoms: N2_8  and  C6_9 
REMARK    5  A    between atoms: N3_17  and  O2_18 
ROOT
HETATM    1  C2  UNL     1      22.105   2.857  50.934  1.00  0.00     0.035 A 
HETATM    2  C3  UNL     1      22.929   2.736  49.874  1.00  0.00     0.032 A 
HETATM    3  C4  UNL     1      24.287   2.688  50.212  1.00  0.00     0.031 A 
HETATM    4  C5  UNL     1      24.664   2.756  51.558  1.00  0.00     0.029 A 
HETATM    5  C14 UNL     1      23.720   2.877  52.581  1.00  0.00     0.031 A 
HETATM    6  C15 UNL     1      22.354   2.935  52.313  1.00  0.00     0.032 A 
ENDROOT
BRANCH   4   7
HETATM    7  N2  UNL     1      26.025   2.663  51.983  1.00  0.00    -0.366 N 
HETATM    8  H4  UNL     1      26.539   3.598  52.079  1.00  0.00     0.162 HD
BRANCH   7   9
HETATM    9  C6  UNL     1      26.870   1.507  52.320  1.00  0.00     0.221 C 
HETATM   10  C7  UNL     1      26.103   0.249  52.401  1.00  0.00     0.056 C 
HETATM   11  C8  UNL     1      26.916  -0.939  52.652  1.00  0.00     0.007 C 
HETATM   12  C9  UNL     1      28.163  -0.925  53.047  1.00  0.00     0.055 A 
HETATM   13  C10 UNL     1      29.348  -1.687  53.392  1.00  0.00    -0.015 A 
HETATM   14  C12 UNL     1      29.438   0.106  53.620  1.00  0.00     0.015 A 
HETATM   15  C11 UNL     1      30.376  -0.921  53.815  1.00  0.00     0.014 A 
HETATM   16  C13 UNL     1      28.666   0.937  53.480  1.00  0.00    -0.006 C 
HETATM   17  N3  UNL     1      27.753   1.892  53.333  1.00  0.00    -0.201 N 
BRANCH  17  18
HETATM   18  O2  UNL     1      28.013   2.865  54.233  1.00  0.00    -0.278 OA
HETATM   19  H12 UNL     1      27.989   2.452  55.132  1.00  0.00     0.245 HD
ENDBRANCH  17  18
ENDBRANCH   7   9
ENDBRANCH   4   7
BRANCH   1  20
HETATM   20  N1  UNL     1      20.674   2.892  50.672  1.00  0.00    -0.323 N 
HETATM   21  C1  UNL     1      20.227   1.551  50.697  1.00  0.00     0.256 C 
HETATM   22  O1  UNL     1      21.038   0.646  50.915  1.00  0.00    -0.267 OA
HETATM   23  H1  UNL     1      20.075   3.713  50.492  1.00  0.00     0.169 HD
BRANCH  21  24
HETATM   24  C16 UNL     1      18.805   1.223  50.470  1.00  0.00     0.032 A 
HETATM   25  C17 UNL     1      18.306   0.030  50.941  1.00  0.00     0.017 A 
HETATM   26  C18 UNL     1      16.975  -0.253  50.729  1.00  0.00     0.001 A 
HETATM   27  C19 UNL     1      16.085   0.574  50.069  1.00  0.00     0.000 A 
HETATM   28  C20 UNL     1      16.684   1.759  49.628  1.00  0.00     0.001 A 
HETATM   29  C21 UNL     1      18.009   2.133  49.793  1.00  0.00     0.017 A 
ENDBRANCH  21  24
ENDBRANCH   1  20
TORSDOF 5
ENDMDL
MODEL 2
REMARK VINA RESULT:      -8.6      5.088      6.698
REMARK  5 active torsions:
REMARK  status: ('A' for Active; 'I' for Inactive)
REMARK       I    between atoms: C1_2  and  N1_3 
REMARK    1  A    between atoms: C1_2  and  C16_21 
REMARK    2  A    between atoms: N1_3  and  C2_4 
REMARK    3  A    between atoms: C5_7  and  N2_8 
REMARK    4  A    between atoms: N2_8  and  C6_9 
REMARK    5  A    between atoms: N3_17  and  O2_18 
ROOT
HETATM    1  C2  UNL     1      24.890   3.194  51.467  1.00  0.00     0.035 A 
HETATM    2  C3  UNL     1      25.981   2.762  50.806  1.00  0.00     0.032 A 
HETATM    3  C4  UNL     1      26.412   3.628  49.792  1.00  0.00     0.031 A 
HETATM    4  C5  UNL     1      25.716   4.820  49.565  1.00  0.00     0.029 A 
HETATM    5  C14 UNL     1      24.593   5.173  50.319  1.00  0.00     0.031 A 
HETATM    6  C15 UNL     1      24.110   4.354  51.337  1.00  0.00     0.032 A 
ENDROOT
BRANCH   4   7
HETATM    7  N2  UNL     1      26.125   5.776  48.584  1.00  0.00    -0.366 N 
HETATM    8  H4  UNL     1      25.433   5.933  47.782  1.00  0.00     0.162 HD
BRANCH   7   9
HETATM    9  C6  UNL     1      27.337   6.602  48.466  1.00  0.00     0.221 C 
HETATM   10  C7  UNL     1      28.556   5.794  48.271  1.00  0.00     0.056 C 
HETATM   11  C8  UNL     1      29.773   6.577  48.066  1.00  0.00     0.007 C 
HETATM   12  C9  UNL     1      29.886   7.859  48.293  1.00  0.00     0.055 A 
HETATM   13  C10 UNL     1      30.727   9.041  48.255  1.00  0.00    -0.015 A 
HETATM   14  C12 UNL     1      29.081   9.236  48.980  1.00  0.00     0.015 A 
HETATM   15  C11 UNL     1      30.128  10.144  48.753  1.00  0.00     0.014 A 
HETATM   16  C13 UNL     1      28.238   8.491  49.183  1.00  0.00    -0.006 C 
HETATM   17  N3  UNL     1      27.274   7.610  49.431  1.00  0.00    -0.201 N 
BRANCH  17  18
HETATM   18  O2  UNL     1      26.610   8.014  50.537  1.00  0.00    -0.278 OA
HETATM   19  H12 UNL     1      26.334   7.202  51.030  1.00  0.00     0.245 HD
ENDBRANCH  17  18
ENDBRANCH   7   9
ENDBRANCH   4   7
BRANCH   1  20
HETATM   20  N1  UNL     1      24.389   2.363  52.552  1.00  0.00    -0.323 N 
HETATM   21  C1  UNL     1      23.423   1.499  51.984  1.00  0.00     0.256 C 
HETATM   22  O1  UNL     1      23.177   1.575  50.777  1.00  0.00    -0.267 OA
HETATM   23  H1  UNL     1      24.657   2.378  53.549  1.00  0.00     0.169 HD
BRANCH  21  24
HETATM   24  C16 UNL     1      22.711   0.509  52.818  1.00  0.00     0.032 A 
HETATM   25  C17 UNL     1      23.423  -0.237  53.730  1.00  0.00     0.017 A 
HETATM   26  C18 UNL     1      22.741  -1.148  54.506  1.00  0.00     0.001 A 
HETATM   27  C19 UNL     1      21.380  -1.380  54.441  1.00  0.00     0.000 A 
HETATM   28  C20 UNL     1      20.746  -0.577  53.488  1.00  0.00     0.001 A 
HETATM   29  C21 UNL     1      21.343   0.365  52.663  1.00  0.00     0.017 A 
ENDBRANCH  21  24
ENDBRANCH   1  20
TORSDOF 5
ENDMDL
MODEL 3
REMARK VINA RESULT:      -8.5      3.931      8.488
REMARK  5 active torsions:
REMARK  status: ('A' for Active; 'I' for Inactive)
REMARK       I    between atoms: C1_2  and  N1_3 
REMARK    1  A    between atoms: C1_2  and  C16_21 
REMARK    2  A    between atoms: N1_3  and  C2_4 
REMARK    3  A    between atoms: C5_7  and  N2_8 
REMARK    4  A    between atoms: N2_8  and  C6_9 
REMARK    5  A    between atoms: N3_17  and  O2_18 
ROOT
HETATM    1  C2  UNL     1      23.900   3.523  50.684  1.00  0.00     0.035 A 
HETATM    2  C3  UNL     1      23.204   2.692  49.883  1.00  0.00     0.032 A 
HETATM    3  C4  UNL     1      22.622   1.609  50.553  1.00  0.00     0.031 A 
HETATM    4  C5  UNL     1      22.792   1.486  51.937  1.00  0.00     0.029 A 
HETATM    5  C14 UNL     1      23.534   2.413  52.673  1.00  0.00     0.031 A 
HETATM    6  C15 UNL     1      24.142   3.510  52.067  1.00  0.00     0.032 A 
ENDROOT
BRANCH   4   7
HETATM    7  N2  UNL     1      22.188   0.437  52.697  1.00  0.00    -0.366 N 
HETATM    8  H4  UNL     1      22.821  -0.021  53.429  1.00  0.00     0.162 HD
BRANCH   7   9
HETATM    9  C6  UNL     1      20.836  -0.144  52.665  1.00  0.00     0.221 C 
HETATM   10  C7  UNL     1      19.826   0.801  52.150  1.00  0.00     0.056 C 
HETATM   11  C8  UNL     1      18.483   0.238  52.024  1.00  0.00     0.007 C 
HETATM   12  C9  UNL     1      18.091  -0.892  52.550  1.00  0.00     0.055 A 
HETATM   13  C10 UNL     1      17.023  -1.859  52.722  1.00  0.00    -0.015 A 
HETATM   14  C12 UNL     1      18.553  -2.164  53.638  1.00  0.00     0.015 A 
HETATM   15  C11 UNL     1      17.351  -2.883  53.539  1.00  0.00     0.014 A 
HETATM   16  C13 UNL     1      19.522  -1.567  53.734  1.00  0.00    -0.006 C 
HETATM   17  N3  UNL     1      20.637  -0.853  53.852  1.00  0.00    -0.201 N 
BRANCH  17  18
HETATM   18  O2  UNL     1      21.146  -1.068  55.086  1.00  0.00    -0.278 OA
HETATM   19  H12 UNL     1      21.019  -0.237  55.608  1.00  0.00     0.245 HD
ENDBRANCH  17  18
ENDBRANCH   7   9
ENDBRANCH   4   7
BRANCH   1  20
HETATM   20  N1  UNL     1      24.519   4.688  50.069  1.00  0.00    -0.323 N 
HETATM   21  C1  UNL     1      25.785   4.270  49.599  1.00  0.00     0.256 C 
HETATM   22  O1  UNL     1      26.137   3.098  49.765  1.00  0.00    -0.267 OA
HETATM   23  H1  UNL     1      24.140   5.644  49.982  1.00  0.00     0.169 HD
BRANCH  21  24
HETATM   24  C16 UNL     1      26.686   5.216  48.910  1.00  0.00     0.032 A 
HETATM   25  C17 UNL     1      26.206   6.452  48.540  1.00  0.00     0.017 A 
HETATM   26  C18 UNL     1      27.063   7.325  47.908  1.00  0.00     0.001 A 
HETATM   27  C19 UNL     1      28.386   7.058  47.608  1.00  0.00     0.000 A 
HETATM   28  C20 UNL     1      28.779   5.782  48.022  1.00  0.00     0.001 A 
HETATM   29  C21 UNL     1      27.994   4.836  48.663  1.00  0.00     0.017 A 
ENDBRANCH  21  24
ENDBRANCH   1  20
TORSDOF 5
ENDMDL
MODEL 4
REMARK VINA RESULT:      -8.3      4.936      6.900
REMARK  5 active torsions:
REMARK  status: ('A' for Active; 'I' for Inactive)
REMARK       I    between atoms: C1_2  and  N1_3 
REMARK    1  A    between atoms: C1_2  and  C16_21 
REMARK    2  A    between atoms: N1_3  and  C2_4 
REMARK    3  A    between atoms: C5_7  and  N2_8 
REMARK    4  A    between atoms: N2_8  and  C6_9 
REMARK    5  A    between atoms: N3_17  and  O2_18 
ROOT
HETATM    1  C2  UNL     1      23.610   3.607  50.931  1.00  0.00     0.035 A 
HETATM    2  C3  UNL     1      24.621   3.231  50.124  1.00  0.00     0.032 A 
HETATM    3  C4  UNL     1      25.515   4.264  49.812  1.00  0.00     0.031 A 
HETATM    4  C5  UNL     1      25.304   5.540  50.346  1.00  0.00     0.029 A 
HETATM    5  C14 UNL     1      24.219   5.818  51.181  1.00  0.00     0.031 A 
HETATM    6  C15 UNL     1      23.291   4.838  51.527  1.00  0.00     0.032 A 
ENDROOT
BRANCH   4   7
HETATM    7  N2  UNL     1      26.199   6.630  50.114  1.00  0.00    -0.366 N 
HETATM    8  H4  UNL     1      26.517   7.155  50.991  1.00  0.00     0.162 HD
BRANCH   7   9
HETATM    9  C6  UNL     1      26.778   7.176  48.877  1.00  0.00     0.221 C 
HETATM   10  C7  UNL     1      25.759   7.438  47.842  1.00  0.00     0.056 C 
HETATM   11  C8  UNL     1      26.280   8.059  46.626  1.00  0.00     0.007 C 
HETATM   12  C9  UNL     1      27.546   8.148  46.313  1.00  0.00     0.055 A 
HETATM   13  C10 UNL     1      28.546   8.619  45.373  1.00  0.00    -0.015 A 
HETATM   14  C12 UNL     1      29.140   7.629  46.765  1.00  0.00     0.015 A 
HETATM   15  C11 UNL     1      29.806   8.262  45.704  1.00  0.00     0.014 A 
HETATM   16  C13 UNL     1      28.595   7.096  47.617  1.00  0.00    -0.006 C 
HETATM   17  N3  UNL     1      27.946   6.466  48.591  1.00  0.00    -0.201 N 
BRANCH  17  18
HETATM   18  O2  UNL     1      28.654   5.362  48.922  1.00  0.00    -0.278 OA
HETATM   19  H12 UNL     1      28.051   4.584  48.828  1.00  0.00     0.245 HD
ENDBRANCH  17  18
ENDBRANCH   7   9
ENDBRANCH   4   7
BRANCH   1  20
HETATM   20  N1  UNL     1      22.648   2.588  51.322  1.00  0.00    -0.323 N 
HETATM   21  C1  UNL     1      23.176   1.955  52.472  1.00  0.00     0.256 C 
HETATM   22  O1  UNL     1      24.263   2.327  52.923  1.00  0.00    -0.267 OA
HETATM   23  H1  UNL     1      21.753   2.343  50.870  1.00  0.00     0.169 HD
BRANCH  21  24
HETATM   24  C16 UNL     1      22.440   0.862  53.138  1.00  0.00     0.032 A 
HETATM   25  C17 UNL     1      21.068   0.935  53.234  1.00  0.00     0.017 A 
HETATM   26  C18 UNL     1      20.398  -0.098  53.849  1.00  0.00     0.001 A 
HETATM   27  C19 UNL     1      20.999  -1.221  54.389  1.00  0.00     0.000 A 
HETATM   28  C20 UNL     1      22.390  -1.204  54.244  1.00  0.00     0.001 A 
HETATM   29  C21 UNL     1      23.151  -0.214  53.642  1.00  0.00     0.017 A 
ENDBRANCH  21  24
ENDBRANCH   1  20
TORSDOF 5
ENDMDL
MODEL 5
REMARK VINA RESULT:      -8.2      4.792      6.335
REMARK  5 active torsions:
REMARK  status: ('A' for Active; 'I' for Inactive)
REMARK       I    between atoms: C1_2  and  N1_3 
REMARK    1  A    between atoms: C1_2  and  C16_21 
REMARK    2  A    between atoms: N1_3  and  C2_4 
REMARK    3  A    between atoms: C5_7  and  N2_8 
REMARK    4  A    between atoms: N2_8  and  C6_9 
REMARK    5  A    between atoms: N3_17  and  O2_18 
ROOT
HETATM    1  C2  UNL     1      22.896   4.011  50.980  1.00  0.00     0.035 A 
HETATM    2  C3  UNL     1      23.016   3.729  49.668  1.00  0.00     0.032 A 
HETATM    3  C4  UNL     1      23.765   4.669  48.950  1.00  0.00     0.031 A 
HETATM    4  C5  UNL     1      24.312   5.769  49.620  1.00  0.00     0.029 A 
HETATM    5  C14 UNL     1      24.128   5.962  50.992  1.00  0.00     0.031 A 
HETATM    6  C15 UNL     1      23.390   5.067  51.763  1.00  0.00     0.032 A 
ENDROOT
BRANCH   4   7
HETATM    7  N2  UNL     1      25.129   6.742  48.965  1.00  0.00    -0.366 N 
HETATM    8  H4  UNL     1      24.613   7.613  48.616  1.00  0.00     0.162 HD
BRANCH   7   9
HETATM    9  C6  UNL     1      26.571   6.776  48.675  1.00  0.00     0.221 C 
HETATM   10  C7  UNL     1      27.169   5.429  48.615  1.00  0.00     0.056 C 
HETATM   11  C8  UNL     1      28.584   5.412  48.248  1.00  0.00     0.007 C 
HETATM   12  C9  UNL     1      29.366   6.459  48.229  1.00  0.00     0.055 A 
HETATM   13  C10 UNL     1      30.685   6.999  47.957  1.00  0.00    -0.015 A 
HETATM   14  C12 UNL     1      29.468   8.138  48.659  1.00  0.00     0.015 A 
HETATM   15  C11 UNL     1      30.799   8.312  48.250  1.00  0.00     0.014 A 
HETATM   16  C13 UNL     1      28.391   7.989  49.011  1.00  0.00    -0.006 C 
HETATM   17  N3  UNL     1      27.145   7.799  49.435  1.00  0.00    -0.201 N 
BRANCH  17  18
HETATM   18  O2  UNL     1      26.913   8.653  50.456  1.00  0.00    -0.278 OA
HETATM   19  H12 UNL     1      25.962   8.924  50.406  1.00  0.00     0.245 HD
ENDBRANCH  17  18
ENDBRANCH   7   9
ENDBRANCH   4   7
BRANCH   1  20
HETATM   20  N1  UNL     1      22.150   3.072  51.804  1.00  0.00    -0.323 N 
HETATM   21  C1  UNL     1      23.071   2.085  52.225  1.00  0.00     0.256 C 
HETATM   22  O1  UNL     1      24.249   2.164  51.864  1.00  0.00    -0.267 OA
HETATM   23  H1  UNL     1      21.147   3.089  52.048  1.00  0.00     0.169 HD
BRANCH  21  24
HETATM   24  C16 UNL     1      22.641   0.969  53.090  1.00  0.00     0.032 A 
HETATM   25  C17 UNL     1      21.318   0.877  53.461  1.00  0.00     0.017 A 
HETATM   26  C18 UNL     1      20.933  -0.176  54.260  1.00  0.00     0.001 A 
HETATM   27  C19 UNL     1      21.779  -1.163  54.731  1.00  0.00     0.000 A 
HETATM   28  C20 UNL     1      23.099  -0.984  54.303  1.00  0.00     0.001 A 
HETATM   29  C21 UNL     1      23.581   0.039  53.501  1.00  0.00     0.017 A 
ENDBRANCH  21  24
ENDBRANCH   1  20
TORSDOF 5
ENDMDL
MODEL 6
REMARK VINA RESULT:      -8.2      5.788      7.457
REMARK  5 active torsions:
REMARK  status: ('A' for Active; 'I' for Inactive)
REMARK       I    between atoms: C1_2  and  N1_3 
REMARK    1  A    between atoms: C1_2  and  C16_21 
REMARK    2  A    between atoms: N1_3  and  C2_4 
REMARK    3  A    between atoms: C5_7  and  N2_8 
REMARK    4  A    between atoms: N2_8  and  C6_9 
REMARK    5  A    between atoms: N3_17  and  O2_18 
ROOT
HETATM    1  C2  UNL     1      25.529   4.030  50.649  1.00  0.00     0.035 A 
HETATM    2  C3  UNL     1      26.569   3.666  49.874  1.00  0.00     0.032 A 
HETATM    3  C4  UNL     1      26.974   4.650  48.964  1.00  0.00     0.031 A 
HETATM    4  C5  UNL     1      26.307   5.880  48.940  1.00  0.00     0.029 A 
HETATM    5  C14 UNL     1      25.237   6.154  49.797  1.00  0.00     0.031 A 
HETATM    6  C15 UNL     1      24.782   5.216  50.722  1.00  0.00     0.032 A 
ENDROOT
BRANCH   4   7
HETATM    7  N2  UNL     1      26.694   6.951  48.076  1.00  0.00    -0.366 N 
HETATM    8  H4  UNL     1      26.000   7.182  47.295  1.00  0.00     0.162 HD
BRANCH   7   9
HETATM    9  C6  UNL     1      27.887   7.811  48.056  1.00  0.00     0.221 C 
HETATM   10  C7  UNL     1      29.080   7.115  47.535  1.00  0.00     0.056 C 
HETATM   11  C8  UNL     1      30.268   7.957  47.421  1.00  0.00     0.007 C 
HETATM   12  C9  UNL     1      30.405   9.139  47.963  1.00  0.00     0.055 A 
HETATM   13  C10 UNL     1      31.237  10.313  48.150  1.00  0.00    -0.015 A 
HETATM   14  C12 UNL     1      29.676  10.267  49.063  1.00  0.00     0.015 A 
HETATM   15  C11 UNL     1      30.693  11.231  48.977  1.00  0.00     0.014 A 
HETATM   16  C13 UNL     1      28.859   9.473  49.147  1.00  0.00    -0.006 C 
HETATM   17  N3  UNL     1      27.925   8.532  49.252  1.00  0.00    -0.201 N 
BRANCH  17  18
HETATM   18  O2  UNL     1      27.380   8.616  50.486  1.00  0.00    -0.278 OA
HETATM   19  H12 UNL     1      27.964   8.109  51.104  1.00  0.00     0.245 HD
ENDBRANCH  17  18
ENDBRANCH   7   9
ENDBRANCH   4   7
BRANCH   1  20
HETATM   20  N1  UNL     1      25.059   3.071  51.637  1.00  0.00    -0.323 N 
HETATM   21  C1  UNL     1      24.009   2.346  51.028  1.00  0.00     0.256 C 
HETATM   22  O1  UNL     1      23.685   2.610  49.866  1.00  0.00    -0.267 OA
HETATM   23  H1  UNL     1      25.397   2.927  52.602  1.00  0.00     0.169 HD
BRANCH  21  24
HETATM   24  C16 UNL     1      23.304   1.276  51.763  1.00  0.00     0.032 A 
HETATM   25  C17 UNL     1      22.007   0.968  51.419  1.00  0.00     0.017 A 
HETATM   26  C18 UNL     1      21.368  -0.039  52.108  1.00  0.00     0.001 A 
HETATM   27  C19 UNL     1      21.930  -0.775  53.135  1.00  0.00     0.000 A 
HETATM   28  C20 UNL     1      23.246  -0.389  53.411  1.00  0.00     0.001 A 
HETATM   29  C21 UNL     1      23.971   0.607  52.775  1.00  0.00     0.017 A 
ENDBRANCH  21  24
ENDBRANCH   1  20
TORSDOF 5
ENDMDL
MODEL 7
REMARK VINA RESULT:      -8.1      5.164      7.621
REMARK  5 active torsions:
REMARK  status: ('A' for Active; 'I' for Inactive)
REMARK       I    between atoms: C1_2  and  N1_3 
REMARK    1  A    between atoms: C1_2  and  C16_21 
REMARK    2  A    between atoms: N1_3  and  C2_4 
REMARK    3  A    between atoms: C5_7  and  N2_8 
REMARK    4  A    between atoms: N2_8  and  C6_9 
REMARK    5  A    between atoms: N3_17  and  O2_18 
ROOT
HETATM    1  C2  UNL     1      24.460   3.013  50.533  1.00  0.00     0.035 A 
HETATM    2  C3  UNL     1      23.858   4.199  50.316  1.00  0.00     0.032 A 
HETATM    3  C4  UNL     1      24.729   5.211  49.893  1.00  0.00     0.031 A 
HETATM    4  C5  UNL     1      26.089   4.922  49.727  1.00  0.00     0.029 A 
HETATM    5  C14 UNL     1      26.607   3.649  49.977  1.00  0.00     0.031 A 
HETATM    6  C15 UNL     1      25.796   2.600  50.404  1.00  0.00     0.032 A 
ENDROOT
BRANCH   4   7
HETATM    7  N2  UNL     1      27.029   5.888  49.251  1.00  0.00    -0.366 N 
HETATM    8  H4  UNL     1      28.059   5.626  49.379  1.00  0.00     0.162 HD
BRANCH   7   9
HETATM    9  C6  UNL     1      26.847   7.197  48.605  1.00  0.00     0.221 C 
HETATM   10  C7  UNL     1      27.764   7.402  47.468  1.00  0.00     0.056 C 
HETATM   11  C8  UNL     1      27.562   8.656  46.747  1.00  0.00     0.007 C 
HETATM   12  C9  UNL     1      26.845   9.661  47.176  1.00  0.00     0.055 A 
HETATM   13  C10 UNL     1      26.319  10.989  46.921  1.00  0.00    -0.015 A 
HETATM   14  C12 UNL     1      25.984  10.280  48.552  1.00  0.00     0.015 A 
HETATM   15  C11 UNL     1      25.616  11.496  47.956  1.00  0.00     0.014 A 
HETATM   16  C13 UNL     1      26.303   9.298  49.042  1.00  0.00    -0.006 C 
HETATM   17  N3  UNL     1      26.697   8.161  49.607  1.00  0.00    -0.201 N 
BRANCH  17  18
HETATM   18  O2  UNL     1      26.824   8.373  50.936  1.00  0.00    -0.278 OA
HETATM   19  H12 UNL     1      26.097   7.875  51.386  1.00  0.00     0.245 HD
ENDBRANCH  17  18
ENDBRANCH   7   9
ENDBRANCH   4   7
BRANCH   1  20
HETATM   20  N1  UNL     1      23.622   1.900  50.954  1.00  0.00    -0.323 N 
HETATM   21  C1  UNL     1      23.626   1.906  52.369  1.00  0.00     0.256 C 
HETATM   22  O1  UNL     1      24.275   2.767  52.969  1.00  0.00    -0.267 OA
HETATM   23  H1  UNL     1      23.116   1.220  50.366  1.00  0.00     0.169 HD
BRANCH  21  24
HETATM   24  C16 UNL     1      22.861   0.898  53.130  1.00  0.00     0.032 A 
HETATM   25  C17 UNL     1      21.490   1.002  53.194  1.00  0.00     0.017 A 
HETATM   26  C18 UNL     1      20.793   0.047  53.901  1.00  0.00     0.001 A 
HETATM   27  C19 UNL     1      21.366  -1.023  54.563  1.00  0.00     0.000 A 
HETATM   28  C20 UNL     1      22.759  -1.042  54.441  1.00  0.00     0.001 A 
HETATM   29  C21 UNL     1      23.547  -0.131  53.754  1.00  0.00     0.017 A 
ENDBRANCH  21  24
ENDBRANCH   1  20
TORSDOF 5
ENDMDL
MODEL 8
REMARK VINA RESULT:      -8.1      4.238      8.864
REMARK  5 active torsions:
REMARK  status: ('A' for Active; 'I' for Inactive)
REMARK       I    between atoms: C1_2  and  N1_3 
REMARK    1  A    between atoms: C1_2  and  C16_21 
REMARK    2  A    between atoms: N1_3  and  C2_4 
REMARK    3  A    between atoms: C5_7  and  N2_8 
REMARK    4  A    between atoms: N2_8  and  C6_9 
REMARK    5  A    between atoms: N3_17  and  O2_18 
ROOT
HETATM    1  C2  UNL     1      24.499   4.199  50.456  1.00  0.00     0.035 A 
HETATM    2  C3  UNL     1      23.928   4.927  51.435  1.00  0.00     0.032 A 
HETATM    3  C4  UNL     1      22.590   4.596  51.684  1.00  0.00     0.031 A 
HETATM    4  C5  UNL     1      21.984   3.577  50.940  1.00  0.00     0.029 A 
HETATM    5  C14 UNL     1      22.676   2.880  49.946  1.00  0.00     0.031 A 
HETATM    6  C15 UNL     1      24.007   3.163  49.646  1.00  0.00     0.032 A 
ENDROOT
BRANCH   4   7
HETATM    7  N2  UNL     1      20.640   3.150  51.171  1.00  0.00    -0.366 N 
HETATM    8  H4  UNL     1      19.881   3.806  50.798  1.00  0.00     0.162 HD
BRANCH   7   9
HETATM    9  C6  UNL     1      20.091   1.957  51.833  1.00  0.00     0.221 C 
HETATM   10  C7  UNL     1      21.048   1.337  52.770  1.00  0.00     0.056 C 
HETATM   11  C8  UNL     1      20.516   0.197  53.512  1.00  0.00     0.007 C 
HETATM   12  C9  UNL     1      19.406  -0.432  53.226  1.00  0.00     0.055 A 
HETATM   13  C10 UNL     1      18.468  -1.483  53.572  1.00  0.00    -0.015 A 
HETATM   14  C12 UNL     1      18.145  -0.576  52.040  1.00  0.00     0.015 A 
HETATM   15  C11 UNL     1      17.453  -1.611  52.691  1.00  0.00     0.014 A 
HETATM   16  C13 UNL     1      18.721   0.251  51.502  1.00  0.00    -0.006 C 
HETATM   17  N3  UNL     1      19.410   1.199  50.876  1.00  0.00    -0.201 N 
BRANCH  17  18
HETATM   18  O2  UNL     1      19.208   1.059  49.547  1.00  0.00    -0.278 OA
HETATM   19  H12 UNL     1      18.798   1.898  49.219  1.00  0.00     0.245 HD
ENDBRANCH  17  18
ENDBRANCH   7   9
ENDBRANCH   4   7
BRANCH   1  20
HETATM   20  N1  UNL     1      25.897   4.465  50.149  1.00  0.00    -0.323 N 
HETATM   21  C1  UNL     1      25.905   5.408  49.095  1.00  0.00     0.256 C 
HETATM   22  O1  UNL     1      24.833   5.820  48.642  1.00  0.00    -0.267 OA
HETATM   23  H1  UNL     1      26.739   4.059  50.588  1.00  0.00     0.169 HD
BRANCH  21  24
HETATM   24  C16 UNL     1      27.179   5.905  48.536  1.00  0.00     0.032 A 
HETATM   25  C17 UNL     1      28.293   5.098  48.579  1.00  0.00     0.017 A 
HETATM   26  C18 UNL     1      29.468   5.574  48.044  1.00  0.00     0.001 A 
HETATM   27  C19 UNL     1      29.626   6.818  47.461  1.00  0.00     0.000 A 
HETATM   28  C20 UNL     1      28.442   7.563  47.465  1.00  0.00     0.001 A 
HETATM   29  C21 UNL     1      27.214   7.171  47.977  1.00  0.00     0.017 A 
ENDBRANCH  21  24
ENDBRANCH   1  20
TORSDOF 5
ENDMDL
MODEL 9
REMARK VINA RESULT:      -8.0      5.875      8.049
REMARK  5 active torsions:
REMARK  status: ('A' for Active; 'I' for Inactive)
REMARK       I    between atoms: C1_2  and  N1_3 
REMARK    1  A    between atoms: C1_2  and  C16_21 
REMARK    2  A    between atoms: N1_3  and  C2_4 
REMARK    3  A    between atoms: C5_7  and  N2_8 
REMARK    4  A    between atoms: N2_8  and  C6_9 
REMARK    5  A    between atoms: N3_17  and  O2_18 
ROOT
HETATM    1  C2  UNL     1      25.043   3.872  49.832  1.00  0.00     0.035 A 
HETATM    2  C3  UNL     1      24.618   5.136  50.021  1.00  0.00     0.032 A 
HETATM    3  C4  UNL     1      25.574   6.111  49.711  1.00  0.00     0.031 A 
HETATM    4  C5  UNL     1      26.832   5.716  49.241  1.00  0.00     0.029 A 
HETATM    5  C14 UNL     1      27.166   4.369  49.077  1.00  0.00     0.031 A 
HETATM    6  C15 UNL     1      26.263   3.350  49.372  1.00  0.00     0.032 A 
ENDROOT
BRANCH   4   7
HETATM    7  N2  UNL     1      27.840   6.653  48.857  1.00  0.00    -0.366 N 
HETATM    8  H4  UNL     1      28.831   6.254  48.783  1.00  0.00     0.162 HD
BRANCH   7   9
HETATM    9  C6  UNL     1      27.774   8.087  48.536  1.00  0.00     0.221 C 
HETATM   10  C7  UNL     1      27.337   8.338  47.149  1.00  0.00     0.056 C 
HETATM   11  C8  UNL     1      27.178   9.751  46.812  1.00  0.00     0.007 C 
HETATM   12  C9  UNL     1      27.624  10.748  47.531  1.00  0.00     0.055 A 
HETATM   13  C10 UNL     1      27.732  12.184  47.701  1.00  0.00    -0.015 A 
HETATM   14  C12 UNL     1      28.613  11.154  48.899  1.00  0.00     0.015 A 
HETATM   15  C11 UNL     1      28.469  12.545  48.772  1.00  0.00     0.014 A 
HETATM   16  C13 UNL     1      28.745  10.023  48.988  1.00  0.00    -0.006 C 
HETATM   17  N3  UNL     1      28.908   8.706  49.068  1.00  0.00    -0.201 N 
BRANCH  17  18
HETATM   18  O2  UNL     1      30.119   8.464  49.617  1.00  0.00    -0.278 OA
HETATM   19  H12 UNL     1      30.359   9.252  50.166  1.00  0.00     0.245 HD
ENDBRANCH  17  18
ENDBRANCH   7   9
ENDBRANCH   4   7
BRANCH   1  20
HETATM   20  N1  UNL     1      24.102   2.797  50.111  1.00  0.00    -0.323 N 
HETATM   21  C1  UNL     1      24.397   2.331  51.413  1.00  0.00     0.256 C 
HETATM   22  O1  UNL     1      25.315   2.855  52.051  1.00  0.00    -0.267 OA
HETATM   23  H1  UNL     1      23.360   2.420  49.500  1.00  0.00     0.169 HD
BRANCH  21  24
HETATM   24  C16 UNL     1      23.618   1.231  52.016  1.00  0.00     0.032 A 
HETATM   25  C17 UNL     1      24.178   0.487  53.029  1.00  0.00     0.017 A 
HETATM   26  C18 UNL     1      23.432  -0.528  53.587  1.00  0.00     0.001 A 
HETATM   27  C19 UNL     1      22.147  -0.867  53.205  1.00  0.00     0.000 A 
HETATM   28  C20 UNL     1      21.666  -0.057  52.172  1.00  0.00     0.001 A 
HETATM   29  C21 UNL     1      22.337   0.985  51.550  1.00  0.00     0.017 A 
ENDBRANCH  21  24
ENDBRANCH   1  20
TORSDOF 5
ENDMDL
