MODEL 1
REMARK VINA RESULT:      -7.3      0.000      0.000
REMARK  9 active torsions:
REMARK  status: ('A' for Active; 'I' for Inactive)
REMARK    1  A    between atoms: C2_2  and  C3_3 
REMARK    2  A    between atoms: C2_2  and  C12_15 
REMARK    3  A    between atoms: C4_4  and  C5_5 
REMARK    4  A    between atoms: C5_5  and  C6_6 
REMARK    5  A    between atoms: C6_6  and  C7_8 
REMARK    6  A    between atoms: C7_8  and  C8_9 
REMARK    7  A    between atoms: C8_9  and  N1_10 
REMARK    8  A    between atoms: N1_10  and  C10_12 
REMARK    9  A    between atoms: C12_15  and  C13_16 
ROOT
HETATM    1  C3  UNL     1      24.050   0.465  52.534  1.00  0.00    -0.001 C 
HETATM    2  C4  UNL     1      23.327  -0.536  52.975  1.00  0.00    -0.019 C 
ENDROOT
BRANCH   1   3
HETATM    3  C2  UNL     1      24.857   1.630  52.837  1.00  0.00    -0.076 C 
HETATM    4  C1  UNL     1      25.109   2.779  53.428  1.00  0.00     0.039 C 
BRANCH   3   5
HETATM    5  C12 UNL     1      26.199   1.816  52.230  1.00  0.00     0.073 C 
BRANCH   5   6
HETATM    6  C13 UNL     1      27.146   0.756  52.661  1.00  0.00    -0.048 A 
HETATM    7  C14 UNL     1      26.892  -0.597  52.424  1.00  0.00     0.008 A 
HETATM    8  C15 UNL     1      27.826  -1.518  52.850  1.00  0.00     0.001 A 
HETATM    9  C16 UNL     1      28.989  -1.143  53.494  1.00  0.00     0.001 A 
HETATM   10  C17 UNL     1      29.237   0.214  53.727  1.00  0.00     0.007 A 
HETATM   11  C18 UNL     1      28.303   1.136  53.303  1.00  0.00    -0.055 A 
HETATM   12  C19 UNL     1      28.702   2.530  53.626  1.00  0.00     0.049 C 
ENDBRANCH   5   6
ENDBRANCH   3   5
ENDBRANCH   1   3
BRANCH   2  13
HETATM   13  C5  UNL     1      23.056  -0.838  54.399  1.00  0.00     0.105 C 
BRANCH  13  14
HETATM   14  C6  UNL     1      21.608  -0.959  54.678  1.00  0.00     0.132 C 
HETATM   15  O1  UNL     1      21.252  -2.077  55.073  1.00  0.00    -0.298 OA
BRANCH  14  16
HETATM   16  C7  UNL     1      20.688   0.194  54.484  1.00  0.00     0.109 C 
BRANCH  16  17
HETATM   17  C8  UNL     1      19.732  -0.107  53.322  1.00  0.00     0.282 C 
BRANCH  17  18
HETATM   18  N1  UNL     1      19.882   0.941  52.370  1.00  0.00     0.115 N 
HETATM   19  C9  UNL     1      20.329   0.458  51.104  1.00  0.00     0.313 C 
BRANCH  18  20
HETATM   20  C10 UNL     1      20.631   2.078  52.785  1.00  0.00     0.382 A 
HETATM   21  C11 UNL     1      21.289   3.051  51.983  1.00  0.00     0.234 A 
HETATM   22  O2  UNL     1      19.965   3.343  52.636  1.00  0.00    -0.351 OA
ENDBRANCH  18  20
ENDBRANCH  17  18
ENDBRANCH  16  17
ENDBRANCH  14  16
ENDBRANCH  13  14
ENDBRANCH   2  13
TORSDOF 9
ENDMDL
MODEL 2
REMARK VINA RESULT:      -6.9      3.269      7.013
REMARK  9 active torsions:
REMARK  status: ('A' for Active; 'I' for Inactive)
REMARK    1  A    between atoms: C2_2  and  C3_3 
REMARK    2  A    between atoms: C2_2  and  C12_15 
REMARK    3  A    between atoms: C4_4  and  C5_5 
REMARK    4  A    between atoms: C5_5  and  C6_6 
REMARK    5  A    between atoms: C6_6  and  C7_8 
REMARK    6  A    between atoms: C7_8  and  C8_9 
REMARK    7  A    between atoms: C8_9  and  N1_10 
REMARK    8  A    between atoms: N1_10  and  C10_12 
REMARK    9  A    between atoms: C12_15  and  C13_16 
ROOT
HETATM    1  C3  UNL     1      22.769   2.478  51.075  1.00  0.00    -0.001 C 
HETATM    2  C4  UNL     1      23.932   2.978  51.421  1.00  0.00    -0.019 C 
ENDROOT
BRANCH   1   3
HETATM    3  C2  UNL     1      22.005   1.651  50.164  1.00  0.00    -0.076 C 
HETATM    4  C1  UNL     1      21.367   1.398  49.041  1.00  0.00     0.039 C 
BRANCH   3   5
HETATM    5  C12 UNL     1      21.623   0.261  50.521  1.00  0.00     0.073 C 
BRANCH   5   6
HETATM    6  C13 UNL     1      21.572   0.070  51.994  1.00  0.00    -0.048 A 
HETATM    7  C14 UNL     1      22.698  -0.317  52.723  1.00  0.00     0.008 A 
HETATM    8  C15 UNL     1      22.568  -0.467  54.088  1.00  0.00     0.001 A 
HETATM    9  C16 UNL     1      21.372  -0.246  54.742  1.00  0.00     0.001 A 
HETATM   10  C17 UNL     1      20.247   0.142  54.005  1.00  0.00     0.007 A 
HETATM   11  C18 UNL     1      20.376   0.291  52.639  1.00  0.00    -0.055 A 
HETATM   12  C19 UNL     1      19.101   0.698  51.995  1.00  0.00     0.049 C 
ENDBRANCH   5   6
ENDBRANCH   3   5
ENDBRANCH   1   3
BRANCH   2  13
HETATM   13  C5  UNL     1      25.212   2.739  50.717  1.00  0.00     0.105 C 
BRANCH  13  14
HETATM   14  C6  UNL     1      26.250   2.192  51.618  1.00  0.00     0.132 C 
HETATM   15  O1  UNL     1      27.370   2.702  51.483  1.00  0.00    -0.298 OA
BRANCH  14  16
HETATM   16  C7  UNL     1      25.933   1.115  52.594  1.00  0.00     0.109 C 
BRANCH  16  17
HETATM   17  C8  UNL     1      26.986   0.004  52.488  1.00  0.00     0.282 C 
BRANCH  17  18
HETATM   18  N1  UNL     1      27.314  -0.395  53.816  1.00  0.00     0.115 N 
HETATM   19  C9  UNL     1      26.397   0.128  54.776  1.00  0.00     0.313 C 
BRANCH  18  20
HETATM   20  C10 UNL     1      28.663  -0.199  54.226  1.00  0.00     0.382 A 
HETATM   21  C11 UNL     1      29.854  -0.714  53.645  1.00  0.00     0.234 A 
HETATM   22  O2  UNL     1      29.426   0.711  53.417  1.00  0.00    -0.351 OA
ENDBRANCH  18  20
ENDBRANCH  17  18
ENDBRANCH  16  17
ENDBRANCH  14  16
ENDBRANCH  13  14
ENDBRANCH   2  13
TORSDOF 9
ENDMDL
MODEL 3
REMARK VINA RESULT:      -6.9      3.530      5.546
REMARK  9 active torsions:
REMARK  status: ('A' for Active; 'I' for Inactive)
REMARK    1  A    between atoms: C2_2  and  C3_3 
REMARK    2  A    between atoms: C2_2  and  C12_15 
REMARK    3  A    between atoms: C4_4  and  C5_5 
REMARK    4  A    between atoms: C5_5  and  C6_6 
REMARK    5  A    between atoms: C6_6  and  C7_8 
REMARK    6  A    between atoms: C7_8  and  C8_9 
REMARK    7  A    between atoms: C8_9  and  N1_10 
REMARK    8  A    between atoms: N1_10  and  C10_12 
REMARK    9  A    between atoms: C12_15  and  C13_16 
ROOT
HETATM    1  C3  UNL     1      26.250   1.946  51.721  1.00  0.00    -0.001 C 
HETATM    2  C4  UNL     1      26.687   2.781  50.809  1.00  0.00    -0.019 C 
ENDROOT
BRANCH   1   3
HETATM    3  C2  UNL     1      25.154   1.156  52.244  1.00  0.00    -0.076 C 
HETATM    4  C1  UNL     1      23.900   0.758  52.305  1.00  0.00     0.039 C 
BRANCH   3   5
HETATM    5  C12 UNL     1      25.363   0.181  53.343  1.00  0.00     0.073 C 
BRANCH   5   6
HETATM    6  C13 UNL     1      26.808  -0.059  53.594  1.00  0.00    -0.048 A 
HETATM    7  C14 UNL     1      27.557   0.777  54.424  1.00  0.00     0.008 A 
HETATM    8  C15 UNL     1      28.891   0.482  54.611  1.00  0.00     0.001 A 
HETATM    9  C16 UNL     1      29.496  -0.604  54.008  1.00  0.00     0.001 A 
HETATM   10  C17 UNL     1      28.739  -1.438  53.178  1.00  0.00     0.007 A 
HETATM   11  C18 UNL     1      27.404  -1.142  52.990  1.00  0.00    -0.055 A 
HETATM   12  C19 UNL     1      26.737  -2.110  52.081  1.00  0.00     0.049 C 
ENDBRANCH   5   6
ENDBRANCH   3   5
ENDBRANCH   1   3
BRANCH   2  13
HETATM   13  C5  UNL     1      25.889   3.319  49.684  1.00  0.00     0.105 C 
BRANCH  13  14
HETATM   14  C6  UNL     1      26.474   4.559  49.128  1.00  0.00     0.132 C 
HETATM   15  O1  UNL     1      27.666   4.466  48.804  1.00  0.00    -0.298 OA
BRANCH  14  16
HETATM   16  C7  UNL     1      25.663   5.797  48.988  1.00  0.00     0.109 C 
BRANCH  16  17
HETATM   17  C8  UNL     1      25.218   6.275  50.377  1.00  0.00     0.282 C 
BRANCH  17  18
HETATM   18  N1  UNL     1      23.798   6.386  50.351  1.00  0.00     0.115 N 
HETATM   19  C9  UNL     1      23.364   7.745  50.357  1.00  0.00     0.313 C 
BRANCH  18  20
HETATM   20  C10 UNL     1      23.080   5.609  51.304  1.00  0.00     0.382 A 
HETATM   21  C11 UNL     1      22.755   4.225  51.259  1.00  0.00     0.234 A 
HETATM   22  O2  UNL     1      23.882   4.736  52.115  1.00  0.00    -0.351 OA
ENDBRANCH  18  20
ENDBRANCH  17  18
ENDBRANCH  16  17
ENDBRANCH  14  16
ENDBRANCH  13  14
ENDBRANCH   2  13
TORSDOF 9
ENDMDL
MODEL 4
REMARK VINA RESULT:      -6.8      1.746      2.185
REMARK  9 active torsions:
REMARK  status: ('A' for Active; 'I' for Inactive)
REMARK    1  A    between atoms: C2_2  and  C3_3 
REMARK    2  A    between atoms: C2_2  and  C12_15 
REMARK    3  A    between atoms: C4_4  and  C5_5 
REMARK    4  A    between atoms: C5_5  and  C6_6 
REMARK    5  A    between atoms: C6_6  and  C7_8 
REMARK    6  A    between atoms: C7_8  and  C8_9 
REMARK    7  A    between atoms: C8_9  and  N1_10 
REMARK    8  A    between atoms: N1_10  and  C10_12 
REMARK    9  A    between atoms: C12_15  and  C13_16 
ROOT
HETATM    1  C3  UNL     1      24.224  -0.007  53.449  1.00  0.00    -0.001 C 
HETATM    2  C4  UNL     1      23.092  -0.606  53.737  1.00  0.00    -0.019 C 
ENDROOT
BRANCH   1   3
HETATM    3  C2  UNL     1      24.943   1.233  53.240  1.00  0.00    -0.076 C 
HETATM    4  C1  UNL     1      25.182   2.513  53.429  1.00  0.00     0.039 C 
BRANCH   3   5
HETATM    5  C12 UNL     1      26.108   1.302  52.321  1.00  0.00     0.073 C 
BRANCH   5   6
HETATM    6  C13 UNL     1      27.187   0.369  52.735  1.00  0.00    -0.048 A 
HETATM    7  C14 UNL     1      27.073  -1.011  52.555  1.00  0.00     0.008 A 
HETATM    8  C15 UNL     1      28.124  -1.808  52.960  1.00  0.00     0.001 A 
HETATM    9  C16 UNL     1      29.268  -1.284  53.530  1.00  0.00     0.001 A 
HETATM   10  C17 UNL     1      29.375   0.100  53.707  1.00  0.00     0.007 A 
HETATM   11  C18 UNL     1      28.324   0.897  53.303  1.00  0.00    -0.055 A 
HETATM   12  C19 UNL     1      28.580   2.338  53.561  1.00  0.00     0.049 C 
ENDBRANCH   5   6
ENDBRANCH   3   5
ENDBRANCH   1   3
BRANCH   2  13
HETATM   13  C5  UNL     1      21.809   0.076  54.023  1.00  0.00     0.105 C 
BRANCH  13  14
HETATM   14  C6  UNL     1      20.829  -0.100  52.928  1.00  0.00     0.132 C 
HETATM   15  O1  UNL     1      19.724  -0.526  53.291  1.00  0.00    -0.298 OA
BRANCH  14  16
HETATM   16  C7  UNL     1      21.183   0.218  51.520  1.00  0.00     0.109 C 
BRANCH  16  17
HETATM   17  C8  UNL     1      20.923   1.707  51.253  1.00  0.00     0.282 C 
BRANCH  17  18
HETATM   18  N1  UNL     1      22.174   2.381  51.367  1.00  0.00     0.115 N 
HETATM   19  C9  UNL     1      22.018   3.744  51.760  1.00  0.00     0.313 C 
BRANCH  18  20
HETATM   20  C10 UNL     1      23.067   2.258  50.265  1.00  0.00     0.382 A 
HETATM   21  C11 UNL     1      22.949   2.809  48.960  1.00  0.00     0.234 A 
HETATM   22  O2  UNL     1      23.863   3.422  49.986  1.00  0.00    -0.351 OA
ENDBRANCH  18  20
ENDBRANCH  17  18
ENDBRANCH  16  17
ENDBRANCH  14  16
ENDBRANCH  13  14
ENDBRANCH   2  13
TORSDOF 9
ENDMDL
MODEL 5
REMARK VINA RESULT:      -6.7      3.253      6.818
REMARK  9 active torsions:
REMARK  status: ('A' for Active; 'I' for Inactive)
REMARK    1  A    between atoms: C2_2  and  C3_3 
REMARK    2  A    between atoms: C2_2  and  C12_15 
REMARK    3  A    between atoms: C4_4  and  C5_5 
REMARK    4  A    between atoms: C5_5  and  C6_6 
REMARK    5  A    between atoms: C6_6  and  C7_8 
REMARK    6  A    between atoms: C7_8  and  C8_9 
REMARK    7  A    between atoms: C8_9  and  N1_10 
REMARK    8  A    between atoms: N1_10  and  C10_12 
REMARK    9  A    between atoms: C12_15  and  C13_16 
ROOT
HETATM    1  C3  UNL     1      25.328   2.215  51.446  1.00  0.00    -0.001 C 
HETATM    2  C4  UNL     1      26.568   2.120  51.862  1.00  0.00    -0.019 C 
ENDROOT
BRANCH   1   3
HETATM    3  C2  UNL     1      23.924   2.353  51.777  1.00  0.00    -0.076 C 
HETATM    4  C1  UNL     1      22.874   2.984  52.258  1.00  0.00     0.039 C 
BRANCH   3   5
HETATM    5  C12 UNL     1      22.955   1.266  51.487  1.00  0.00     0.073 C 
BRANCH   5   6
HETATM    6  C13 UNL     1      22.774   0.368  52.655  1.00  0.00    -0.048 A 
HETATM    7  C14 UNL     1      23.850  -0.016  53.460  1.00  0.00     0.008 A 
HETATM    8  C15 UNL     1      23.596  -0.847  54.531  1.00  0.00     0.001 A 
HETATM    9  C16 UNL     1      22.326  -1.303  54.824  1.00  0.00     0.001 A 
HETATM   10  C17 UNL     1      21.253  -0.915  54.014  1.00  0.00     0.007 A 
HETATM   11  C18 UNL     1      21.506  -0.084  52.942  1.00  0.00    -0.055 A 
HETATM   12  C19 UNL     1      20.274   0.235  52.175  1.00  0.00     0.049 C 
ENDBRANCH   5   6
ENDBRANCH   3   5
ENDBRANCH   1   3
BRANCH   2  13
HETATM   13  C5  UNL     1      27.002   2.133  53.278  1.00  0.00     0.105 C 
BRANCH  13  14
HETATM   14  C6  UNL     1      28.475   2.095  53.410  1.00  0.00     0.132 C 
HETATM   15  O1  UNL     1      29.060   3.078  52.935  1.00  0.00    -0.298 OA
BRANCH  14  16
HETATM   16  C7  UNL     1      29.159   0.950  54.066  1.00  0.00     0.109 C 
BRANCH  16  17
HETATM   17  C8  UNL     1      28.111   0.013  54.680  1.00  0.00     0.282 C 
BRANCH  17  18
HETATM   18  N1  UNL     1      28.237  -1.248  54.029  1.00  0.00     0.115 N 
HETATM   19  C9  UNL     1      29.453  -1.352  53.290  1.00  0.00     0.313 C 
BRANCH  18  20
HETATM   20  C10 UNL     1      27.123  -1.681  53.256  1.00  0.00     0.382 A 
HETATM   21  C11 UNL     1      26.845  -1.440  51.882  1.00  0.00     0.234 A 
HETATM   22  O2  UNL     1      27.386  -2.764  52.349  1.00  0.00    -0.351 OA
ENDBRANCH  18  20
ENDBRANCH  17  18
ENDBRANCH  16  17
ENDBRANCH  14  16
ENDBRANCH  13  14
ENDBRANCH   2  13
TORSDOF 9
ENDMDL
MODEL 6
REMARK VINA RESULT:      -6.6      2.921      5.336
REMARK  9 active torsions:
REMARK  status: ('A' for Active; 'I' for Inactive)
REMARK    1  A    between atoms: C2_2  and  C3_3 
REMARK    2  A    between atoms: C2_2  and  C12_15 
REMARK    3  A    between atoms: C4_4  and  C5_5 
REMARK    4  A    between atoms: C5_5  and  C6_6 
REMARK    5  A    between atoms: C6_6  and  C7_8 
REMARK    6  A    between atoms: C7_8  and  C8_9 
REMARK    7  A    between atoms: C8_9  and  N1_10 
REMARK    8  A    between atoms: N1_10  and  C10_12 
REMARK    9  A    between atoms: C12_15  and  C13_16 
ROOT
HETATM    1  C3  UNL     1      26.733   1.998  51.180  1.00  0.00    -0.001 C 
HETATM    2  C4  UNL     1      26.409   2.562  50.041  1.00  0.00    -0.019 C 
ENDROOT
BRANCH   1   3
HETATM    3  C2  UNL     1      27.247   2.147  52.526  1.00  0.00    -0.076 C 
HETATM    4  C1  UNL     1      28.199   2.295  53.424  1.00  0.00     0.039 C 
BRANCH   3   5
HETATM    5  C12 UNL     1      26.339   2.164  53.700  1.00  0.00     0.073 C 
BRANCH   5   6
HETATM    6  C13 UNL     1      25.085   1.415  53.433  1.00  0.00    -0.048 A 
HETATM    7  C14 UNL     1      25.026   0.023  53.534  1.00  0.00     0.008 A 
HETATM    8  C15 UNL     1      23.821  -0.597  53.277  1.00  0.00     0.001 A 
HETATM    9  C16 UNL     1      22.688   0.113  52.927  1.00  0.00     0.001 A 
HETATM   10  C17 UNL     1      22.755   1.507  52.827  1.00  0.00     0.007 A 
HETATM   11  C18 UNL     1      23.960   2.127  53.084  1.00  0.00    -0.055 A 
HETATM   12  C19 UNL     1      23.876   3.603  52.932  1.00  0.00     0.049 C 
ENDBRANCH   5   6
ENDBRANCH   3   5
ENDBRANCH   1   3
BRANCH   2  13
HETATM   13  C5  UNL     1      26.531   4.005  49.732  1.00  0.00     0.105 C 
BRANCH  13  14
HETATM   14  C6  UNL     1      25.216   4.682  49.703  1.00  0.00     0.132 C 
HETATM   15  O1  UNL     1      25.182   5.766  50.299  1.00  0.00    -0.298 OA
BRANCH  14  16
HETATM   16  C7  UNL     1      24.053   4.074  49.004  1.00  0.00     0.109 C 
BRANCH  16  17
HETATM   17  C8  UNL     1      22.752   4.592  49.633  1.00  0.00     0.282 C 
BRANCH  17  18
HETATM   18  N1  UNL     1      21.761   3.586  49.443  1.00  0.00     0.115 N 
HETATM   19  C9  UNL     1      20.769   3.609  50.469  1.00  0.00     0.313 C 
BRANCH  18  20
HETATM   20  C10 UNL     1      22.232   2.263  49.207  1.00  0.00     0.382 A 
HETATM   21  C11 UNL     1      21.558   1.029  49.414  1.00  0.00     0.234 A 
HETATM   22  O2  UNL     1      21.701   1.621  48.037  1.00  0.00    -0.351 OA
ENDBRANCH  18  20
ENDBRANCH  17  18
ENDBRANCH  16  17
ENDBRANCH  14  16
ENDBRANCH  13  14
ENDBRANCH   2  13
TORSDOF 9
ENDMDL
MODEL 7
REMARK VINA RESULT:      -6.6      5.874      7.873
REMARK  9 active torsions:
REMARK  status: ('A' for Active; 'I' for Inactive)
REMARK    1  A    between atoms: C2_2  and  C3_3 
REMARK    2  A    between atoms: C2_2  and  C12_15 
REMARK    3  A    between atoms: C4_4  and  C5_5 
REMARK    4  A    between atoms: C5_5  and  C6_6 
REMARK    5  A    between atoms: C6_6  and  C7_8 
REMARK    6  A    between atoms: C7_8  and  C8_9 
REMARK    7  A    between atoms: C8_9  and  N1_10 
REMARK    8  A    between atoms: N1_10  and  C10_12 
REMARK    9  A    between atoms: C12_15  and  C13_16 
ROOT
HETATM    1  C3  UNL     1      26.174   2.664  50.614  1.00  0.00    -0.001 C 
HETATM    2  C4  UNL     1      26.679   3.389  49.645  1.00  0.00    -0.019 C 
ENDROOT
BRANCH   1   3
HETATM    3  C2  UNL     1      25.254   2.566  51.729  1.00  0.00    -0.076 C 
HETATM    4  C1  UNL     1      24.067   2.615  52.297  1.00  0.00     0.039 C 
BRANCH   3   5
HETATM    5  C12 UNL     1      25.731   2.231  53.094  1.00  0.00     0.073 C 
BRANCH   5   6
HETATM    6  C13 UNL     1      26.592   1.020  53.090  1.00  0.00    -0.048 A 
HETATM    7  C14 UNL     1      26.074  -0.248  52.820  1.00  0.00     0.008 A 
HETATM    8  C15 UNL     1      26.942  -1.320  52.829  1.00  0.00     0.001 A 
HETATM    9  C16 UNL     1      28.290  -1.174  53.094  1.00  0.00     0.001 A 
HETATM   10  C17 UNL     1      28.802   0.100  53.363  1.00  0.00     0.007 A 
HETATM   11  C18 UNL     1      27.934   1.172  53.355  1.00  0.00    -0.055 A 
HETATM   12  C19 UNL     1      28.621   2.453  53.664  1.00  0.00     0.049 C 
ENDBRANCH   5   6
ENDBRANCH   3   5
ENDBRANCH   1   3
BRANCH   2  13
HETATM   13  C5  UNL     1      26.305   4.787  49.334  1.00  0.00     0.105 C 
BRANCH  13  14
HETATM   14  C6  UNL     1      27.374   5.501  48.601  1.00  0.00     0.132 C 
HETATM   15  O1  UNL     1      28.446   4.887  48.529  1.00  0.00    -0.298 OA
BRANCH  14  16
HETATM   16  C7  UNL     1      27.138   6.847  48.014  1.00  0.00     0.109 C 
BRANCH  16  17
HETATM   17  C8  UNL     1      27.208   7.905  49.123  1.00  0.00     0.282 C 
BRANCH  17  18
HETATM   18  N1  UNL     1      28.010   8.977  48.634  1.00  0.00     0.115 N 
HETATM   19  C9  UNL     1      28.070   8.997  47.208  1.00  0.00     0.313 C 
BRANCH  18  20
HETATM   20  C10 UNL     1      29.304   9.120  49.209  1.00  0.00     0.382 A 
HETATM   21  C11 UNL     1      30.449   8.294  49.038  1.00  0.00     0.234 A 
HETATM   22  O2  UNL     1      30.321   9.611  48.321  1.00  0.00    -0.351 OA
ENDBRANCH  18  20
ENDBRANCH  17  18
ENDBRANCH  16  17
ENDBRANCH  14  16
ENDBRANCH  13  14
ENDBRANCH   2  13
TORSDOF 9
ENDMDL
MODEL 8
REMARK VINA RESULT:      -6.6      3.139      7.691
REMARK  9 active torsions:
REMARK  status: ('A' for Active; 'I' for Inactive)
REMARK    1  A    between atoms: C2_2  and  C3_3 
REMARK    2  A    between atoms: C2_2  and  C12_15 
REMARK    3  A    between atoms: C4_4  and  C5_5 
REMARK    4  A    between atoms: C5_5  and  C6_6 
REMARK    5  A    between atoms: C6_6  and  C7_8 
REMARK    6  A    between atoms: C7_8  and  C8_9 
REMARK    7  A    between atoms: C8_9  and  N1_10 
REMARK    8  A    between atoms: N1_10  and  C10_12 
REMARK    9  A    between atoms: C12_15  and  C13_16 
ROOT
HETATM    1  C3  UNL     1      22.936   0.987  51.823  1.00  0.00    -0.001 C 
HETATM    2  C4  UNL     1      23.898   1.735  51.338  1.00  0.00    -0.019 C 
ENDROOT
BRANCH   1   3
HETATM    3  C2  UNL     1      22.333   0.348  52.974  1.00  0.00    -0.076 C 
HETATM    4  C1  UNL     1      22.260  -0.559  53.926  1.00  0.00     0.039 C 
BRANCH   3   5
HETATM    5  C12 UNL     1      21.072   0.859  53.567  1.00  0.00     0.073 C 
BRANCH   5   6
HETATM    6  C13 UNL     1      19.977   0.910  52.565  1.00  0.00    -0.048 A 
HETATM    7  C14 UNL     1      19.251  -0.230  52.213  1.00  0.00     0.008 A 
HETATM    8  C15 UNL     1      18.245  -0.097  51.279  1.00  0.00     0.001 A 
HETATM    9  C16 UNL     1      17.941   1.116  50.692  1.00  0.00     0.001 A 
HETATM   10  C17 UNL     1      18.672   2.254  51.050  1.00  0.00     0.007 A 
HETATM   11  C18 UNL     1      19.679   2.121  51.983  1.00  0.00    -0.055 A 
HETATM   12  C19 UNL     1      20.367   3.410  52.255  1.00  0.00     0.049 C 
ENDBRANCH   5   6
ENDBRANCH   3   5
ENDBRANCH   1   3
BRANCH   2  13
HETATM   13  C5  UNL     1      25.007   2.323  52.124  1.00  0.00     0.105 C 
BRANCH  13  14
HETATM   14  C6  UNL     1      26.315   1.725  51.776  1.00  0.00     0.132 C 
HETATM   15  O1  UNL     1      27.152   2.532  51.349  1.00  0.00    -0.298 OA
BRANCH  14  16
HETATM   16  C7  UNL     1      26.564   0.268  51.941  1.00  0.00     0.109 C 
BRANCH  16  17
HETATM   17  C8  UNL     1      26.206  -0.151  53.373  1.00  0.00     0.282 C 
BRANCH  17  18
HETATM   18  N1  UNL     1      27.410  -0.586  53.999  1.00  0.00     0.115 N 
HETATM   19  C9  UNL     1      27.935   0.392  54.895  1.00  0.00     0.313 C 
BRANCH  18  20
HETATM   20  C10 UNL     1      28.425  -1.100  53.142  1.00  0.00     0.382 A 
HETATM   21  C11 UNL     1      29.817  -1.240  53.396  1.00  0.00     0.234 A 
HETATM   22  O2  UNL     1      28.888  -2.422  53.461  1.00  0.00    -0.351 OA
ENDBRANCH  18  20
ENDBRANCH  17  18
ENDBRANCH  16  17
ENDBRANCH  14  16
ENDBRANCH  13  14
ENDBRANCH   2  13
TORSDOF 9
ENDMDL
MODEL 9
REMARK VINA RESULT:      -6.6      2.352      4.303
REMARK  9 active torsions:
REMARK  status: ('A' for Active; 'I' for Inactive)
REMARK    1  A    between atoms: C2_2  and  C3_3 
REMARK    2  A    between atoms: C2_2  and  C12_15 
REMARK    3  A    between atoms: C4_4  and  C5_5 
REMARK    4  A    between atoms: C5_5  and  C6_6 
REMARK    5  A    between atoms: C6_6  and  C7_8 
REMARK    6  A    between atoms: C7_8  and  C8_9 
REMARK    7  A    between atoms: C8_9  and  N1_10 
REMARK    8  A    between atoms: N1_10  and  C10_12 
REMARK    9  A    between atoms: C12_15  and  C13_16 
ROOT
HETATM    1  C3  UNL     1      26.514   2.423  50.856  1.00  0.00    -0.001 C 
HETATM    2  C4  UNL     1      26.588   3.233  49.827  1.00  0.00    -0.019 C 
ENDROOT
BRANCH   1   3
HETATM    3  C2  UNL     1      25.893   2.094  52.123  1.00  0.00    -0.076 C 
HETATM    4  C1  UNL     1      25.219   2.365  53.221  1.00  0.00     0.039 C 
BRANCH   3   5
HETATM    5  C12 UNL     1      25.937   0.713  52.666  1.00  0.00     0.073 C 
BRANCH   5   6
HETATM    6  C13 UNL     1      27.321   0.307  53.020  1.00  0.00    -0.048 A 
HETATM    7  C14 UNL     1      28.258   1.230  53.491  1.00  0.00     0.008 A 
HETATM    8  C15 UNL     1      29.521   0.771  53.805  1.00  0.00     0.001 A 
HETATM    9  C16 UNL     1      29.876  -0.557  53.667  1.00  0.00     0.001 A 
HETATM   10  C17 UNL     1      28.932  -1.476  53.195  1.00  0.00     0.007 A 
HETATM   11  C18 UNL     1      27.669  -1.017  52.881  1.00  0.00    -0.055 A 
HETATM   12  C19 UNL     1      26.783  -2.104  52.388  1.00  0.00     0.049 C 
ENDBRANCH   5   6
ENDBRANCH   3   5
ENDBRANCH   1   3
BRANCH   2  13
HETATM   13  C5  UNL     1      25.765   4.448  49.630  1.00  0.00     0.105 C 
BRANCH  13  14
HETATM   14  C6  UNL     1      24.325   4.186  49.844  1.00  0.00     0.132 C 
HETATM   15  O1  UNL     1      23.834   4.773  50.818  1.00  0.00    -0.298 OA
BRANCH  14  16
HETATM   16  C7  UNL     1      23.564   3.282  48.941  1.00  0.00     0.109 C 
BRANCH  16  17
HETATM   17  C8  UNL     1      22.157   3.057  49.512  1.00  0.00     0.282 C 
BRANCH  17  18
HETATM   18  N1  UNL     1      22.002   1.654  49.710  1.00  0.00     0.115 N 
HETATM   19  C9  UNL     1      20.729   1.186  49.266  1.00  0.00     0.313 C 
BRANCH  18  20
HETATM   20  C10 UNL     1      22.313   1.155  51.007  1.00  0.00     0.382 A 
HETATM   21  C11 UNL     1      21.736   1.506  52.258  1.00  0.00     0.234 A 
HETATM   22  O2  UNL     1      21.361   0.230  51.555  1.00  0.00    -0.351 OA
ENDBRANCH  18  20
ENDBRANCH  17  18
ENDBRANCH  16  17
ENDBRANCH  14  16
ENDBRANCH  13  14
ENDBRANCH   2  13
TORSDOF 9
ENDMDL
