MODEL 1
REMARK VINA RESULT:      -9.9      0.000      0.000
REMARK  0 active torsions:
REMARK  status: ('A' for Active; 'I' for Inactive)
ROOT
HETATM    1  C1  UNL     1      24.093   1.372  50.830  1.00  0.00     0.051 C 
HETATM    2  C2  UNL     1      24.027   1.009  52.305  1.00  0.00    -0.029 A 
HETATM    3  C3  UNL     1      22.802   1.462  52.696  1.00  0.00     0.034 A 
HETATM    4  C4  UNL     1      22.427   0.566  53.704  1.00  0.00     0.029 A 
HETATM    5  C5  UNL     1      23.250  -0.479  54.088  1.00  0.00     0.003 A 
HETATM    6  C6  UNL     1      24.494  -0.749  53.547  1.00  0.00     0.008 A 
HETATM    7  C7  UNL     1      24.944   0.087  52.545  1.00  0.00    -0.040 A 
HETATM    8  C8  UNL     1      26.321   0.359  51.962  1.00  0.00     0.076 C 
HETATM    9  C9  UNL     1      27.277  -0.223  53.052  1.00  0.00     0.021 C 
HETATM   10 CL1  UNL     1      28.681  -1.228  53.216  1.00  0.00    -0.088 Cl
HETATM   11  C10 UNL     1      26.805   0.246  54.251  1.00  0.00     0.020 C 
HETATM   12  C11 UNL     1      26.009   1.480  54.363  1.00  0.00     0.005 C 
HETATM   13  C12 UNL     1      25.676   2.271  53.305  1.00  0.00    -0.069 C 
HETATM   14  C13 UNL     1      24.806   3.388  53.046  1.00  0.00     0.060 C 
HETATM   15  C14 UNL     1      23.404   3.489  52.864  1.00  0.00     0.089 C 
HETATM   16  C15 UNL     1      23.160   4.945  52.298  1.00  0.00     0.055 C 
HETATM   17  C16 UNL     1      24.055   5.072  51.130  1.00  0.00     0.015 C 
HETATM   18  C17 UNL     1      25.076   4.819  50.254  1.00  0.00     0.098 C 
HETATM   19  O1  UNL     1      25.126   5.679  49.193  1.00  0.00    -0.346 OA
HETATM   20  C18 UNL     1      26.290   6.249  48.610  1.00  0.00     0.202 C 
HETATM   21  C19 UNL     1      27.438   5.263  48.706  1.00  0.00     0.202 C 
HETATM   22  O2  UNL     1      26.937   3.978  49.078  1.00  0.00    -0.346 OA
HETATM   23  C20 UNL     1      26.167   3.788  50.205  1.00  0.00     0.098 C 
HETATM   24  C21 UNL     1      26.548   2.746  51.018  1.00  0.00     0.023 C 
HETATM   25  C22 UNL     1      26.565   1.829  52.124  1.00  0.00     0.053 C 
HETATM   26  N1  UNL     1      22.506   2.675  52.090  1.00  0.00    -0.384 N 
HETATM   27  H22 UNL     1      21.869   2.070  51.549  1.00  0.00     0.160 HD
ENDROOT
TORSDOF 0
ENDMDL
MODEL 2
REMARK VINA RESULT:      -9.3      2.829      4.488
REMARK  0 active torsions:
REMARK  status: ('A' for Active; 'I' for Inactive)
ROOT
HETATM    1  C1  UNL     1      23.912   3.727  52.921  1.00  0.00     0.051 C 
HETATM    2  C2  UNL     1      23.817   2.290  52.435  1.00  0.00    -0.029 A 
HETATM    3  C3  UNL     1      25.117   1.888  52.354  1.00  0.00     0.034 A 
HETATM    4  C4  UNL     1      25.057   0.518  52.638  1.00  0.00     0.029 A 
HETATM    5  C5  UNL     1      23.854  -0.113  52.907  1.00  0.00     0.003 A 
HETATM    6  C6  UNL     1      22.618   0.507  52.923  1.00  0.00     0.008 A 
HETATM    7  C7  UNL     1      22.586   1.861  52.652  1.00  0.00    -0.040 A 
HETATM    8  C8  UNL     1      21.474   2.808  52.230  1.00  0.00     0.076 C 
HETATM    9  C9  UNL     1      20.365   1.830  51.724  1.00  0.00     0.021 C 
HETATM   10 CL1  UNL     1      18.659   1.540  51.858  1.00  0.00    -0.088 Cl
HETATM   11  C10 UNL     1      21.004   0.928  50.912  1.00  0.00     0.020 C 
HETATM   12  C11 UNL     1      22.270   1.237  50.225  1.00  0.00     0.005 C 
HETATM   13  C12 UNL     1      22.915   2.432  50.319  1.00  0.00    -0.069 C 
HETATM   14  C13 UNL     1      24.193   2.982  49.946  1.00  0.00     0.060 C 
HETATM   15  C14 UNL     1      25.490   2.855  50.504  1.00  0.00     0.089 C 
HETATM   16  C15 UNL     1      26.359   3.972  49.798  1.00  0.00     0.055 C 
HETATM   17  C16 UNL     1      25.609   5.233  49.981  1.00  0.00     0.015 C 
HETATM   18  C17 UNL     1      24.578   6.092  50.248  1.00  0.00     0.098 C 
HETATM   19  O1  UNL     1      24.913   7.414  50.143  1.00  0.00    -0.346 OA
HETATM   20  C18 UNL     1      24.125   8.452  49.578  1.00  0.00     0.202 C 
HETATM   21  C19 UNL     1      22.657   8.169  49.832  1.00  0.00     0.202 C 
HETATM   22  O2  UNL     1      22.530   7.123  50.796  1.00  0.00    -0.346 OA
HETATM   23  C20 UNL     1      23.140   5.897  50.635  1.00  0.00     0.098 C 
HETATM   24  C21 UNL     1      22.336   4.800  50.843  1.00  0.00     0.023 C 
HETATM   25  C22 UNL     1      21.916   3.429  50.940  1.00  0.00     0.053 C 
HETATM   26  N1  UNL     1      25.923   2.912  51.873  1.00  0.00    -0.384 N 
HETATM   27  H22 UNL     1      26.217   2.931  52.862  1.00  0.00     0.160 HD
ENDROOT
TORSDOF 0
ENDMDL
MODEL 3
REMARK VINA RESULT:      -8.8      3.562      6.517
REMARK  0 active torsions:
REMARK  status: ('A' for Active; 'I' for Inactive)
ROOT
HETATM    1  C1  UNL     1      23.602   2.009  50.016  1.00  0.00     0.051 C 
HETATM    2  C2  UNL     1      24.301   3.349  50.181  1.00  0.00    -0.029 A 
HETATM    3  C3  UNL     1      25.611   3.013  50.350  1.00  0.00     0.034 A 
HETATM    4  C4  UNL     1      26.303   4.093  49.788  1.00  0.00     0.029 A 
HETATM    5  C5  UNL     1      25.635   5.174  49.239  1.00  0.00     0.003 A 
HETATM    6  C6  UNL     1      24.260   5.314  49.187  1.00  0.00     0.008 A 
HETATM    7  C7  UNL     1      23.499   4.293  49.720  1.00  0.00    -0.040 A 
HETATM    8  C8  UNL     1      22.051   4.209  50.176  1.00  0.00     0.076 C 
HETATM    9  C9  UNL     1      21.648   5.711  50.321  1.00  0.00     0.021 C 
HETATM   10 CL1  UNL     1      20.373   6.812  49.906  1.00  0.00    -0.088 Cl
HETATM   11  C10 UNL     1      22.674   6.308  51.009  1.00  0.00     0.020 C 
HETATM   12  C11 UNL     1      23.570   5.558  51.906  1.00  0.00     0.005 C 
HETATM   13  C12 UNL     1      23.465   4.221  52.144  1.00  0.00    -0.069 C 
HETATM   14  C13 UNL     1      24.241   3.192  52.787  1.00  0.00     0.060 C 
HETATM   15  C14 UNL     1      25.399   2.478  52.392  1.00  0.00     0.089 C 
HETATM   16  C15 UNL     1      25.523   1.282  53.419  1.00  0.00     0.055 C 
HETATM   17  C16 UNL     1      24.210   0.605  53.399  1.00  0.00     0.015 C 
HETATM   18  C17 UNL     1      22.878   0.381  53.179  1.00  0.00     0.098 C 
HETATM   19  O1  UNL     1      22.443  -0.847  53.594  1.00  0.00    -0.346 OA
HETATM   20  C18 UNL     1      21.218  -1.142  54.250  1.00  0.00     0.202 C 
HETATM   21  C19 UNL     1      20.138  -0.201  53.752  1.00  0.00     0.202 C 
HETATM   22  O2  UNL     1      20.599   0.484  52.586  1.00  0.00    -0.346 OA
HETATM   23  C20 UNL     1      21.776   1.202  52.574  1.00  0.00     0.098 C 
HETATM   24  C21 UNL     1      21.695   2.468  52.042  1.00  0.00     0.023 C 
HETATM   25  C22 UNL     1      22.085   3.783  51.612  1.00  0.00     0.053 C 
HETATM   26  N1  UNL     1      25.734   1.872  51.132  1.00  0.00    -0.384 N 
HETATM   27  H22 UNL     1      25.971   1.461  50.215  1.00  0.00     0.160 HD
ENDROOT
TORSDOF 0
ENDMDL
MODEL 4
REMARK VINA RESULT:      -8.6      3.099      4.299
REMARK  0 active torsions:
REMARK  status: ('A' for Active; 'I' for Inactive)
ROOT
HETATM    1  C1  UNL     1      21.570   1.106  49.459  1.00  0.00     0.051 C 
HETATM    2  C2  UNL     1      20.377   1.209  50.396  1.00  0.00    -0.029 A 
HETATM    3  C3  UNL     1      19.491   1.984  49.710  1.00  0.00     0.034 A 
HETATM    4  C4  UNL     1      18.243   1.511  50.134  1.00  0.00     0.029 A 
HETATM    5  C5  UNL     1      18.133   0.486  51.058  1.00  0.00     0.003 A 
HETATM    6  C6  UNL     1      19.199  -0.165  51.652  1.00  0.00     0.008 A 
HETATM    7  C7  UNL     1      20.468   0.239  51.290  1.00  0.00    -0.040 A 
HETATM    8  C8  UNL     1      21.836   0.058  51.929  1.00  0.00     0.076 C 
HETATM    9  C9  UNL     1      21.479  -0.354  53.393  1.00  0.00     0.021 C 
HETATM   10 CL1  UNL     1      21.902  -1.519  54.608  1.00  0.00    -0.088 Cl
HETATM   11  C10 UNL     1      20.510   0.527  53.803  1.00  0.00     0.020 C 
HETATM   12  C11 UNL     1      20.359   1.869  53.216  1.00  0.00     0.005 C 
HETATM   13  C12 UNL     1      21.159   2.365  52.231  1.00  0.00    -0.069 C 
HETATM   14  C13 UNL     1      21.177   3.504  51.350  1.00  0.00     0.060 C 
HETATM   15  C14 UNL     1      20.455   3.815  50.171  1.00  0.00     0.089 C 
HETATM   16  C15 UNL     1      21.199   5.061  49.543  1.00  0.00     0.055 C 
HETATM   17  C16 UNL     1      22.619   4.667  49.443  1.00  0.00     0.015 C 
HETATM   18  C17 UNL     1      23.783   3.977  49.647  1.00  0.00     0.098 C 
HETATM   19  O1  UNL     1      24.850   4.463  48.945  1.00  0.00    -0.346 OA
HETATM   20  C18 UNL     1      26.186   4.602  49.409  1.00  0.00     0.202 C 
HETATM   21  C19 UNL     1      26.501   3.485  50.385  1.00  0.00     0.202 C 
HETATM   22  O2  UNL     1      25.482   2.487  50.317  1.00  0.00    -0.346 OA
HETATM   23  C20 UNL     1      24.147   2.786  50.487  1.00  0.00     0.098 C 
HETATM   24  C21 UNL     1      23.462   1.974  51.360  1.00  0.00     0.023 C 
HETATM   25  C22 UNL     1      22.386   1.435  52.146  1.00  0.00     0.053 C 
HETATM   26  N1  UNL     1      20.146   3.001  49.028  1.00  0.00    -0.384 N 
HETATM   27  H22 UNL     1      19.910   2.399  48.224  1.00  0.00     0.160 HD
ENDROOT
TORSDOF 0
ENDMDL
MODEL 5
REMARK VINA RESULT:      -8.5      1.819      2.730
REMARK  0 active torsions:
REMARK  status: ('A' for Active; 'I' for Inactive)
ROOT
HETATM    1  C1  UNL     1      23.454   3.187  49.119  1.00  0.00     0.051 C 
HETATM    2  C2  UNL     1      22.755   3.043  50.462  1.00  0.00    -0.029 A 
HETATM    3  C3  UNL     1      21.682   3.877  50.360  1.00  0.00     0.034 A 
HETATM    4  C4  UNL     1      20.709   3.261  51.157  1.00  0.00     0.029 A 
HETATM    5  C5  UNL     1      20.966   2.077  51.827  1.00  0.00     0.003 A 
HETATM    6  C6  UNL     1      22.168   1.392  51.797  1.00  0.00     0.008 A 
HETATM    7  C7  UNL     1      23.184   1.931  51.034  1.00  0.00    -0.040 A 
HETATM    8  C8  UNL     1      24.689   1.717  51.012  1.00  0.00     0.076 C 
HETATM    9  C9  UNL     1      24.957   1.020  52.385  1.00  0.00     0.021 C 
HETATM   10 CL1  UNL     1      25.816  -0.322  53.071  1.00  0.00    -0.088 Cl
HETATM   11  C10 UNL     1      24.263   1.750  53.315  1.00  0.00     0.020 C 
HETATM   12  C11 UNL     1      23.913   3.167  53.113  1.00  0.00     0.005 C 
HETATM   13  C12 UNL     1      24.248   3.883  52.004  1.00  0.00    -0.069 C 
HETATM   14  C13 UNL     1      23.928   5.165  51.431  1.00  0.00     0.060 C 
HETATM   15  C14 UNL     1      22.791   5.646  50.733  1.00  0.00     0.089 C 
HETATM   16  C15 UNL     1      23.238   7.029  50.111  1.00  0.00     0.055 C 
HETATM   17  C16 UNL     1      24.483   6.745  49.366  1.00  0.00     0.015 C 
HETATM   18  C17 UNL     1      25.612   6.100  48.941  1.00  0.00     0.098 C 
HETATM   19  O1  UNL     1      26.306   6.771  47.973  1.00  0.00    -0.346 OA
HETATM   20  C18 UNL     1      27.718   6.901  47.869  1.00  0.00     0.202 C 
HETATM   21  C19 UNL     1      28.381   5.643  48.396  1.00  0.00     0.202 C 
HETATM   22  O2  UNL     1      27.402   4.616  48.557  1.00  0.00    -0.346 OA
HETATM   23  C20 UNL     1      26.263   4.798  49.311  1.00  0.00     0.098 C 
HETATM   24  C21 UNL     1      25.979   3.799  50.213  1.00  0.00     0.023 C 
HETATM   25  C22 UNL     1      25.310   3.060  51.248  1.00  0.00     0.053 C 
HETATM   26  N1  UNL     1      22.021   5.041  49.682  1.00  0.00    -0.384 N 
HETATM   27  H22 UNL     1      21.462   4.585  48.943  1.00  0.00     0.160 HD
ENDROOT
TORSDOF 0
ENDMDL
MODEL 6
REMARK VINA RESULT:      -8.4      2.739      3.422
REMARK  0 active torsions:
REMARK  status: ('A' for Active; 'I' for Inactive)
ROOT
HETATM    1  C1  UNL     1      22.022   1.139  50.360  1.00  0.00     0.051 C 
HETATM    2  C2  UNL     1      22.292   1.166  51.856  1.00  0.00    -0.029 A 
HETATM    3  C3  UNL     1      21.063   0.959  52.411  1.00  0.00     0.034 A 
HETATM    4  C4  UNL     1      21.350   0.276  53.600  1.00  0.00     0.029 A 
HETATM    5  C5  UNL     1      22.651  -0.024  53.967  1.00  0.00     0.003 A 
HETATM    6  C6  UNL     1      23.778   0.305  53.235  1.00  0.00     0.008 A 
HETATM    7  C7  UNL     1      23.586   0.980  52.047  1.00  0.00    -0.040 A 
HETATM    8  C8  UNL     1      24.507   1.807  51.164  1.00  0.00     0.076 C 
HETATM    9  C9  UNL     1      25.706   2.120  52.117  1.00  0.00     0.021 C 
HETATM   10 CL1  UNL     1      27.440   2.115  52.149  1.00  0.00    -0.088 Cl
HETATM   11  C10 UNL     1      25.145   2.530  53.300  1.00  0.00     0.020 C 
HETATM   12  C11 UNL     1      23.796   3.117  53.377  1.00  0.00     0.005 C 
HETATM   13  C12 UNL     1      22.989   3.317  52.299  1.00  0.00    -0.069 C 
HETATM   14  C13 UNL     1      21.618   3.681  52.051  1.00  0.00     0.060 C 
HETATM   15  C14 UNL     1      20.403   2.956  52.140  1.00  0.00     0.089 C 
HETATM   16  C15 UNL     1      19.325   3.858  51.418  1.00  0.00     0.055 C 
HETATM   17  C16 UNL     1      19.891   4.166  50.088  1.00  0.00     0.015 C 
HETATM   18  C17 UNL     1      20.800   4.306  49.075  1.00  0.00     0.098 C 
HETATM   19  O1  UNL     1      20.264   4.770  47.906  1.00  0.00    -0.346 OA
HETATM   20  C18 UNL     1      20.841   5.720  47.021  1.00  0.00     0.202 C 
HETATM   21  C19 UNL     1      22.350   5.574  47.035  1.00  0.00     0.202 C 
HETATM   22  O2  UNL     1      22.708   4.358  47.693  1.00  0.00    -0.346 OA
HETATM   23  C20 UNL     1      22.277   4.058  48.968  1.00  0.00     0.098 C 
HETATM   24  C21 UNL     1      23.249   3.623  49.838  1.00  0.00     0.023 C 
HETATM   25  C22 UNL     1      23.875   3.161  51.046  1.00  0.00     0.053 C 
HETATM   26  N1  UNL     1      20.078   1.628  51.697  1.00  0.00    -0.384 N 
HETATM   27  H22 UNL     1      19.864   0.664  51.395  1.00  0.00     0.160 HD
ENDROOT
TORSDOF 0
ENDMDL
MODEL 7
REMARK VINA RESULT:      -8.2      6.352     10.867
REMARK  0 active torsions:
REMARK  status: ('A' for Active; 'I' for Inactive)
ROOT
HETATM    1  C1  UNL     1      30.132   8.665  46.195  1.00  0.00     0.051 C 
HETATM    2  C2  UNL     1      31.097   9.649  46.836  1.00  0.00    -0.029 A 
HETATM    3  C3  UNL     1      32.312   9.043  46.705  1.00  0.00     0.034 A 
HETATM    4  C4  UNL     1      33.203  10.117  46.582  1.00  0.00     0.029 A 
HETATM    5  C5  UNL     1      32.765  11.429  46.618  1.00  0.00     0.003 A 
HETATM    6  C6  UNL     1      31.448  11.822  46.778  1.00  0.00     0.008 A 
HETATM    7  C7  UNL     1      30.502  10.826  46.907  1.00  0.00    -0.040 A 
HETATM    8  C8  UNL     1      29.076  10.812  47.437  1.00  0.00     0.076 C 
HETATM    9  C9  UNL     1      28.998  12.146  48.247  1.00  0.00     0.021 C 
HETATM   10 CL1  UNL     1      27.972  13.526  48.477  1.00  0.00    -0.088 Cl
HETATM   11  C10 UNL     1      30.138  12.187  49.008  1.00  0.00     0.020 C 
HETATM   12  C11 UNL     1      30.875  10.974  49.401  1.00  0.00     0.005 C 
HETATM   13  C12 UNL     1      30.498   9.710  49.061  1.00  0.00    -0.069 C 
HETATM   14  C13 UNL     1      31.054   8.383  49.119  1.00  0.00     0.060 C 
HETATM   15  C14 UNL     1      32.031   7.718  48.337  1.00  0.00     0.089 C 
HETATM   16  C15 UNL     1      31.922   6.194  48.741  1.00  0.00     0.055 C 
HETATM   17  C16 UNL     1      30.496   5.840  48.577  1.00  0.00     0.015 C 
HETATM   18  C17 UNL     1      29.143   5.978  48.428  1.00  0.00     0.098 C 
HETATM   19  O1  UNL     1      28.470   4.793  48.327  1.00  0.00    -0.346 OA
HETATM   20  C18 UNL     1      27.222   4.466  48.924  1.00  0.00     0.202 C 
HETATM   21  C19 UNL     1      26.353   5.707  48.990  1.00  0.00     0.202 C 
HETATM   22  O2  UNL     1      26.925   6.737  48.182  1.00  0.00    -0.346 OA
HETATM   23  C20 UNL     1      28.225   7.164  48.349  1.00  0.00     0.098 C 
HETATM   24  C21 UNL     1      28.400   8.527  48.416  1.00  0.00     0.023 C 
HETATM   25  C22 UNL     1      29.047   9.804  48.544  1.00  0.00     0.053 C 
HETATM   26  N1  UNL     1      32.208   7.674  46.911  1.00  0.00    -0.384 N 
HETATM   27  H22 UNL     1      32.338   7.669  45.888  1.00  0.00     0.160 HD
ENDROOT
TORSDOF 0
ENDMDL
MODEL 8
REMARK VINA RESULT:      -8.2      8.109     11.312
REMARK  0 active torsions:
REMARK  status: ('A' for Active; 'I' for Inactive)
ROOT
HETATM    1  C1  UNL     1      32.780   8.152  48.769  1.00  0.00     0.051 C 
HETATM    2  C2  UNL     1      31.870   9.225  48.193  1.00  0.00    -0.029 A 
HETATM    3  C3  UNL     1      30.773   9.189  49.001  1.00  0.00     0.034 A 
HETATM    4  C4  UNL     1      30.318  10.513  48.997  1.00  0.00     0.029 A 
HETATM    5  C5  UNL     1      30.962  11.498  48.267  1.00  0.00     0.003 A 
HETATM    6  C6  UNL     1      32.084  11.299  47.483  1.00  0.00     0.008 A 
HETATM    7  C7  UNL     1      32.600  10.020  47.430  1.00  0.00    -0.040 A 
HETATM    8  C8  UNL     1      33.545   9.323  46.464  1.00  0.00     0.076 C 
HETATM    9  C9  UNL     1      33.512  10.260  45.215  1.00  0.00     0.021 C 
HETATM   10 CL1  UNL     1      34.573  11.029  44.077  1.00  0.00    -0.088 Cl
HETATM   11  C10 UNL     1      32.187  10.534  44.988  1.00  0.00     0.020 C 
HETATM   12  C11 UNL     1      31.105   9.639  45.430  1.00  0.00     0.005 C 
HETATM   13  C12 UNL     1      31.309   8.465  46.090  1.00  0.00    -0.069 C 
HETATM   14  C13 UNL     1      30.516   7.488  46.791  1.00  0.00     0.060 C 
HETATM   15  C14 UNL     1      29.923   7.479  48.078  1.00  0.00     0.089 C 
HETATM   16  C15 UNL     1      29.481   5.981  48.324  1.00  0.00     0.055 C 
HETATM   17  C16 UNL     1      30.688   5.165  48.074  1.00  0.00     0.015 C 
HETATM   18  C17 UNL     1      31.935   4.807  47.638  1.00  0.00     0.098 C 
HETATM   19  O1  UNL     1      32.290   3.526  47.956  1.00  0.00    -0.346 OA
HETATM   20  C18 UNL     1      32.982   2.602  47.127  1.00  0.00     0.202 C 
HETATM   21  C19 UNL     1      33.959   3.350  46.242  1.00  0.00     0.202 C 
HETATM   22  O2  UNL     1      34.097   4.693  46.707  1.00  0.00    -0.346 OA
HETATM   23  C20 UNL     1      33.012   5.527  46.877  1.00  0.00     0.098 C 
HETATM   24  C21 UNL     1      33.133   6.783  46.330  1.00  0.00     0.023 C 
HETATM   25  C22 UNL     1      32.807   8.127  45.942  1.00  0.00     0.053 C 
HETATM   26  N1  UNL     1      30.457   7.882  49.350  1.00  0.00    -0.384 N 
HETATM   27  H22 UNL     1      30.845   8.197  50.254  1.00  0.00     0.160 HD
ENDROOT
TORSDOF 0
ENDMDL
MODEL 9
REMARK VINA RESULT:      -8.1      7.476     10.492
REMARK  0 active torsions:
REMARK  status: ('A' for Active; 'I' for Inactive)
ROOT
HETATM    1  C1  UNL     1      30.513   8.945  49.206  1.00  0.00     0.051 C 
HETATM    2  C2  UNL     1      29.405   9.699  48.488  1.00  0.00    -0.029 A 
HETATM    3  C3  UNL     1      28.267   9.266  49.101  1.00  0.00     0.034 A 
HETATM    4  C4  UNL     1      27.411  10.371  49.025  1.00  0.00     0.029 A 
HETATM    5  C5  UNL     1      27.804  11.551  48.417  1.00  0.00     0.003 A 
HETATM    6  C6  UNL     1      29.038  11.769  47.832  1.00  0.00     0.008 A 
HETATM    7  C7  UNL     1      29.946  10.730  47.862  1.00  0.00    -0.040 A 
HETATM    8  C8  UNL     1      31.206  10.430  47.066  1.00  0.00     0.076 C 
HETATM    9  C9  UNL     1      31.067  11.379  45.832  1.00  0.00     0.021 C 
HETATM   10 CL1  UNL     1      31.984  12.512  44.892  1.00  0.00    -0.088 Cl
HETATM   11  C10 UNL     1      29.779  11.225  45.387  1.00  0.00     0.020 C 
HETATM   12  C11 UNL     1      28.993  10.004  45.638  1.00  0.00     0.005 C 
HETATM   13  C12 UNL     1      29.463   8.922  46.319  1.00  0.00    -0.069 C 
HETATM   14  C13 UNL     1      28.933   7.703  46.873  1.00  0.00     0.060 C 
HETATM   15  C14 UNL     1      28.180   7.430  48.042  1.00  0.00     0.089 C 
HETATM   16  C15 UNL     1      28.219   5.858  48.205  1.00  0.00     0.055 C 
HETATM   17  C16 UNL     1      29.649   5.489  48.159  1.00  0.00     0.015 C 
HETATM   18  C17 UNL     1      30.997   5.577  47.938  1.00  0.00     0.098 C 
HETATM   19  O1  UNL     1      31.696   4.462  48.306  1.00  0.00    -0.346 OA
HETATM   20  C18 UNL     1      32.774   3.859  47.603  1.00  0.00     0.202 C 
HETATM   21  C19 UNL     1      33.580   4.932  46.896  1.00  0.00     0.202 C 
HETATM   22  O2  UNL     1      33.196   6.219  47.382  1.00  0.00    -0.346 OA
HETATM   23  C20 UNL     1      31.885   6.647  47.371  1.00  0.00     0.098 C 
HETATM   24  C21 UNL     1      31.674   7.905  46.856  1.00  0.00     0.023 C 
HETATM   25  C22 UNL     1      30.992   9.094  46.424  1.00  0.00     0.053 C 
HETATM   26  N1  UNL     1      28.345   7.909  49.387  1.00  0.00    -0.384 N 
HETATM   27  H22 UNL     1      28.460   8.278  50.344  1.00  0.00     0.160 HD
ENDROOT
TORSDOF 0
ENDMDL
