MODEL 1
REMARK VINA RESULT:      -9.6      0.000      0.000
REMARK  2 active torsions:
REMARK  status: ('A' for Active; 'I' for Inactive)
REMARK    1  A    between atoms: C3_3  and  C4_4 
REMARK    2  A    between atoms: C4_4  and  C5_5 
ROOT
HETATM    1  C5  UNL     1      26.258   2.409  50.998  1.00  0.00    -0.015 C 
HETATM    2  C6  UNL     1      25.137   1.858  51.701  1.00  0.00    -0.037 A 
HETATM    3  C7  UNL     1      23.854   1.826  52.165  1.00  0.00     0.005 A 
HETATM    4  C8  UNL     1      23.568   0.707  52.966  1.00  0.00    -0.014 A 
HETATM    5  C9  UNL     1      24.677  -0.057  53.049  1.00  0.00     0.005 A 
HETATM    6  C10 UNL     1      25.972  -0.369  52.776  1.00  0.00     0.001 A 
HETATM    7  C11 UNL     1      25.839   0.801  52.108  1.00  0.00     0.044 A 
HETATM    8  C12 UNL     1      27.097   1.596  51.862  1.00  0.00     0.270 C 
HETATM    9  N1  UNL     1      27.311   2.241  53.177  1.00  0.00     0.105 N 
HETATM   10  C13 UNL     1      27.784   1.356  54.157  1.00  0.00     0.266 C 
HETATM   11  C14 UNL     1      26.744   0.541  54.820  1.00  0.00     0.008 C 
HETATM   12  C15 UNL     1      25.703  -0.236  55.246  1.00  0.00    -0.027 C 
HETATM   13  C16 UNL     1      24.584  -0.840  54.349  1.00  0.00     0.042 C 
HETATM   14  C17 UNL     1      28.777   0.355  53.518  1.00  0.00     0.008 C 
HETATM   15  C18 UNL     1      28.295  -0.790  52.941  1.00  0.00    -0.027 C 
HETATM   16  C19 UNL     1      26.909  -1.442  53.032  1.00  0.00     0.039 C 
HETATM   17  H8  UNL     1      27.786   3.148  53.084  1.00  0.00     0.318 HD
ENDROOT
BRANCH   1  18
HETATM   18  C4  UNL     1      26.462   3.256  50.010  1.00  0.00     0.039 C 
BRANCH  18  19
HETATM   19  C3  UNL     1      25.863   4.519  49.678  1.00  0.00     0.038 C 
HETATM   20  C2  UNL     1      24.646   4.771  49.187  1.00  0.00     0.012 C 
HETATM   21  C1  UNL     1      23.627   3.720  48.878  1.00  0.00     0.054 C 
HETATM   22  C21 UNL     1      24.472   6.197  48.998  1.00  0.00     0.174 C 
HETATM   23  C20 UNL     1      25.895   6.689  48.893  1.00  0.00     0.203 C 
HETATM   24  O1  UNL     1      23.322   6.741  48.952  1.00  0.00    -0.291 OA
HETATM   25  N2  UNL     1      26.529   5.779  49.862  1.00  0.00    -0.382 N 
HETATM   26  H18 UNL     1      27.285   6.085  50.502  1.00  0.00     0.160 HD
ENDBRANCH  18  19
ENDBRANCH   1  18
TORSDOF 2
ENDMDL
MODEL 2
REMARK VINA RESULT:      -9.4      3.497      6.599
REMARK  2 active torsions:
REMARK  status: ('A' for Active; 'I' for Inactive)
REMARK    1  A    between atoms: C3_3  and  C4_4 
REMARK    2  A    between atoms: C4_4  and  C5_5 
ROOT
HETATM    1  C5  UNL     1      24.203   0.566  53.214  1.00  0.00    -0.015 C 
HETATM    2  C6  UNL     1      24.096   1.981  53.021  1.00  0.00    -0.037 A 
HETATM    3  C7  UNL     1      24.373   3.295  53.268  1.00  0.00     0.005 A 
HETATM    4  C8  UNL     1      23.638   4.190  52.472  1.00  0.00    -0.014 A 
HETATM    5  C9  UNL     1      22.839   3.478  51.650  1.00  0.00     0.005 A 
HETATM    6  C10 UNL     1      22.330   2.329  51.131  1.00  0.00     0.001 A 
HETATM    7  C11 UNL     1      23.184   1.839  52.060  1.00  0.00     0.044 A 
HETATM    8  C12 UNL     1      22.888   0.464  52.604  1.00  0.00     0.270 C 
HETATM    9  N1  UNL     1      21.811   0.748  53.581  1.00  0.00     0.105 N 
HETATM   10  C13 UNL     1      20.577   1.029  52.976  1.00  0.00     0.266 C 
HETATM   11  C14 UNL     1      20.409   2.422  52.511  1.00  0.00     0.008 C 
HETATM   12  C15 UNL     1      20.445   3.694  52.014  1.00  0.00    -0.027 C 
HETATM   13  C16 UNL     1      21.654   4.364  51.299  1.00  0.00     0.042 C 
HETATM   14  C17 UNL     1      20.392   0.131  51.728  1.00  0.00     0.008 C 
HETATM   15  C18 UNL     1      20.898   0.545  50.525  1.00  0.00    -0.027 C 
HETATM   16  C19 UNL     1      21.416   1.920  50.085  1.00  0.00     0.039 C 
HETATM   17  H8  UNL     1      21.819   0.080  54.361  1.00  0.00     0.318 HD
ENDROOT
BRANCH   1  18
HETATM   18  C4  UNL     1      25.082  -0.282  53.705  1.00  0.00     0.039 C 
BRANCH  18  19
HETATM   19  C3  UNL     1      26.512  -0.225  53.841  1.00  0.00     0.038 C 
HETATM   20  C2  UNL     1      27.441  -1.030  53.318  1.00  0.00     0.012 C 
HETATM   21  C1  UNL     1      27.141  -2.206  52.442  1.00  0.00     0.054 C 
HETATM   22  C21 UNL     1      28.761  -0.599  53.728  1.00  0.00     0.174 C 
HETATM   23  C20 UNL     1      28.474   0.183  54.986  1.00  0.00     0.203 C 
HETATM   24  O1  UNL     1      29.810  -0.898  53.070  1.00  0.00    -0.291 OA
HETATM   25  N2  UNL     1      27.191   0.793  54.594  1.00  0.00    -0.382 N 
HETATM   26  H18 UNL     1      26.932   1.763  54.853  1.00  0.00     0.160 HD
ENDBRANCH  18  19
ENDBRANCH   1  18
TORSDOF 2
ENDMDL
MODEL 3
REMARK VINA RESULT:      -9.2      3.375      6.238
REMARK  2 active torsions:
REMARK  status: ('A' for Active; 'I' for Inactive)
REMARK    1  A    between atoms: C3_3  and  C4_4 
REMARK    2  A    between atoms: C4_4  and  C5_5 
ROOT
HETATM    1  C5  UNL     1      24.683   1.653  52.961  1.00  0.00    -0.015 C 
HETATM    2  C6  UNL     1      23.742   0.613  53.253  1.00  0.00    -0.037 A 
HETATM    3  C7  UNL     1      23.350  -0.645  53.609  1.00  0.00     0.005 A 
HETATM    4  C8  UNL     1      21.956  -0.829  53.599  1.00  0.00    -0.014 A 
HETATM    5  C9  UNL     1      21.372   0.332  53.236  1.00  0.00     0.005 A 
HETATM    6  C10 UNL     1      21.374   1.640  52.864  1.00  0.00     0.001 A 
HETATM    7  C11 UNL     1      22.702   1.399  52.981  1.00  0.00     0.044 A 
HETATM    8  C12 UNL     1      23.630   2.277  52.179  1.00  0.00     0.270 C 
HETATM    9  N1  UNL     1      23.525   1.676  50.829  1.00  0.00     0.105 N 
HETATM   10  C13 UNL     1      22.314   1.970  50.186  1.00  0.00     0.266 C 
HETATM   11  C14 UNL     1      21.176   1.107  50.566  1.00  0.00     0.008 C 
HETATM   12  C15 UNL     1      20.193   0.329  51.110  1.00  0.00    -0.027 C 
HETATM   13  C16 UNL     1      20.027  -0.018  52.618  1.00  0.00     0.042 C 
HETATM   14  C17 UNL     1      21.887   3.421  50.517  1.00  0.00     0.008 C 
HETATM   15  C18 UNL     1      21.161   3.662  51.653  1.00  0.00    -0.027 C 
HETATM   16  C19 UNL     1      20.421   2.692  52.584  1.00  0.00     0.039 C 
HETATM   17  H8  UNL     1      24.393   1.795  50.291  1.00  0.00     0.318 HD
ENDROOT
BRANCH   1  18
HETATM   18  C4  UNL     1      25.932   1.943  53.261  1.00  0.00     0.039 C 
BRANCH  18  19
HETATM   19  C3  UNL     1      27.063   1.121  53.597  1.00  0.00     0.038 C 
HETATM   20  C2  UNL     1      27.453  -0.038  53.058  1.00  0.00     0.012 C 
HETATM   21  C1  UNL     1      26.738  -0.729  51.940  1.00  0.00     0.054 C 
HETATM   22  C21 UNL     1      28.650  -0.515  53.718  1.00  0.00     0.174 C 
HETATM   23  C20 UNL     1      28.590   0.186  55.053  1.00  0.00     0.203 C 
HETATM   24  O1  UNL     1      29.453  -1.333  53.162  1.00  0.00    -0.291 OA
HETATM   25  N2  UNL     1      28.013   1.469  54.617  1.00  0.00    -0.382 N 
HETATM   26  H18 UNL     1      28.307   2.378  55.021  1.00  0.00     0.160 HD
ENDBRANCH  18  19
ENDBRANCH   1  18
TORSDOF 2
ENDMDL
MODEL 4
REMARK VINA RESULT:      -9.1      2.882      6.646
REMARK  2 active torsions:
REMARK  status: ('A' for Active; 'I' for Inactive)
REMARK    1  A    between atoms: C3_3  and  C4_4 
REMARK    2  A    between atoms: C4_4  and  C5_5 
ROOT
HETATM    1  C5  UNL     1      25.129   1.912  52.428  1.00  0.00    -0.015 C 
HETATM    2  C6  UNL     1      25.641   2.637  51.303  1.00  0.00    -0.037 A 
HETATM    3  C7  UNL     1      26.610   3.166  50.501  1.00  0.00     0.005 A 
HETATM    4  C8  UNL     1      26.108   3.907  49.417  1.00  0.00    -0.014 A 
HETATM    5  C9  UNL     1      24.761   3.882  49.467  1.00  0.00     0.005 A 
HETATM    6  C10 UNL     1      23.562   3.521  49.996  1.00  0.00     0.001 A 
HETATM    7  C11 UNL     1      24.418   2.937  50.868  1.00  0.00     0.044 A 
HETATM    8  C12 UNL     1      23.905   2.676  52.261  1.00  0.00     0.270 C 
HETATM    9  N1  UNL     1      24.011   4.017  52.881  1.00  0.00     0.105 N 
HETATM   10  C13 UNL     1      23.027   4.912  52.435  1.00  0.00     0.266 C 
HETATM   11  C14 UNL     1      23.319   5.575  51.147  1.00  0.00     0.008 C 
HETATM   12  C15 UNL     1      23.655   6.005  49.894  1.00  0.00    -0.027 C 
HETATM   13  C16 UNL     1      24.264   5.133  48.758  1.00  0.00     0.042 C 
HETATM   14  C17 UNL     1      21.689   4.157  52.239  1.00  0.00     0.008 C 
HETATM   15  C18 UNL     1      21.440   3.534  51.045  1.00  0.00    -0.027 C 
HETATM   16  C19 UNL     1      22.153   3.658  49.692  1.00  0.00     0.039 C 
HETATM   17  H8  UNL     1      24.177   3.957  53.893  1.00  0.00     0.318 HD
ENDROOT
BRANCH   1  18
HETATM   18  C4  UNL     1      25.550   0.971  53.248  1.00  0.00     0.039 C 
BRANCH  18  19
HETATM   19  C3  UNL     1      26.863   0.485  53.573  1.00  0.00     0.038 C 
HETATM   20  C2  UNL     1      27.441  -0.670  53.232  1.00  0.00     0.012 C 
HETATM   21  C1  UNL     1      26.787  -1.727  52.400  1.00  0.00     0.054 C 
HETATM   22  C21 UNL     1      28.776  -0.741  53.791  1.00  0.00     0.174 C 
HETATM   23  C20 UNL     1      28.699   0.226  54.946  1.00  0.00     0.203 C 
HETATM   24  O1  UNL     1      29.679  -1.494  53.301  1.00  0.00    -0.291 OA
HETATM   25  N2  UNL     1      27.811   1.237  54.346  1.00  0.00    -0.382 N 
HETATM   26  H18 UNL     1      27.936   2.254  54.506  1.00  0.00     0.160 HD
ENDBRANCH  18  19
ENDBRANCH   1  18
TORSDOF 2
ENDMDL
MODEL 5
REMARK VINA RESULT:      -9.1      2.692      7.026
REMARK  2 active torsions:
REMARK  status: ('A' for Active; 'I' for Inactive)
REMARK    1  A    between atoms: C3_3  and  C4_4 
REMARK    2  A    between atoms: C4_4  and  C5_5 
ROOT
HETATM    1  C5  UNL     1      24.169   2.764  50.743  1.00  0.00    -0.015 C 
HETATM    2  C6  UNL     1      25.368   3.274  50.147  1.00  0.00    -0.037 A 
HETATM    3  C7  UNL     1      26.700   3.290  49.852  1.00  0.00     0.005 A 
HETATM    4  C8  UNL     1      27.099   4.401  49.089  1.00  0.00    -0.014 A 
HETATM    5  C9  UNL     1      26.015   5.165  48.844  1.00  0.00     0.005 A 
HETATM    6  C10 UNL     1      24.693   5.474  48.917  1.00  0.00     0.001 A 
HETATM    7  C11 UNL     1      24.732   4.324  49.630  1.00  0.00     0.044 A 
HETATM    8  C12 UNL     1      23.645   4.116  50.654  1.00  0.00     0.270 C 
HETATM    9  N1  UNL     1      24.119   4.958  51.776  1.00  0.00     0.105 N 
HETATM   10  C13 UNL     1      23.958   6.332  51.542  1.00  0.00     0.266 C 
HETATM   11  C14 UNL     1      25.022   6.959  50.731  1.00  0.00     0.008 C 
HETATM   12  C15 UNL     1      25.995   7.372  49.864  1.00  0.00    -0.027 C 
HETATM   13  C16 UNL     1      26.510   6.587  48.623  1.00  0.00     0.042 C 
HETATM   14  C17 UNL     1      22.632   6.578  50.781  1.00  0.00     0.008 C 
HETATM   15  C18 UNL     1      22.621   6.504  49.414  1.00  0.00    -0.027 C 
HETATM   16  C19 UNL     1      23.781   6.479  48.411  1.00  0.00     0.039 C 
HETATM   17  H8  UNL     1      23.813   4.590  52.685  1.00  0.00     0.318 HD
ENDROOT
BRANCH   1  18
HETATM   18  C4  UNL     1      23.717   1.604  51.173  1.00  0.00     0.039 C 
BRANCH  18  19
HETATM   19  C3  UNL     1      23.968   0.851  52.371  1.00  0.00     0.038 C 
HETATM   20  C2  UNL     1      25.099   0.266  52.778  1.00  0.00     0.012 C 
HETATM   21  C1  UNL     1      26.384   0.294  52.012  1.00  0.00     0.054 C 
HETATM   22  C21 UNL     1      24.888  -0.394  54.050  1.00  0.00     0.174 C 
HETATM   23  C20 UNL     1      23.395  -0.612  54.062  1.00  0.00     0.203 C 
HETATM   24  O1  UNL     1      25.846  -0.654  54.848  1.00  0.00    -0.291 OA
HETATM   25  N2  UNL     1      22.973   0.624  53.382  1.00  0.00    -0.382 N 
HETATM   26  H18 UNL     1      22.122   1.149  53.657  1.00  0.00     0.160 HD
ENDBRANCH  18  19
ENDBRANCH   1  18
TORSDOF 2
ENDMDL
MODEL 6
REMARK VINA RESULT:      -8.5      3.022      3.960
REMARK  2 active torsions:
REMARK  status: ('A' for Active; 'I' for Inactive)
REMARK    1  A    between atoms: C3_3  and  C4_4 
REMARK    2  A    between atoms: C4_4  and  C5_5 
ROOT
HETATM    1  C5  UNL     1      22.809   1.530  51.634  1.00  0.00    -0.015 C 
HETATM    2  C6  UNL     1      22.707   0.730  52.819  1.00  0.00    -0.037 A 
HETATM    3  C7  UNL     1      22.101   0.235  53.937  1.00  0.00     0.005 A 
HETATM    4  C8  UNL     1      22.911  -0.640  54.682  1.00  0.00    -0.014 A 
HETATM    5  C9  UNL     1      24.102  -0.757  54.060  1.00  0.00     0.005 A 
HETATM    6  C10 UNL     1      24.996  -0.499  53.069  1.00  0.00     0.001 A 
HETATM    7  C11 UNL     1      23.946   0.261  52.677  1.00  0.00     0.044 A 
HETATM    8  C12 UNL     1      24.250   1.450  51.800  1.00  0.00     0.270 C 
HETATM    9  N1  UNL     1      24.741   2.438  52.788  1.00  0.00     0.105 N 
HETATM   10  C13 UNL     1      26.033   2.158  53.255  1.00  0.00     0.266 C 
HETATM   11  C14 UNL     1      26.104   1.160  54.343  1.00  0.00     0.008 C 
HETATM   12  C15 UNL     1      26.031   0.134  55.242  1.00  0.00    -0.027 C 
HETATM   13  C16 UNL     1      25.126  -1.127  55.121  1.00  0.00     0.042 C 
HETATM   14  C17 UNL     1      26.895   1.597  52.097  1.00  0.00     0.008 C 
HETATM   15  C18 UNL     1      26.869   0.254  51.833  1.00  0.00    -0.027 C 
HETATM   16  C19 UNL     1      26.324  -0.913  52.667  1.00  0.00     0.039 C 
HETATM   17  H8  UNL     1      24.538   3.402  52.494  1.00  0.00     0.318 HD
ENDROOT
BRANCH   1  18
HETATM   18  C4  UNL     1      21.989   2.086  50.767  1.00  0.00     0.039 C 
BRANCH  18  19
HETATM   19  C3  UNL     1      20.817   2.903  50.928  1.00  0.00     0.038 C 
HETATM   20  C2  UNL     1      19.588   2.546  51.311  1.00  0.00     0.012 C 
HETATM   21  C1  UNL     1      19.187   1.148  51.664  1.00  0.00     0.054 C 
HETATM   22  C21 UNL     1      18.716   3.703  51.324  1.00  0.00     0.174 C 
HETATM   23  C20 UNL     1      19.411   4.648  50.375  1.00  0.00     0.203 C 
HETATM   24  O1  UNL     1      17.654   3.745  52.025  1.00  0.00    -0.291 OA
HETATM   25  N2  UNL     1      20.809   4.322  50.704  1.00  0.00    -0.382 N 
HETATM   26  H18 UNL     1      21.555   5.042  50.745  1.00  0.00     0.160 HD
ENDBRANCH  18  19
ENDBRANCH   1  18
TORSDOF 2
ENDMDL
MODEL 7
REMARK VINA RESULT:      -8.4      3.148      7.651
REMARK  2 active torsions:
REMARK  status: ('A' for Active; 'I' for Inactive)
REMARK    1  A    between atoms: C3_3  and  C4_4 
REMARK    2  A    between atoms: C4_4  and  C5_5 
ROOT
HETATM    1  C5  UNL     1      25.530   5.008  49.249  1.00  0.00    -0.015 C 
HETATM    2  C6  UNL     1      26.882   5.178  48.806  1.00  0.00    -0.037 A 
HETATM    3  C7  UNL     1      28.186   4.818  48.628  1.00  0.00     0.005 A 
HETATM    4  C8  UNL     1      28.969   5.808  48.009  1.00  0.00    -0.014 A 
HETATM    5  C9  UNL     1      28.184   6.873  47.746  1.00  0.00     0.005 A 
HETATM    6  C10 UNL     1      27.008   7.555  47.736  1.00  0.00     0.001 A 
HETATM    7  C11 UNL     1      26.636   6.400  48.338  1.00  0.00     0.044 A 
HETATM    8  C12 UNL     1      25.431   6.458  49.244  1.00  0.00     0.270 C 
HETATM    9  N1  UNL     1      26.005   7.047  50.476  1.00  0.00     0.105 N 
HETATM   10  C13 UNL     1      26.273   8.419  50.359  1.00  0.00     0.266 C 
HETATM   11  C14 UNL     1      27.553   8.754  49.703  1.00  0.00     0.008 C 
HETATM   12  C15 UNL     1      28.691   8.916  48.963  1.00  0.00    -0.027 C 
HETATM   13  C16 UNL     1      29.089   8.095  47.702  1.00  0.00     0.042 C 
HETATM   14  C17 UNL     1      25.164   9.096  49.516  1.00  0.00     0.008 C 
HETATM   15  C18 UNL     1      25.280   9.118  48.152  1.00  0.00    -0.027 C 
HETATM   16  C19 UNL     1      26.485   8.815  47.252  1.00  0.00     0.039 C 
HETATM   17  H8  UNL     1      25.508   6.728  51.317  1.00  0.00     0.318 HD
ENDROOT
BRANCH   1  18
HETATM   18  C4  UNL     1      24.719   4.009  49.529  1.00  0.00     0.039 C 
BRANCH  18  19
HETATM   19  C3  UNL     1      24.506   3.240  50.724  1.00  0.00     0.038 C 
HETATM   20  C2  UNL     1      23.588   2.301  50.970  1.00  0.00     0.012 C 
HETATM   21  C1  UNL     1      22.555   1.854  49.984  1.00  0.00     0.054 C 
HETATM   22  C21 UNL     1      23.740   1.797  52.319  1.00  0.00     0.174 C 
HETATM   23  C20 UNL     1      24.464   2.926  53.010  1.00  0.00     0.203 C 
HETATM   24  O1  UNL     1      23.307   0.652  52.670  1.00  0.00    -0.291 OA
HETATM   25  N2  UNL     1      25.323   3.368  51.899  1.00  0.00    -0.382 N 
HETATM   26  H18 UNL     1      26.302   3.680  52.041  1.00  0.00     0.160 HD
ENDBRANCH  18  19
ENDBRANCH   1  18
TORSDOF 2
ENDMDL
MODEL 8
REMARK VINA RESULT:      -8.3      1.810      2.459
REMARK  2 active torsions:
REMARK  status: ('A' for Active; 'I' for Inactive)
REMARK    1  A    between atoms: C3_3  and  C4_4 
REMARK    2  A    between atoms: C4_4  and  C5_5 
ROOT
HETATM    1  C5  UNL     1      23.131   2.054  51.577  1.00  0.00    -0.015 C 
HETATM    2  C6  UNL     1      22.915   1.106  52.628  1.00  0.00    -0.037 A 
HETATM    3  C7  UNL     1      22.212   0.490  53.623  1.00  0.00     0.005 A 
HETATM    4  C8  UNL     1      22.934  -0.513  54.292  1.00  0.00    -0.014 A 
HETATM    5  C9  UNL     1      24.163  -0.598  53.741  1.00  0.00     0.005 A 
HETATM    6  C10 UNL     1      25.135  -0.247  52.858  1.00  0.00     0.001 A 
HETATM    7  C11 UNL     1      24.143   0.605  52.506  1.00  0.00     0.044 A 
HETATM    8  C12 UNL     1      24.553   1.888  51.826  1.00  0.00     0.270 C 
HETATM    9  N1  UNL     1      25.004   2.709  52.973  1.00  0.00     0.105 N 
HETATM   10  C13 UNL     1      26.249   2.310  53.483  1.00  0.00     0.266 C 
HETATM   11  C14 UNL     1      26.205   1.171  54.423  1.00  0.00     0.008 C 
HETATM   12  C15 UNL     1      26.030   0.035  55.163  1.00  0.00    -0.027 C 
HETATM   13  C16 UNL     1      25.093  -1.156  54.807  1.00  0.00     0.042 C 
HETATM   14  C17 UNL     1      27.172   1.875  52.318  1.00  0.00     0.008 C 
HETATM   15  C18 UNL     1      27.119   0.582  51.868  1.00  0.00    -0.027 C 
HETATM   16  C19 UNL     1      26.474  -0.662  52.493  1.00  0.00     0.039 C 
HETATM   17  H8  UNL     1      24.858   3.712  52.804  1.00  0.00     0.318 HD
ENDROOT
BRANCH   1  18
HETATM   18  C4  UNL     1      22.397   2.761  50.742  1.00  0.00     0.039 C 
BRANCH  18  19
HETATM   19  C3  UNL     1      22.738   3.649  49.665  1.00  0.00     0.038 C 
HETATM   20  C2  UNL     1      23.254   4.879  49.719  1.00  0.00     0.012 C 
HETATM   21  C1  UNL     1      23.592   5.597  50.987  1.00  0.00     0.054 C 
HETATM   22  C21 UNL     1      23.427   5.405  48.380  1.00  0.00     0.174 C 
HETATM   23  C20 UNL     1      22.442   4.591  47.579  1.00  0.00     0.203 C 
HETATM   24  O1  UNL     1      24.256   6.336  48.117  1.00  0.00    -0.291 OA
HETATM   25  N2  UNL     1      22.580   3.302  48.279  1.00  0.00    -0.382 N 
HETATM   26  H18 UNL     1      22.560   2.392  47.782  1.00  0.00     0.160 HD
ENDBRANCH  18  19
ENDBRANCH   1  18
TORSDOF 2
ENDMDL
MODEL 9
REMARK VINA RESULT:      -8.2      3.144      6.837
REMARK  2 active torsions:
REMARK  status: ('A' for Active; 'I' for Inactive)
REMARK    1  A    between atoms: C3_3  and  C4_4 
REMARK    2  A    between atoms: C4_4  and  C5_5 
ROOT
HETATM    1  C5  UNL     1      24.245   2.271  51.928  1.00  0.00    -0.015 C 
HETATM    2  C6  UNL     1      24.395   3.335  50.981  1.00  0.00    -0.037 A 
HETATM    3  C7  UNL     1      24.844   4.542  50.527  1.00  0.00     0.005 A 
HETATM    4  C8  UNL     1      24.378   4.874  49.243  1.00  0.00    -0.014 A 
HETATM    5  C9  UNL     1      23.597   3.869  48.796  1.00  0.00     0.005 A 
HETATM    6  C10 UNL     1      22.985   2.659  48.892  1.00  0.00     0.001 A 
HETATM    7  C11 UNL     1      23.613   2.729  50.090  1.00  0.00     0.044 A 
HETATM    8  C12 UNL     1      23.028   1.918  51.219  1.00  0.00     0.270 C 
HETATM    9  N1  UNL     1      21.887   2.763  51.640  1.00  0.00     0.105 N 
HETATM   10  C13 UNL     1      20.809   2.724  50.743  1.00  0.00     0.266 C 
HETATM   11  C14 UNL     1      20.933   3.620  49.575  1.00  0.00     0.008 C 
HETATM   12  C15 UNL     1      21.242   4.388  48.487  1.00  0.00    -0.027 C 
HETATM   13  C16 UNL     1      22.630   4.469  47.787  1.00  0.00     0.042 C 
HETATM   14  C17 UNL     1      20.655   1.292  50.176  1.00  0.00     0.008 C 
HETATM   15  C18 UNL     1      21.382   0.927  49.074  1.00  0.00    -0.027 C 
HETATM   16  C19 UNL     1      22.170   1.784  48.075  1.00  0.00     0.039 C 
HETATM   17  H8  UNL     1      21.679   2.651  52.641  1.00  0.00     0.318 HD
ENDROOT
BRANCH   1  18
HETATM   18  C4  UNL     1      24.901   1.798  52.968  1.00  0.00     0.039 C 
BRANCH  18  19
HETATM   19  C3  UNL     1      25.821   0.704  53.118  1.00  0.00     0.038 C 
HETATM   20  C2  UNL     1      27.138   0.736  53.338  1.00  0.00     0.012 C 
HETATM   21  C1  UNL     1      27.940   1.991  53.479  1.00  0.00     0.054 C 
HETATM   22  C21 UNL     1      27.662  -0.613  53.412  1.00  0.00     0.174 C 
HETATM   23  C20 UNL     1      26.628  -1.408  52.654  1.00  0.00     0.203 C 
HETATM   24  O1  UNL     1      28.752  -0.887  54.011  1.00  0.00    -0.291 OA
HETATM   25  N2  UNL     1      25.420  -0.674  53.069  1.00  0.00    -0.382 N 
HETATM   26  H18 UNL     1      24.519  -1.149  53.268  1.00  0.00     0.160 HD
ENDBRANCH  18  19
ENDBRANCH   1  18
TORSDOF 2
ENDMDL
