MODEL 1
REMARK VINA RESULT:      -8.0      0.000      0.000
REMARK  0 active torsions:
REMARK  status: ('A' for Active; 'I' for Inactive)
ROOT
HETATM    1  O1  UNL     1      21.552   0.976  48.309  1.00  0.00    -0.281 OA
HETATM    2  C1  UNL     1      22.082   1.901  48.985  1.00  0.00     0.230 C 
HETATM    3  C2  UNL     1      21.592   1.910  50.291  1.00  0.00    -0.025 C 
HETATM    4  C3  UNL     1      21.194   1.937  51.369  1.00  0.00    -0.079 C 
HETATM    5  C4  UNL     1      20.676   1.980  52.704  1.00  0.00     0.210 C 
HETATM    6  N1  UNL     1      20.740   0.617  53.223  1.00  0.00    -0.402 N 
HETATM    7  C5  UNL     1      22.158   0.294  53.442  1.00  0.00     0.126 C 
HETATM    8  C6  UNL     1      22.805  -0.709  54.116  1.00  0.00     0.003 C 
HETATM    9  C7  UNL     1      24.290  -0.627  54.067  1.00  0.00     0.042 C 
HETATM   10  C8  UNL     1      25.453  -0.051  53.686  1.00  0.00     0.137 C 
HETATM   11  F1  UNL     1      26.605  -0.693  54.124  1.00  0.00    -0.204 F 
HETATM   12  C9  UNL     1      25.892   1.113  52.873  1.00  0.00     0.074 C 
HETATM   13 CL1  UNL     1      27.661   1.316  52.786  1.00  0.00    -0.081 Cl
HETATM   14  C10 UNL     1      25.283   2.056  52.182  1.00  0.00     0.057 C 
HETATM   15  C11 UNL     1      24.414   2.973  51.502  1.00  0.00     0.050 C 
HETATM   16  C12 UNL     1      24.024   2.791  50.214  1.00  0.00     0.040 C 
HETATM   17  C13 UNL     1      23.005   3.075  49.184  1.00  0.00     0.215 C 
HETATM   18  N2  UNL     1      22.308   4.313  49.349  1.00  0.00    -0.282 NA
HETATM   19  C14 UNL     1      22.117   5.217  50.241  1.00  0.00     0.132 C 
HETATM   20  C15 UNL     1      22.277   5.387  51.657  1.00  0.00     0.157 C 
HETATM   21  N3  UNL     1      22.929   4.758  52.606  1.00  0.00    -0.185 NA
HETATM   22  N4  UNL     1      24.126   4.004  52.479  1.00  0.00    -0.279 N 
HETATM   23  H3  UNL     1      19.708   0.283  53.270  1.00  0.00     0.154 HD
HETATM   24  H12 UNL     1      25.030   4.032  53.044  1.00  0.00     0.189 HD
ENDROOT
TORSDOF 0
ENDMDL
MODEL 2
REMARK VINA RESULT:      -7.5      9.851     11.824
REMARK  0 active torsions:
REMARK  status: ('A' for Active; 'I' for Inactive)
ROOT
HETATM    1  O1  UNL     1      33.129   4.714  43.328  1.00  0.00    -0.281 OA
HETATM    2  C1  UNL     1      33.166   4.602  44.584  1.00  0.00     0.230 C 
HETATM    3  C2  UNL     1      33.275   5.852  45.195  1.00  0.00    -0.025 C 
HETATM    4  C3  UNL     1      33.373   6.873  45.715  1.00  0.00    -0.079 C 
HETATM    5  C4  UNL     1      33.518   8.146  46.355  1.00  0.00     0.210 C 
HETATM    6  N1  UNL     1      32.517   9.029  45.767  1.00  0.00    -0.402 N 
HETATM    7  C5  UNL     1      31.198   8.581  46.244  1.00  0.00     0.126 C 
HETATM    8  C6  UNL     1      29.948   9.143  46.227  1.00  0.00     0.003 C 
HETATM    9  C7  UNL     1      28.887   8.301  46.844  1.00  0.00     0.042 C 
HETATM   10  C8  UNL     1      28.443   7.186  47.466  1.00  0.00     0.137 C 
HETATM   11  F1  UNL     1      27.084   7.166  47.753  1.00  0.00    -0.204 F 
HETATM   12  C9  UNL     1      29.001   5.892  47.939  1.00  0.00     0.074 C 
HETATM   13 CL1  UNL     1      27.809   4.827  48.728  1.00  0.00    -0.081 Cl
HETATM   14  C10 UNL     1      30.190   5.321  47.920  1.00  0.00     0.057 C 
HETATM   15  C11 UNL     1      31.555   4.904  47.785  1.00  0.00     0.050 C 
HETATM   16  C12 UNL     1      32.000   4.192  46.717  1.00  0.00     0.040 C 
HETATM   17  C13 UNL     1      33.157   3.826  45.877  1.00  0.00     0.215 C 
HETATM   18  N2  UNL     1      34.420   3.843  46.547  1.00  0.00    -0.282 NA
HETATM   19  C14 UNL     1      34.946   4.279  47.635  1.00  0.00     0.132 C 
HETATM   20  C15 UNL     1      34.641   5.213  48.682  1.00  0.00     0.157 C 
HETATM   21  N3  UNL     1      33.563   5.839  49.091  1.00  0.00    -0.185 NA
HETATM   22  N4  UNL     1      32.216   5.407  48.973  1.00  0.00    -0.279 N 
HETATM   23  H3  UNL     1      33.079   9.729  45.157  1.00  0.00     0.154 HD
HETATM   24  H12 UNL     1      31.434   5.357  49.697  1.00  0.00     0.189 HD
ENDROOT
TORSDOF 0
ENDMDL
MODEL 3
REMARK VINA RESULT:      -7.2      2.813      4.367
REMARK  0 active torsions:
REMARK  status: ('A' for Active; 'I' for Inactive)
ROOT
HETATM    1  O1  UNL     1      23.846   7.155  51.705  1.00  0.00    -0.281 OA
HETATM    2  C1  UNL     1      23.289   6.193  51.108  1.00  0.00     0.230 C 
HETATM    3  C2  UNL     1      24.231   5.389  50.465  1.00  0.00    -0.025 C 
HETATM    4  C3  UNL     1      24.993   4.720  49.924  1.00  0.00    -0.079 C 
HETATM    5  C4  UNL     1      25.946   3.904  49.232  1.00  0.00     0.210 C 
HETATM    6  N1  UNL     1      27.013   3.606  50.182  1.00  0.00    -0.402 N 
HETATM    7  C5  UNL     1      26.466   2.677  51.183  1.00  0.00     0.126 C 
HETATM    8  C6  UNL     1      27.035   1.885  52.146  1.00  0.00     0.003 C 
HETATM    9  C7  UNL     1      26.062   1.091  52.945  1.00  0.00     0.042 C 
HETATM   10  C8  UNL     1      24.813   0.689  53.268  1.00  0.00     0.137 C 
HETATM   11  F1  UNL     1      24.734  -0.233  54.304  1.00  0.00    -0.204 F 
HETATM   12  C9  UNL     1      23.418   0.973  52.839  1.00  0.00     0.074 C 
HETATM   13 CL1  UNL     1      22.180   0.038  53.716  1.00  0.00    -0.081 Cl
HETATM   14  C10 UNL     1      22.855   1.765  51.948  1.00  0.00     0.057 C 
HETATM   15  C11 UNL     1      22.471   2.697  50.927  1.00  0.00     0.050 C 
HETATM   16  C12 UNL     1      22.176   3.995  51.195  1.00  0.00     0.040 C 
HETATM   17  C13 UNL     1      22.101   5.373  50.672  1.00  0.00     0.215 C 
HETATM   18  N2  UNL     1      21.835   5.475  49.271  1.00  0.00    -0.282 NA
HETATM   19  C14 UNL     1      21.834   4.739  48.219  1.00  0.00     0.132 C 
HETATM   20  C15 UNL     1      22.338   3.463  47.794  1.00  0.00     0.157 C 
HETATM   21  N3  UNL     1      22.810   2.397  48.396  1.00  0.00    -0.185 NA
HETATM   22  N4  UNL     1      22.491   1.928  49.698  1.00  0.00    -0.279 N 
HETATM   23  H3  UNL     1      27.867   4.182  49.837  1.00  0.00     0.154 HD
HETATM   24  H12 UNL     1      22.210   0.958  50.039  1.00  0.00     0.189 HD
ENDROOT
TORSDOF 0
ENDMDL
MODEL 4
REMARK VINA RESULT:      -7.0      4.278      6.107
REMARK  0 active torsions:
REMARK  status: ('A' for Active; 'I' for Inactive)
ROOT
HETATM    1  O1  UNL     1      22.275   2.854  47.118  1.00  0.00    -0.281 OA
HETATM    2  C1  UNL     1      22.257   3.613  48.125  1.00  0.00     0.230 C 
HETATM    3  C2  UNL     1      23.377   3.403  48.931  1.00  0.00    -0.025 C 
HETATM    4  C3  UNL     1      24.290   3.238  49.610  1.00  0.00    -0.079 C 
HETATM    5  C4  UNL     1      25.417   3.010  50.464  1.00  0.00     0.210 C 
HETATM    6  N1  UNL     1      26.600   3.019  49.609  1.00  0.00    -0.402 N 
HETATM    7  C5  UNL     1      26.813   4.405  49.164  1.00  0.00     0.126 C 
HETATM    8  C6  UNL     1      27.861   5.053  48.564  1.00  0.00     0.003 C 
HETATM    9  C7  UNL     1      27.619   6.496  48.294  1.00  0.00     0.042 C 
HETATM   10  C8  UNL     1      26.863   7.617  48.320  1.00  0.00     0.137 C 
HETATM   11  F1  UNL     1      27.462   8.751  47.786  1.00  0.00    -0.204 F 
HETATM   12  C9  UNL     1      25.497   8.015  48.750  1.00  0.00     0.074 C 
HETATM   13 CL1  UNL     1      25.127   9.740  48.500  1.00  0.00    -0.081 Cl
HETATM   14  C10 UNL     1      24.464   7.393  49.284  1.00  0.00     0.057 C 
HETATM   15  C11 UNL     1      23.483   6.517  49.856  1.00  0.00     0.050 C 
HETATM   16  C12 UNL     1      22.567   5.855  49.103  1.00  0.00     0.040 C 
HETATM   17  C13 UNL     1      21.667   4.689  49.002  1.00  0.00     0.215 C 
HETATM   18  N2  UNL     1      21.183   4.189  50.250  1.00  0.00    -0.282 NA
HETATM   19  C14 UNL     1      21.429   4.289  51.507  1.00  0.00     0.132 C 
HETATM   20  C15 UNL     1      22.481   4.752  52.367  1.00  0.00     0.157 C 
HETATM   21  N3  UNL     1      23.546   5.505  52.219  1.00  0.00    -0.185 NA
HETATM   22  N4  UNL     1      23.739   6.555  51.282  1.00  0.00    -0.279 N 
HETATM   23  H3  UNL     1      26.933   1.986  49.576  1.00  0.00     0.154 HD
HETATM   24  H12 UNL     1      24.093   7.551  51.417  1.00  0.00     0.189 HD
ENDROOT
TORSDOF 0
ENDMDL
MODEL 5
REMARK VINA RESULT:      -6.9      3.747      6.008
REMARK  0 active torsions:
REMARK  status: ('A' for Active; 'I' for Inactive)
ROOT
HETATM    1  O1  UNL     1      25.869   1.542  52.140  1.00  0.00    -0.281 OA
HETATM    2  C1  UNL     1      24.643   1.675  51.877  1.00  0.00     0.230 C 
HETATM    3  C2  UNL     1      24.173   2.921  52.297  1.00  0.00    -0.025 C 
HETATM    4  C3  UNL     1      23.767   3.939  52.642  1.00  0.00    -0.079 C 
HETATM    5  C4  UNL     1      23.263   5.200  53.097  1.00  0.00     0.210 C 
HETATM    6  N1  UNL     1      24.190   6.220  52.618  1.00  0.00    -0.402 N 
HETATM    7  C5  UNL     1      24.023   6.318  51.159  1.00  0.00     0.126 C 
HETATM    8  C6  UNL     1      24.430   7.232  50.222  1.00  0.00     0.003 C 
HETATM    9  C7  UNL     1      24.017   6.910  48.829  1.00  0.00     0.042 C 
HETATM   10  C8  UNL     1      23.407   6.140  47.900  1.00  0.00     0.137 C 
HETATM   11  F1  UNL     1      23.483   6.610  46.595  1.00  0.00    -0.204 F 
HETATM   12  C9  UNL     1      22.659   4.857  47.852  1.00  0.00     0.074 C 
HETATM   13 CL1  UNL     1      22.090   4.404  46.225  1.00  0.00    -0.081 Cl
HETATM   14  C10 UNL     1      22.302   3.946  48.737  1.00  0.00     0.057 C 
HETATM   15  C11 UNL     1      22.028   3.099  49.861  1.00  0.00     0.050 C 
HETATM   16  C12 UNL     1      22.853   2.087  50.232  1.00  0.00     0.040 C 
HETATM   17  C13 UNL     1      23.316   1.214  51.329  1.00  0.00     0.215 C 
HETATM   18  N2  UNL     1      22.347   0.961  52.350  1.00  0.00    -0.282 NA
HETATM   19  C14 UNL     1      21.218   1.414  52.762  1.00  0.00     0.132 C 
HETATM   20  C15 UNL     1      20.402   2.584  52.602  1.00  0.00     0.157 C 
HETATM   21  N3  UNL     1      20.362   3.588  51.758  1.00  0.00    -0.185 NA
HETATM   22  N4  UNL     1      20.775   3.592  50.399  1.00  0.00    -0.279 N 
HETATM   23  H3  UNL     1      24.709   6.570  53.505  1.00  0.00     0.154 HD
HETATM   24  H12 UNL     1      20.279   3.937  49.521  1.00  0.00     0.189 HD
ENDROOT
TORSDOF 0
ENDMDL
MODEL 6
REMARK VINA RESULT:      -6.8     10.549     12.194
REMARK  0 active torsions:
REMARK  status: ('A' for Active; 'I' for Inactive)
ROOT
HETATM    1  O1  UNL     1      33.587  10.636  47.018  1.00  0.00    -0.281 OA
HETATM    2  C1  UNL     1      32.890   9.699  47.495  1.00  0.00     0.230 C 
HETATM    3  C2  UNL     1      32.144   9.073  46.496  1.00  0.00    -0.025 C 
HETATM    4  C3  UNL     1      31.516   8.551  45.687  1.00  0.00    -0.079 C 
HETATM    5  C4  UNL     1      30.719   7.920  44.678  1.00  0.00     0.210 C 
HETATM    6  N1  UNL     1      31.611   7.623  43.562  1.00  0.00    -0.402 N 
HETATM    7  C5  UNL     1      32.505   6.534  43.989  1.00  0.00     0.126 C 
HETATM    8  C6  UNL     1      33.359   5.697  43.320  1.00  0.00     0.003 C 
HETATM    9  C7  UNL     1      34.073   4.723  44.189  1.00  0.00     0.042 C 
HETATM   10  C8  UNL     1      34.365   4.163  45.384  1.00  0.00     0.137 C 
HETATM   11  F1  UNL     1      35.287   3.124  45.345  1.00  0.00    -0.204 F 
HETATM   12  C9  UNL     1      33.994   4.354  46.811  1.00  0.00     0.074 C 
HETATM   13 CL1  UNL     1      34.774   3.205  47.928  1.00  0.00    -0.081 Cl
HETATM   14  C10 UNL     1      33.211   5.183  47.472  1.00  0.00     0.057 C 
HETATM   15  C11 UNL     1      32.312   6.183  47.972  1.00  0.00     0.050 C 
HETATM   16  C12 UNL     1      32.735   7.406  48.385  1.00  0.00     0.040 C 
HETATM   17  C13 UNL     1      32.379   8.821  48.608  1.00  0.00     0.215 C 
HETATM   18  N2  UNL     1      31.004   9.056  48.920  1.00  0.00    -0.282 NA
HETATM   19  C14 UNL     1      29.872   8.450  48.877  1.00  0.00     0.132 C 
HETATM   20  C15 UNL     1      29.293   7.289  48.262  1.00  0.00     0.157 C 
HETATM   21  N3  UNL     1      29.758   6.213  47.673  1.00  0.00    -0.185 NA
HETATM   22  N4  UNL     1      31.001   5.567  47.909  1.00  0.00    -0.279 N 
HETATM   23  H3  UNL     1      31.324   8.316  42.778  1.00  0.00     0.154 HD
HETATM   24  H12 UNL     1      31.230   4.541  48.085  1.00  0.00     0.189 HD
ENDROOT
TORSDOF 0
ENDMDL
MODEL 7
REMARK VINA RESULT:      -6.7      8.227      9.962
REMARK  0 active torsions:
REMARK  status: ('A' for Active; 'I' for Inactive)
ROOT
HETATM    1  O1  UNL     1      29.617   9.647  44.781  1.00  0.00    -0.281 OA
HETATM    2  C1  UNL     1      30.132   8.833  45.597  1.00  0.00     0.230 C 
HETATM    3  C2  UNL     1      30.035   9.308  46.905  1.00  0.00    -0.025 C 
HETATM    4  C3  UNL     1      29.970   9.686  47.989  1.00  0.00    -0.079 C 
HETATM    5  C4  UNL     1      29.907  10.175  49.334  1.00  0.00     0.210 C 
HETATM    6  N1  UNL     1      28.532  10.607  49.560  1.00  0.00    -0.402 N 
HETATM    7  C5  UNL     1      27.693   9.399  49.620  1.00  0.00     0.126 C 
HETATM    8  C6  UNL     1      26.408   9.162  50.035  1.00  0.00     0.003 C 
HETATM    9  C7  UNL     1      25.974   7.744  49.911  1.00  0.00     0.042 C 
HETATM   10  C8  UNL     1      26.172   6.447  49.585  1.00  0.00     0.137 C 
HETATM   11  F1  UNL     1      25.090   5.605  49.811  1.00  0.00    -0.204 F 
HETATM   12  C9  UNL     1      27.252   5.610  49.000  1.00  0.00     0.074 C 
HETATM   13 CL1  UNL     1      26.837   3.884  48.846  1.00  0.00    -0.081 Cl
HETATM   14  C10 UNL     1      28.473   5.834  48.555  1.00  0.00     0.057 C 
HETATM   15  C11 UNL     1      29.758   6.310  48.130  1.00  0.00     0.050 C 
HETATM   16  C12 UNL     1      30.002   6.720  46.859  1.00  0.00     0.040 C 
HETATM   17  C13 UNL     1      30.837   7.555  45.974  1.00  0.00     0.215 C 
HETATM   18  N2  UNL     1      32.175   7.769  46.430  1.00  0.00    -0.282 NA
HETATM   19  C14 UNL     1      32.878   7.640  47.497  1.00  0.00     0.132 C 
HETATM   20  C15 UNL     1      32.677   7.451  48.906  1.00  0.00     0.157 C 
HETATM   21  N3  UNL     1      31.673   7.080  49.664  1.00  0.00    -0.185 NA
HETATM   22  N4  UNL     1      30.593   6.227  49.313  1.00  0.00    -0.279 N 
HETATM   23  H3  UNL     1      28.579  11.691  49.601  1.00  0.00     0.154 HD
HETATM   24  H12 UNL     1      30.182   5.381  49.814  1.00  0.00     0.189 HD
ENDROOT
TORSDOF 0
ENDMDL
MODEL 8
REMARK VINA RESULT:      -6.6      6.197      7.994
REMARK  0 active torsions:
REMARK  status: ('A' for Active; 'I' for Inactive)
ROOT
HETATM    1  O1  UNL     1      27.040   8.463  44.150  1.00  0.00    -0.281 OA
HETATM    2  C1  UNL     1      27.405   8.478  45.357  1.00  0.00     0.230 C 
HETATM    3  C2  UNL     1      26.369   8.910  46.188  1.00  0.00    -0.025 C 
HETATM    4  C3  UNL     1      25.530   9.271  46.885  1.00  0.00    -0.079 C 
HETATM    5  C4  UNL     1      24.488   9.744  47.747  1.00  0.00     0.210 C 
HETATM    6  N1  UNL     1      23.283   8.999  47.396  1.00  0.00    -0.402 N 
HETATM    7  C5  UNL     1      23.471   7.614  47.854  1.00  0.00     0.126 C 
HETATM    8  C6  UNL     1      22.621   6.550  48.016  1.00  0.00     0.003 C 
HETATM    9  C7  UNL     1      23.274   5.312  48.521  1.00  0.00     0.042 C 
HETATM   10  C8  UNL     1      24.343   4.600  48.945  1.00  0.00     0.137 C 
HETATM   11  F1  UNL     1      24.078   3.284  49.300  1.00  0.00    -0.204 F 
HETATM   12  C9  UNL     1      25.803   4.809  49.130  1.00  0.00     0.074 C 
HETATM   13 CL1  UNL     1      26.669   3.388  49.769  1.00  0.00    -0.081 Cl
HETATM   14  C10 UNL     1      26.639   5.810  48.934  1.00  0.00     0.057 C 
HETATM   15  C11 UNL     1      27.350   7.021  48.644  1.00  0.00     0.050 C 
HETATM   16  C12 UNL     1      27.924   7.261  47.437  1.00  0.00     0.040 C 
HETATM   17  C13 UNL     1      28.394   8.279  46.477  1.00  0.00     0.215 C 
HETATM   18  N2  UNL     1      28.829   9.508  47.064  1.00  0.00    -0.282 NA
HETATM   19  C14 UNL     1      28.764  10.135  48.183  1.00  0.00     0.132 C 
HETATM   20  C15 UNL     1      28.011  10.088  49.404  1.00  0.00     0.157 C 
HETATM   21  N3  UNL     1      27.228   9.211  49.986  1.00  0.00    -0.185 NA
HETATM   22  N4  UNL     1      27.276   7.797  49.866  1.00  0.00    -0.279 N 
HETATM   23  H3  UNL     1      22.640   9.720  46.899  1.00  0.00     0.154 HD
HETATM   24  H12 UNL     1      27.270   7.034  50.611  1.00  0.00     0.189 HD
ENDROOT
TORSDOF 0
ENDMDL
MODEL 9
REMARK VINA RESULT:      -6.2      4.802      7.414
REMARK  0 active torsions:
REMARK  status: ('A' for Active; 'I' for Inactive)
ROOT
HETATM    1  O1  UNL     1      27.470   3.982  49.195  1.00  0.00    -0.281 OA
HETATM    2  C1  UNL     1      26.266   3.939  49.571  1.00  0.00     0.230 C 
HETATM    3  C2  UNL     1      25.738   5.223  49.708  1.00  0.00    -0.025 C 
HETATM    4  C3  UNL     1      25.288   6.274  49.832  1.00  0.00    -0.079 C 
HETATM    5  C4  UNL     1      24.742   7.586  50.009  1.00  0.00     0.210 C 
HETATM    6  N1  UNL     1      25.064   8.341  48.802  1.00  0.00    -0.402 N 
HETATM    7  C5  UNL     1      24.243   7.798  47.709  1.00  0.00     0.126 C 
HETATM    8  C6  UNL     1      23.940   8.239  46.446  1.00  0.00     0.003 C 
HETATM    9  C7  UNL     1      23.043   7.335  45.677  1.00  0.00     0.042 C 
HETATM   10  C8  UNL     1      22.297   6.217  45.530  1.00  0.00     0.137 C 
HETATM   11  F1  UNL     1      21.658   6.086  44.303  1.00  0.00    -0.204 F 
HETATM   12  C9  UNL     1      21.957   5.007  46.322  1.00  0.00     0.074 C 
HETATM   13 CL1  UNL     1      20.854   3.878  45.495  1.00  0.00    -0.081 Cl
HETATM   14  C10 UNL     1      22.278   4.548  47.516  1.00  0.00     0.057 C 
HETATM   15  C11 UNL     1      22.761   4.253  48.834  1.00  0.00     0.050 C 
HETATM   16  C12 UNL     1      23.891   3.532  49.055  1.00  0.00     0.040 C 
HETATM   17  C13 UNL     1      24.999   3.233  49.982  1.00  0.00     0.215 C 
HETATM   18  N2  UNL     1      24.690   3.401  51.368  1.00  0.00    -0.282 NA
HETATM   19  C14 UNL     1      23.792   3.939  52.113  1.00  0.00     0.132 C 
HETATM   20  C15 UNL     1      22.726   4.893  51.998  1.00  0.00     0.157 C 
HETATM   21  N3  UNL     1      22.060   5.437  51.007  1.00  0.00    -0.185 NA
HETATM   22  N4  UNL     1      21.804   4.876  49.728  1.00  0.00    -0.279 N 
HETATM   23  H3  UNL     1      25.819   9.058  49.110  1.00  0.00     0.154 HD
HETATM   24  H12 UNL     1      20.897   4.792  49.173  1.00  0.00     0.189 HD
ENDROOT
TORSDOF 0
ENDMDL
