MODEL 1
REMARK VINA RESULT:      -8.3      0.000      0.000
REMARK  8 active torsions:
REMARK  status: ('A' for Active; 'I' for Inactive)
REMARK    1  A    between atoms: C2_2  and  N1_3 
REMARK    2  A    between atoms: N1_3  and  C3_4 
REMARK    3  A    between atoms: N1_3  and  C4_6 
REMARK    4  A    between atoms: C4_6  and  C5_7 
REMARK    5  A    between atoms: C6_8  and  C7_9 
REMARK    6  A    between atoms: C7_9  and  C8_10 
REMARK    7  A    between atoms: C11_13  and  N2_14 
REMARK    8  A    between atoms: N2_14  and  C12_15 
ROOT
HETATM    1  C8  UNL     1      24.904   2.967  50.718  1.00  0.00     0.046 C 
HETATM    2  C9  UNL     1      25.852   3.423  49.961  1.00  0.00     0.033 C 
HETATM    3  C10 UNL     1      26.611   4.375  49.197  1.00  0.00     0.066 C 
HETATM    4  C11 UNL     1      26.340   5.614  49.006  1.00  0.00     0.180 C 
HETATM    5  N3  UNL     1      25.603   6.718  49.099  1.00  0.00    -0.388 NA
HETATM    6  C18 UNL     1      24.989   7.622  49.564  1.00  0.00     0.258 C 
HETATM    7  N4  UNL     1      24.624   8.121  50.841  1.00  0.00    -0.203 NA
HETATM    8  C19 UNL     1      24.189   6.885  51.174  1.00  0.00    -0.007 C 
HETATM    9  C20 UNL     1      23.836   5.822  51.447  1.00  0.00    -0.042 C 
HETATM   10  C21 UNL     1      23.404   4.542  51.757  1.00  0.00     0.182 C 
HETATM   11  N5  UNL     1      24.416   4.241  51.047  1.00  0.00    -0.256 NA
HETATM   12  H18 UNL     1      24.314   8.323  51.777  1.00  0.00     0.145 HD
ENDROOT
BRANCH   4  13
HETATM   13  N2  UNL     1      27.224   6.384  48.224  1.00  0.00    -0.331 N 
HETATM   14  H13 UNL     1      26.781   6.878  47.381  1.00  0.00     0.168 HD
BRANCH  13  15
HETATM   15  C12 UNL     1      28.635   6.675  48.366  1.00  0.00     0.036 A 
HETATM   16  C13 UNL     1      29.723   5.711  48.097  1.00  0.00     0.032 A 
HETATM   17  C14 UNL     1      30.533   6.690  48.402  1.00  0.00     0.046 A 
HETATM   18  C15 UNL     1      31.375   7.690  48.713  1.00  0.00     0.138 A 
HETATM   19  F1  UNL     1      32.692   7.793  48.761  1.00  0.00    -0.204 F 
HETATM   20  C16 UNL     1      30.208   8.482  48.932  1.00  0.00     0.074 A 
HETATM   21 CL1  UNL     1      30.608  10.145  49.420  1.00  0.00    -0.081 Cl
HETATM   22  C17 UNL     1      28.866   8.042  48.778  1.00  0.00     0.056 A 
ENDBRANCH  13  15
ENDBRANCH   4  13
BRANCH   1  23
HETATM   23  C7  UNL     1      24.183   1.947  51.471  1.00  0.00     0.153 C 
BRANCH  23  24
HETATM   24  C6  UNL     1      25.060   1.393  52.499  1.00  0.00    -0.099 C 
HETATM   25  C5  UNL     1      25.752   0.954  53.338  1.00  0.00    -0.086 C 
BRANCH  25  26
HETATM   26  C4  UNL     1      26.621   0.369  54.405  1.00  0.00     0.219 C 
BRANCH  26  27
HETATM   27  N1  UNL     1      27.982   0.326  53.846  1.00  0.00    -0.349 N 
BRANCH  27  28
HETATM   28  C2  UNL     1      28.346  -0.927  53.308  1.00  0.00     0.121 C 
HETATM   29  C1  UNL     1      29.789  -1.303  53.518  1.00  0.00     0.026 C 
ENDBRANCH  27  28
BRANCH  27  30
HETATM   30  C3  UNL     1      28.898   1.403  53.896  1.00  0.00     0.351 C 
HETATM   31  O1  UNL     1      29.083   2.481  54.509  1.00  0.00    -0.284 OA
ENDBRANCH  27  30
ENDBRANCH  26  27
ENDBRANCH  25  26
ENDBRANCH  23  24
ENDBRANCH   1  23
TORSDOF 8
ENDMDL
MODEL 2
REMARK VINA RESULT:      -8.3      2.483      3.450
REMARK  8 active torsions:
REMARK  status: ('A' for Active; 'I' for Inactive)
REMARK    1  A    between atoms: C2_2  and  N1_3 
REMARK    2  A    between atoms: N1_3  and  C3_4 
REMARK    3  A    between atoms: N1_3  and  C4_6 
REMARK    4  A    between atoms: C4_6  and  C5_7 
REMARK    5  A    between atoms: C6_8  and  C7_9 
REMARK    6  A    between atoms: C7_9  and  C8_10 
REMARK    7  A    between atoms: C11_13  and  N2_14 
REMARK    8  A    between atoms: N2_14  and  C12_15 
ROOT
HETATM    1  C8  UNL     1      26.114   5.133  49.063  1.00  0.00     0.046 C 
HETATM    2  C9  UNL     1      27.339   5.163  48.641  1.00  0.00     0.033 C 
HETATM    3  C10 UNL     1      28.619   5.717  48.291  1.00  0.00     0.066 C 
HETATM    4  C11 UNL     1      28.978   6.946  48.350  1.00  0.00     0.180 C 
HETATM    5  N3  UNL     1      28.800   8.249  48.553  1.00  0.00    -0.388 NA
HETATM    6  C18 UNL     1      28.533   9.276  49.087  1.00  0.00     0.258 C 
HETATM    7  N4  UNL     1      28.070   9.736  50.347  1.00  0.00    -0.203 NA
HETATM    8  C19 UNL     1      27.068   8.831  50.283  1.00  0.00    -0.007 C 
HETATM    9  C20 UNL     1      26.228   8.044  50.221  1.00  0.00    -0.042 C 
HETATM   10  C21 UNL     1      25.215   7.102  50.125  1.00  0.00     0.182 C 
HETATM   11  N5  UNL     1      26.154   6.436  49.581  1.00  0.00    -0.256 NA
HETATM   12  H18 UNL     1      27.623   9.951  51.224  1.00  0.00     0.145 HD
ENDROOT
BRANCH   4  13
HETATM   13  N2  UNL     1      30.292   7.283  47.966  1.00  0.00    -0.331 N 
HETATM   14  H13 UNL     1      30.395   8.222  47.457  1.00  0.00     0.168 HD
BRANCH  13  15
HETATM   15  C12 UNL     1      31.559   6.611  48.165  1.00  0.00     0.036 A 
HETATM   16  C13 UNL     1      32.183   6.369  49.484  1.00  0.00     0.032 A 
HETATM   17  C14 UNL     1      33.132   5.770  48.814  1.00  0.00     0.046 A 
HETATM   18  C15 UNL     1      34.113   5.152  48.136  1.00  0.00     0.138 A 
HETATM   19  F1  UNL     1      35.229   4.541  48.498  1.00  0.00    -0.204 F 
HETATM   20  C16 UNL     1      33.377   5.473  46.956  1.00  0.00     0.074 A 
HETATM   21 CL1  UNL     1      34.175   4.878  45.484  1.00  0.00    -0.081 Cl
HETATM   22  C17 UNL     1      32.141   6.174  46.915  1.00  0.00     0.056 A 
ENDBRANCH  13  15
ENDBRANCH   4  13
BRANCH   1  23
HETATM   23  C7  UNL     1      24.840   4.504  49.393  1.00  0.00     0.153 C 
BRANCH  23  24
HETATM   24  C6  UNL     1      25.022   3.611  50.534  1.00  0.00    -0.099 C 
HETATM   25  C5  UNL     1      25.173   2.909  51.461  1.00  0.00    -0.086 C 
BRANCH  25  26
HETATM   26  C4  UNL     1      25.337   2.016  52.649  1.00  0.00     0.219 C 
BRANCH  26  27
HETATM   27  N1  UNL     1      26.708   1.485  52.576  1.00  0.00    -0.349 N 
BRANCH  27  28
HETATM   28  C2  UNL     1      26.794   0.183  52.037  1.00  0.00     0.121 C 
HETATM   29  C1  UNL     1      26.448  -0.919  53.004  1.00  0.00     0.026 C 
ENDBRANCH  27  28
BRANCH  27  30
HETATM   30  C3  UNL     1      27.851   2.160  53.064  1.00  0.00     0.351 C 
HETATM   31  O1  UNL     1      28.306   2.633  54.131  1.00  0.00    -0.284 OA
ENDBRANCH  27  30
ENDBRANCH  26  27
ENDBRANCH  25  26
ENDBRANCH  23  24
ENDBRANCH   1  23
TORSDOF 8
ENDMDL
MODEL 3
REMARK VINA RESULT:      -8.3      4.728      7.943
REMARK  8 active torsions:
REMARK  status: ('A' for Active; 'I' for Inactive)
REMARK    1  A    between atoms: C2_2  and  N1_3 
REMARK    2  A    between atoms: N1_3  and  C3_4 
REMARK    3  A    between atoms: N1_3  and  C4_6 
REMARK    4  A    between atoms: C4_6  and  C5_7 
REMARK    5  A    between atoms: C6_8  and  C7_9 
REMARK    6  A    between atoms: C7_9  and  C8_10 
REMARK    7  A    between atoms: C11_13  and  N2_14 
REMARK    8  A    between atoms: N2_14  and  C12_15 
ROOT
HETATM    1  C8  UNL     1      27.195   5.475  48.805  1.00  0.00     0.046 C 
HETATM    2  C9  UNL     1      26.689   4.303  49.024  1.00  0.00     0.033 C 
HETATM    3  C10 UNL     1      25.845   3.301  49.616  1.00  0.00     0.066 C 
HETATM    4  C11 UNL     1      24.980   3.463  50.548  1.00  0.00     0.180 C 
HETATM    5  N3  UNL     1      24.319   4.148  51.477  1.00  0.00    -0.388 NA
HETATM    6  C18 UNL     1      23.645   4.980  51.993  1.00  0.00     0.258 C 
HETATM    7  N4  UNL     1      22.926   6.148  51.630  1.00  0.00    -0.203 NA
HETATM    8  C19 UNL     1      24.028   6.599  50.991  1.00  0.00    -0.007 C 
HETATM    9  C20 UNL     1      24.972   6.964  50.438  1.00  0.00    -0.042 C 
HETATM   10  C21 UNL     1      26.118   7.395  49.788  1.00  0.00     0.182 C 
HETATM   11  N5  UNL     1      26.207   6.150  49.537  1.00  0.00    -0.256 NA
HETATM   12  H18 UNL     1      22.554   7.023  51.299  1.00  0.00     0.145 HD
ENDROOT
BRANCH   4  13
HETATM   13  N2  UNL     1      24.243   2.343  50.985  1.00  0.00    -0.331 N 
HETATM   14  H13 UNL     1      23.345   2.141  50.434  1.00  0.00     0.168 HD
BRANCH  13  15
HETATM   15  C12 UNL     1      24.491   1.371  52.029  1.00  0.00     0.036 A 
HETATM   16  C13 UNL     1      25.833   0.980  52.511  1.00  0.00     0.032 A 
HETATM   17  C14 UNL     1      25.198   0.204  53.350  1.00  0.00     0.046 A 
HETATM   18  C15 UNL     1      24.555  -0.596  54.216  1.00  0.00     0.138 A 
HETATM   19  F1  UNL     1      24.956  -1.428  55.161  1.00  0.00    -0.204 F 
HETATM   20  C16 UNL     1      23.348  -0.109  53.629  1.00  0.00     0.074 A 
HETATM   21 CL1  UNL     1      21.902  -0.818  54.383  1.00  0.00    -0.081 Cl
HETATM   22  C17 UNL     1      23.262   0.838  52.574  1.00  0.00     0.056 A 
ENDBRANCH  13  15
ENDBRANCH   4  13
BRANCH   1  23
HETATM   23  C7  UNL     1      28.086   6.437  48.165  1.00  0.00     0.153 C 
BRANCH  23  24
HETATM   24  C6  UNL     1      29.447   5.908  48.161  1.00  0.00    -0.099 C 
HETATM   25  C5  UNL     1      30.536   5.471  48.143  1.00  0.00    -0.086 C 
BRANCH  25  26
HETATM   26  C4  UNL     1      31.932   4.939  48.103  1.00  0.00     0.219 C 
BRANCH  26  27
HETATM   27  N1  UNL     1      32.109   4.354  46.764  1.00  0.00    -0.349 N 
BRANCH  27  28
HETATM   28  C2  UNL     1      31.688   3.010  46.660  1.00  0.00     0.121 C 
HETATM   29  C1  UNL     1      32.744   1.995  47.012  1.00  0.00     0.026 C 
ENDBRANCH  27  28
BRANCH  27  30
HETATM   30  C3  UNL     1      32.713   5.025  45.675  1.00  0.00     0.351 C 
HETATM   31  O1  UNL     1      33.199   4.782  44.545  1.00  0.00    -0.284 OA
ENDBRANCH  27  30
ENDBRANCH  26  27
ENDBRANCH  25  26
ENDBRANCH  23  24
ENDBRANCH   1  23
TORSDOF 8
ENDMDL
MODEL 4
REMARK VINA RESULT:      -8.1      3.288      7.280
REMARK  8 active torsions:
REMARK  status: ('A' for Active; 'I' for Inactive)
REMARK    1  A    between atoms: C2_2  and  N1_3 
REMARK    2  A    between atoms: N1_3  and  C3_4 
REMARK    3  A    between atoms: N1_3  and  C4_6 
REMARK    4  A    between atoms: C4_6  and  C5_7 
REMARK    5  A    between atoms: C6_8  and  C7_9 
REMARK    6  A    between atoms: C7_9  and  C8_10 
REMARK    7  A    between atoms: C11_13  and  N2_14 
REMARK    8  A    between atoms: N2_14  and  C12_15 
ROOT
HETATM    1  C8  UNL     1      26.221   5.617  49.004  1.00  0.00     0.046 C 
HETATM    2  C9  UNL     1      26.435   4.381  49.331  1.00  0.00     0.033 C 
HETATM    3  C10 UNL     1      26.304   3.151  50.064  1.00  0.00     0.066 C 
HETATM    4  C11 UNL     1      25.567   2.929  51.089  1.00  0.00     0.180 C 
HETATM    5  N3  UNL     1      24.724   3.257  52.065  1.00  0.00    -0.388 NA
HETATM    6  C18 UNL     1      23.758   3.661  52.626  1.00  0.00     0.258 C 
HETATM    7  N4  UNL     1      22.502   4.238  52.309  1.00  0.00    -0.203 NA
HETATM    8  C19 UNL     1      23.138   5.132  51.520  1.00  0.00    -0.007 C 
HETATM    9  C20 UNL     1      23.693   5.879  50.839  1.00  0.00    -0.042 C 
HETATM   10  C21 UNL     1      24.377   6.778  50.036  1.00  0.00     0.182 C 
HETATM   11  N5  UNL     1      25.091   5.745  49.825  1.00  0.00    -0.256 NA
HETATM   12  H18 UNL     1      21.696   4.752  51.992  1.00  0.00     0.145 HD
ENDROOT
BRANCH   4  13
HETATM   13  N2  UNL     1      25.577   1.641  51.659  1.00  0.00    -0.331 N 
HETATM   14  H13 UNL     1      24.658   1.093  51.572  1.00  0.00     0.168 HD
BRANCH  13  15
HETATM   15  C12 UNL     1      26.620   0.883  52.317  1.00  0.00     0.036 A 
HETATM   16  C13 UNL     1      26.796  -0.581  52.202  1.00  0.00     0.032 A 
HETATM   17  C14 UNL     1      27.838  -0.418  52.973  1.00  0.00     0.046 A 
HETATM   18  C15 UNL     1      28.912  -0.262  53.764  1.00  0.00     0.138 A 
HETATM   19  F1  UNL     1      29.809  -1.095  54.262  1.00  0.00    -0.204 F 
HETATM   20  C16 UNL     1      28.594   1.130  53.768  1.00  0.00     0.074 A 
HETATM   21 CL1  UNL     1      29.747   2.080  54.731  1.00  0.00    -0.081 Cl
HETATM   22  C17 UNL     1      27.502   1.733  53.087  1.00  0.00     0.056 A 
ENDBRANCH  13  15
ENDBRANCH   4  13
BRANCH   1  23
HETATM   23  C7  UNL     1      26.408   6.832  48.219  1.00  0.00     0.153 C 
BRANCH  23  24
HETATM   24  C6  UNL     1      27.812   6.948  47.834  1.00  0.00    -0.099 C 
HETATM   25  C5  UNL     1      28.934   7.042  47.505  1.00  0.00    -0.086 C 
BRANCH  25  26
HETATM   26  C4  UNL     1      30.362   7.191  47.091  1.00  0.00     0.219 C 
BRANCH  26  27
HETATM   27  N1  UNL     1      31.130   7.392  48.331  1.00  0.00    -0.349 N 
BRANCH  27  28
HETATM   28  C2  UNL     1      31.605   8.709  48.509  1.00  0.00     0.121 C 
HETATM   29  C1  UNL     1      30.793   9.543  49.466  1.00  0.00     0.026 C 
ENDBRANCH  27  28
BRANCH  27  30
HETATM   30  C3  UNL     1      31.447   6.362  49.247  1.00  0.00     0.351 C 
HETATM   31  O1  UNL     1      31.731   5.141  49.262  1.00  0.00    -0.284 OA
ENDBRANCH  27  30
ENDBRANCH  26  27
ENDBRANCH  25  26
ENDBRANCH  23  24
ENDBRANCH   1  23
TORSDOF 8
ENDMDL
MODEL 5
REMARK VINA RESULT:      -7.9      2.141      2.591
REMARK  8 active torsions:
REMARK  status: ('A' for Active; 'I' for Inactive)
REMARK    1  A    between atoms: C2_2  and  N1_3 
REMARK    2  A    between atoms: N1_3  and  C3_4 
REMARK    3  A    between atoms: N1_3  and  C4_6 
REMARK    4  A    between atoms: C4_6  and  C5_7 
REMARK    5  A    between atoms: C6_8  and  C7_9 
REMARK    6  A    between atoms: C7_9  and  C8_10 
REMARK    7  A    between atoms: C11_13  and  N2_14 
REMARK    8  A    between atoms: N2_14  and  C12_15 
ROOT
HETATM    1  C8  UNL     1      25.500   3.608  49.947  1.00  0.00     0.046 C 
HETATM    2  C9  UNL     1      26.613   3.847  49.328  1.00  0.00     0.033 C 
HETATM    3  C10 UNL     1      27.656   4.613  48.701  1.00  0.00     0.066 C 
HETATM    4  C11 UNL     1      27.697   5.884  48.537  1.00  0.00     0.180 C 
HETATM    5  N3  UNL     1      27.223   7.126  48.593  1.00  0.00    -0.388 NA
HETATM    6  C18 UNL     1      26.777   8.139  49.024  1.00  0.00     0.258 C 
HETATM    7  N4  UNL     1      26.378   8.685  50.271  1.00  0.00    -0.203 NA
HETATM    8  C19 UNL     1      25.638   7.577  50.495  1.00  0.00    -0.007 C 
HETATM    9  C20 UNL     1      25.023   6.619  50.676  1.00  0.00    -0.042 C 
HETATM   10  C21 UNL     1      24.277   5.467  50.874  1.00  0.00     0.182 C 
HETATM   11  N5  UNL     1      25.276   4.954  50.275  1.00  0.00    -0.256 NA
HETATM   12  H18 UNL     1      26.009   8.936  51.174  1.00  0.00     0.145 HD
ENDROOT
BRANCH   4  13
HETATM   13  N2  UNL     1      28.823   6.444  47.900  1.00  0.00    -0.331 N 
HETATM   14  H13 UNL     1      28.611   7.036  47.030  1.00  0.00     0.168 HD
BRANCH  13  15
HETATM   15  C12 UNL     1      30.234   6.408  48.223  1.00  0.00     0.036 A 
HETATM   16  C13 UNL     1      30.959   7.477  48.942  1.00  0.00     0.032 A 
HETATM   17  C14 UNL     1      32.006   6.701  48.838  1.00  0.00     0.046 A 
HETATM   18  C15 UNL     1      33.088   5.912  48.737  1.00  0.00     0.138 A 
HETATM   19  F1  UNL     1      34.343   6.029  49.134  1.00  0.00    -0.204 F 
HETATM   20  C16 UNL     1      32.239   4.989  48.054  1.00  0.00     0.074 A 
HETATM   21 CL1  UNL     1      33.103   3.513  47.571  1.00  0.00    -0.081 Cl
HETATM   22  C17 UNL     1      30.857   5.179  47.781  1.00  0.00     0.056 A 
ENDBRANCH  13  15
ENDBRANCH   4  13
BRANCH   1  23
HETATM   23  C7  UNL     1      24.479   2.768  50.563  1.00  0.00     0.153 C 
BRANCH  23  24
HETATM   24  C6  UNL     1      25.060   2.051  51.696  1.00  0.00    -0.099 C 
HETATM   25  C5  UNL     1      25.534   1.493  52.612  1.00  0.00    -0.086 C 
BRANCH  25  26
HETATM   26  C4  UNL     1      26.113   0.784  53.794  1.00  0.00     0.219 C 
BRANCH  26  27
HETATM   27  N1  UNL     1      27.158  -0.107  53.266  1.00  0.00    -0.349 N 
BRANCH  27  28
HETATM   28  C2  UNL     1      28.449   0.465  53.244  1.00  0.00     0.121 C 
HETATM   29  C1  UNL     1      28.903   1.032  54.563  1.00  0.00     0.026 C 
ENDBRANCH  27  28
BRANCH  27  30
HETATM   30  C3  UNL     1      26.915  -1.400  52.748  1.00  0.00     0.351 C 
HETATM   31  O1  UNL     1      27.378  -2.564  52.808  1.00  0.00    -0.284 OA
ENDBRANCH  27  30
ENDBRANCH  26  27
ENDBRANCH  25  26
ENDBRANCH  23  24
ENDBRANCH   1  23
TORSDOF 8
ENDMDL
MODEL 6
REMARK VINA RESULT:      -7.8      6.048     10.100
REMARK  8 active torsions:
REMARK  status: ('A' for Active; 'I' for Inactive)
REMARK    1  A    between atoms: C2_2  and  N1_3 
REMARK    2  A    between atoms: N1_3  and  C3_4 
REMARK    3  A    between atoms: N1_3  and  C4_6 
REMARK    4  A    between atoms: C4_6  and  C5_7 
REMARK    5  A    between atoms: C6_8  and  C7_9 
REMARK    6  A    between atoms: C7_9  and  C8_10 
REMARK    7  A    between atoms: C11_13  and  N2_14 
REMARK    8  A    between atoms: N2_14  and  C12_15 
ROOT
HETATM    1  C8  UNL     1      25.178   1.263  52.068  1.00  0.00     0.046 C 
HETATM    2  C9  UNL     1      23.911   1.516  52.169  1.00  0.00     0.033 C 
HETATM    3  C10 UNL     1      22.547   1.363  52.598  1.00  0.00     0.066 C 
HETATM    4  C11 UNL     1      22.068   0.448  53.358  1.00  0.00     0.180 C 
HETATM    5  N3  UNL     1      22.112  -0.668  54.082  1.00  0.00    -0.388 NA
HETATM    6  C18 UNL     1      22.432  -1.457  54.910  1.00  0.00     0.258 C 
HETATM    7  N4  UNL     1      23.353  -1.565  55.983  1.00  0.00    -0.203 NA
HETATM    8  C19 UNL     1      24.336  -1.159  55.151  1.00  0.00    -0.007 C 
HETATM    9  C20 UNL     1      25.162  -0.797  54.431  1.00  0.00    -0.042 C 
HETATM   10  C21 UNL     1      26.145  -0.374  53.551  1.00  0.00     0.182 C 
HETATM   11  N5  UNL     1      25.180   0.336  53.122  1.00  0.00    -0.256 NA
HETATM   12  H18 UNL     1      24.118  -1.593  56.637  1.00  0.00     0.145 HD
ENDROOT
BRANCH   4  13
HETATM   13  N2  UNL     1      20.694   0.481  53.667  1.00  0.00    -0.331 N 
HETATM   14  H13 UNL     1      20.446   0.932  54.609  1.00  0.00     0.168 HD
BRANCH  13  15
HETATM   15  C12 UNL     1      19.525   0.054  52.926  1.00  0.00     0.036 A 
HETATM   16  C13 UNL     1      18.657  -1.080  53.308  1.00  0.00     0.032 A 
HETATM   17  C14 UNL     1      17.947  -0.762  52.258  1.00  0.00     0.046 A 
HETATM   18  C15 UNL     1      17.209  -0.444  51.182  1.00  0.00     0.138 A 
HETATM   19  F1  UNL     1      16.108  -0.945  50.648  1.00  0.00    -0.204 F 
HETATM   20  C16 UNL     1      18.151   0.606  50.960  1.00  0.00     0.074 A 
HETATM   21 CL1  UNL     1      17.750   1.575  49.525  1.00  0.00    -0.081 Cl
HETATM   22  C17 UNL     1      19.283   0.889  51.770  1.00  0.00     0.056 A 
ENDBRANCH  13  15
ENDBRANCH   4  13
BRANCH   1  23
HETATM   23  C7  UNL     1      26.539   1.476  51.588  1.00  0.00     0.153 C 
BRANCH  23  24
HETATM   24  C6  UNL     1      26.561   2.628  50.691  1.00  0.00    -0.099 C 
HETATM   25  C5  UNL     1      26.578   3.565  49.986  1.00  0.00    -0.086 C 
BRANCH  25  26
HETATM   26  C4  UNL     1      26.629   4.757  49.086  1.00  0.00     0.219 C 
BRANCH  26  27
HETATM   27  N1  UNL     1      25.451   5.574  49.420  1.00  0.00    -0.349 N 
BRANCH  27  28
HETATM   28  C2  UNL     1      24.241   5.090  48.875  1.00  0.00     0.121 C 
HETATM   29  C1  UNL     1      23.242   4.612  49.895  1.00  0.00     0.026 C 
ENDBRANCH  27  28
BRANCH  27  30
HETATM   30  C3  UNL     1      25.500   6.781  50.155  1.00  0.00     0.351 C 
HETATM   31  O1  UNL     1      24.734   7.581  50.742  1.00  0.00    -0.284 OA
ENDBRANCH  27  30
ENDBRANCH  26  27
ENDBRANCH  25  26
ENDBRANCH  23  24
ENDBRANCH   1  23
TORSDOF 8
ENDMDL
MODEL 7
REMARK VINA RESULT:      -7.7      5.087      8.492
REMARK  8 active torsions:
REMARK  status: ('A' for Active; 'I' for Inactive)
REMARK    1  A    between atoms: C2_2  and  N1_3 
REMARK    2  A    between atoms: N1_3  and  C3_4 
REMARK    3  A    between atoms: N1_3  and  C4_6 
REMARK    4  A    between atoms: C4_6  and  C5_7 
REMARK    5  A    between atoms: C6_8  and  C7_9 
REMARK    6  A    between atoms: C7_9  and  C8_10 
REMARK    7  A    between atoms: C11_13  and  N2_14 
REMARK    8  A    between atoms: N2_14  and  C12_15 
ROOT
HETATM    1  C8  UNL     1      26.739   5.239  49.024  1.00  0.00     0.046 C 
HETATM    2  C9  UNL     1      26.400   4.028  49.336  1.00  0.00     0.033 C 
HETATM    3  C10 UNL     1      25.739   2.966  50.045  1.00  0.00     0.066 C 
HETATM    4  C11 UNL     1      24.949   3.073  51.049  1.00  0.00     0.180 C 
HETATM    5  N3  UNL     1      24.298   3.723  52.011  1.00  0.00    -0.388 NA
HETATM    6  C18 UNL     1      23.579   4.496  52.555  1.00  0.00     0.258 C 
HETATM    7  N4  UNL     1      22.695   5.553  52.218  1.00  0.00    -0.203 NA
HETATM    8  C19 UNL     1      23.672   6.096  51.458  1.00  0.00    -0.007 C 
HETATM    9  C20 UNL     1      24.511   6.540  50.803  1.00  0.00    -0.042 C 
HETATM   10  C21 UNL     1      25.533   7.067  50.030  1.00  0.00     0.182 C 
HETATM   11  N5  UNL     1      25.747   5.830  49.820  1.00  0.00    -0.256 NA
HETATM   12  H18 UNL     1      22.192   6.361  51.890  1.00  0.00     0.145 HD
ENDROOT
BRANCH   4  13
HETATM   13  N2  UNL     1      24.396   1.899  51.599  1.00  0.00    -0.331 N 
HETATM   14  H13 UNL     1      25.068   1.306  52.187  1.00  0.00     0.168 HD
BRANCH  13  15
HETATM   15  C12 UNL     1      23.057   1.350  51.555  1.00  0.00     0.036 A 
HETATM   16  C13 UNL     1      22.144   1.452  50.397  1.00  0.00     0.032 A 
HETATM   17  C14 UNL     1      21.308   0.754  51.119  1.00  0.00     0.046 A 
HETATM   18  C15 UNL     1      20.440   0.037  51.852  1.00  0.00     0.138 A 
HETATM   19  F1  UNL     1      19.220  -0.422  51.633  1.00  0.00    -0.204 F 
HETATM   20  C16 UNL     1      21.441   0.039  52.871  1.00  0.00     0.074 A 
HETATM   21 CL1  UNL     1      20.924  -0.852  54.320  1.00  0.00    -0.081 Cl
HETATM   22  C17 UNL     1      22.717   0.656  52.778  1.00  0.00     0.056 A 
ENDBRANCH  13  15
ENDBRANCH   4  13
BRANCH   1  23
HETATM   23  C7  UNL     1      27.446   6.263  48.263  1.00  0.00     0.153 C 
BRANCH  23  24
HETATM   24  C6  UNL     1      28.851   5.888  48.134  1.00  0.00    -0.099 C 
HETATM   25  C5  UNL     1      29.979   5.575  48.048  1.00  0.00    -0.086 C 
BRANCH  25  26
HETATM   26  C4  UNL     1      31.407   5.155  47.919  1.00  0.00     0.219 C 
BRANCH  26  27
HETATM   27  N1  UNL     1      32.178   6.388  47.688  1.00  0.00    -0.349 N 
BRANCH  27  28
HETATM   28  C2  UNL     1      32.654   6.533  46.367  1.00  0.00     0.121 C 
HETATM   29  C1  UNL     1      33.436   5.353  45.851  1.00  0.00     0.026 C 
ENDBRANCH  27  28
BRANCH  27  30
HETATM   30  C3  UNL     1      32.496   7.329  48.695  1.00  0.00     0.351 C 
HETATM   31  O1  UNL     1      31.978   7.881  49.695  1.00  0.00    -0.284 OA
ENDBRANCH  27  30
ENDBRANCH  26  27
ENDBRANCH  25  26
ENDBRANCH  23  24
ENDBRANCH   1  23
TORSDOF 8
ENDMDL
MODEL 8
REMARK VINA RESULT:      -7.7      1.282      1.539
REMARK  8 active torsions:
REMARK  status: ('A' for Active; 'I' for Inactive)
REMARK    1  A    between atoms: C2_2  and  N1_3 
REMARK    2  A    between atoms: N1_3  and  C3_4 
REMARK    3  A    between atoms: N1_3  and  C4_6 
REMARK    4  A    between atoms: C4_6  and  C5_7 
REMARK    5  A    between atoms: C6_8  and  C7_9 
REMARK    6  A    between atoms: C7_9  and  C8_10 
REMARK    7  A    between atoms: C11_13  and  N2_14 
REMARK    8  A    between atoms: N2_14  and  C12_15 
ROOT
HETATM    1  C8  UNL     1      24.163   2.461  51.430  1.00  0.00     0.046 C 
HETATM    2  C9  UNL     1      25.031   3.169  50.779  1.00  0.00     0.033 C 
HETATM    3  C10 UNL     1      25.569   4.286  50.051  1.00  0.00     0.066 C 
HETATM    4  C11 UNL     1      24.961   5.366  49.719  1.00  0.00     0.180 C 
HETATM    5  N3  UNL     1      23.912   6.178  49.613  1.00  0.00    -0.388 NA
HETATM    6  C18 UNL     1      22.981   6.854  49.908  1.00  0.00     0.258 C 
HETATM    7  N4  UNL     1      22.279   7.255  51.073  1.00  0.00    -0.203 NA
HETATM    8  C19 UNL     1      22.202   5.958  51.445  1.00  0.00    -0.007 C 
HETATM    9  C20 UNL     1      22.157   4.849  51.755  1.00  0.00    -0.042 C 
HETATM   10  C21 UNL     1      22.100   3.509  52.108  1.00  0.00     0.182 C 
HETATM   11  N5  UNL     1      23.257   3.523  51.578  1.00  0.00    -0.256 NA
HETATM   12  H18 UNL     1      21.775   7.381  51.936  1.00  0.00     0.145 HD
ENDROOT
BRANCH   4  13
HETATM   13  N2  UNL     1      25.676   6.350  49.008  1.00  0.00    -0.331 N 
HETATM   14  H13 UNL     1      25.086   7.160  48.626  1.00  0.00     0.168 HD
BRANCH  13  15
HETATM   15  C12 UNL     1      27.087   6.502  48.723  1.00  0.00     0.036 A 
HETATM   16  C13 UNL     1      27.993   5.395  48.350  1.00  0.00     0.032 A 
HETATM   17  C14 UNL     1      28.918   6.313  48.258  1.00  0.00     0.046 A 
HETATM   18  C15 UNL     1      29.877   7.249  48.160  1.00  0.00     0.138 A 
HETATM   19  F1  UNL     1      31.160   7.213  47.843  1.00  0.00    -0.204 F 
HETATM   20  C16 UNL     1      28.870   8.189  48.536  1.00  0.00     0.074 A 
HETATM   21 CL1  UNL     1      29.497   9.852  48.606  1.00  0.00    -0.081 Cl
HETATM   22  C17 UNL     1      27.512   7.882  48.817  1.00  0.00     0.056 A 
ENDBRANCH  13  15
ENDBRANCH   4  13
BRANCH   1  23
HETATM   23  C7  UNL     1      23.683   1.291  52.157  1.00  0.00     0.153 C 
BRANCH  23  24
HETATM   24  C6  UNL     1      24.715   0.842  53.087  1.00  0.00    -0.099 C 
HETATM   25  C5  UNL     1      25.552   0.500  53.834  1.00  0.00    -0.086 C 
BRANCH  25  26
HETATM   26  C4  UNL     1      26.599   0.067  54.809  1.00  0.00     0.219 C 
BRANCH  26  27
HETATM   27  N1  UNL     1      27.870   0.630  54.322  1.00  0.00    -0.349 N 
BRANCH  27  28
HETATM   28  C2  UNL     1      28.996  -0.183  54.576  1.00  0.00     0.121 C 
HETATM   29  C1  UNL     1      29.370  -1.104  53.445  1.00  0.00     0.026 C 
ENDBRANCH  27  28
BRANCH  27  30
HETATM   30  C3  UNL     1      27.998   1.902  53.717  1.00  0.00     0.351 C 
HETATM   31  O1  UNL     1      28.691   2.492  52.855  1.00  0.00    -0.284 OA
ENDBRANCH  27  30
ENDBRANCH  26  27
ENDBRANCH  25  26
ENDBRANCH  23  24
ENDBRANCH   1  23
TORSDOF 8
ENDMDL
MODEL 9
REMARK VINA RESULT:      -7.7      2.414      3.418
REMARK  8 active torsions:
REMARK  status: ('A' for Active; 'I' for Inactive)
REMARK    1  A    between atoms: C2_2  and  N1_3 
REMARK    2  A    between atoms: N1_3  and  C3_4 
REMARK    3  A    between atoms: N1_3  and  C4_6 
REMARK    4  A    between atoms: C4_6  and  C5_7 
REMARK    5  A    between atoms: C6_8  and  C7_9 
REMARK    6  A    between atoms: C7_9  and  C8_10 
REMARK    7  A    between atoms: C11_13  and  N2_14 
REMARK    8  A    between atoms: N2_14  and  C12_15 
ROOT
HETATM    1  C8  UNL     1      26.708   4.896  49.003  1.00  0.00     0.046 C 
HETATM    2  C9  UNL     1      27.852   5.237  48.500  1.00  0.00     0.033 C 
HETATM    3  C10 UNL     1      28.921   6.099  48.072  1.00  0.00     0.066 C 
HETATM    4  C11 UNL     1      28.956   7.379  48.123  1.00  0.00     0.180 C 
HETATM    5  N3  UNL     1      28.464   8.594  48.355  1.00  0.00    -0.388 NA
HETATM    6  C18 UNL     1      27.981   9.520  48.920  1.00  0.00     0.258 C 
HETATM    7  N4  UNL     1      27.503   9.851  50.214  1.00  0.00    -0.203 NA
HETATM    8  C19 UNL     1      26.764   8.720  50.206  1.00  0.00    -0.007 C 
HETATM    9  C20 UNL     1      26.151   7.744  50.190  1.00  0.00    -0.042 C 
HETATM   10  C21 UNL     1      25.410   6.573  50.150  1.00  0.00     0.182 C 
HETATM   11  N5  UNL     1      26.448   6.168  49.535  1.00  0.00    -0.256 NA
HETATM   12  H18 UNL     1      27.078   9.949  51.122  1.00  0.00     0.145 HD
ENDROOT
BRANCH   4  13
HETATM   13  N2  UNL     1      30.110   8.040  47.656  1.00  0.00    -0.331 N 
HETATM   14  H13 UNL     1      29.937   8.810  46.930  1.00  0.00     0.168 HD
BRANCH  13  15
HETATM   15  C12 UNL     1      31.509   7.904  48.004  1.00  0.00     0.036 A 
HETATM   16  C13 UNL     1      32.011   7.219  49.214  1.00  0.00     0.032 A 
HETATM   17  C14 UNL     1      33.203   7.505  48.762  1.00  0.00     0.046 A 
HETATM   18  C15 UNL     1      34.433   7.794  48.307  1.00  0.00     0.138 A 
HETATM   19  F1  UNL     1      35.653   7.556  48.758  1.00  0.00    -0.204 F 
HETATM   20  C16 UNL     1      33.779   8.419  47.203  1.00  0.00     0.074 A 
HETATM   21 CL1  UNL     1      34.935   9.101  46.036  1.00  0.00    -0.081 Cl
HETATM   22  C17 UNL     1      32.374   8.499  47.009  1.00  0.00     0.056 A 
ENDBRANCH  13  15
ENDBRANCH   4  13
BRANCH   1  23
HETATM   23  C7  UNL     1      25.663   3.962  49.409  1.00  0.00     0.153 C 
BRANCH  23  24
HETATM   24  C6  UNL     1      26.179   3.083  50.455  1.00  0.00    -0.099 C 
HETATM   25  C5  UNL     1      26.606   2.391  51.300  1.00  0.00    -0.086 C 
BRANCH  25  26
HETATM   26  C4  UNL     1      27.128   1.518  52.395  1.00  0.00     0.219 C 
BRANCH  26  27
HETATM   27  N1  UNL     1      26.080   0.518  52.657  1.00  0.00    -0.349 N 
BRANCH  27  28
HETATM   28  C2  UNL     1      26.535  -0.818  52.618  1.00  0.00     0.121 C 
HETATM   29  C1  UNL     1      27.961  -1.007  53.065  1.00  0.00     0.026 C 
ENDBRANCH  27  28
BRANCH  27  30
HETATM   30  C3  UNL     1      24.715   0.828  52.858  1.00  0.00     0.351 C 
HETATM   31  O1  UNL     1      23.603   0.686  52.296  1.00  0.00    -0.284 OA
ENDBRANCH  27  30
ENDBRANCH  26  27
ENDBRANCH  25  26
ENDBRANCH  23  24
ENDBRANCH   1  23
TORSDOF 8
ENDMDL
