MODEL 1
REMARK VINA RESULT:      -8.8      0.000      0.000
REMARK  3 active torsions:
REMARK  status: ('A' for Active; 'I' for Inactive)
REMARK    1  A    between atoms: C2_3  and  N1_4 
REMARK    2  A    between atoms: N1_4  and  C3_5 
REMARK    3  A    between atoms: C3_5  and  N2_6 
ROOT
HETATM    1  N2  UNL     1      24.207   3.793  53.024  1.00  0.00    -0.253 NA
HETATM    2  C4  UNL     1      24.044   2.514  53.027  1.00  0.00     0.153 C 
HETATM    3  N3  UNL     1      22.813   1.891  52.724  1.00  0.00    -0.219 NA
HETATM    4  C5  UNL     1      22.682   0.614  52.582  1.00  0.00     0.260 C 
HETATM    5  O1  UNL     1      23.765  -0.244  52.719  1.00  0.00    -0.306 OA
HETATM    6  C6  UNL     1      25.016   0.285  53.017  1.00  0.00     0.085 C 
HETATM    7  C7  UNL     1      25.983  -0.646  52.941  1.00  0.00     0.049 C 
HETATM    8  C8  UNL     1      27.441  -0.508  53.180  1.00  0.00    -0.000 A 
HETATM    9  C9  UNL     1      28.082  -1.660  53.080  1.00  0.00     0.179 A 
HETATM   10  O2  UNL     1      29.470  -1.737  53.271  1.00  0.00    -0.250 OA
HETATM   11  N4  UNL     1      30.103  -0.532  53.568  1.00  0.00    -0.272 N 
HETATM   12  C10 UNL     1      29.457   0.740  53.686  1.00  0.00     0.124 A 
HETATM   13  C11 UNL     1      28.148   0.747  53.495  1.00  0.00    -0.011 A 
HETATM   14  C12 UNL     1      27.622   2.134  53.651  1.00  0.00     0.156 C 
HETATM   15  N5  UNL     1      26.406   2.303  52.944  1.00  0.00    -0.402 N 
HETATM   16  C13 UNL     1      25.239   1.697  53.371  1.00  0.00     0.207 C 
HETATM   17  H7  UNL     1      31.151  -0.591  53.712  1.00  0.00     0.193 HD
HETATM   18  H11 UNL     1      26.441   2.805  52.051  1.00  0.00     0.154 HD
ENDROOT
BRANCH   1  19
HETATM   19  C3  UNL     1      23.170   4.755  52.716  1.00  0.00     0.272 C 
BRANCH  19  20
HETATM   20  N1  UNL     1      23.051   4.975  51.296  1.00  0.00    -0.370 N 
HETATM   21  H1  UNL     1      22.310   4.794  50.588  1.00  0.00     0.161 HD
BRANCH  20  22
HETATM   22  C2  UNL     1      24.187   5.573  50.680  1.00  0.00     0.065 A 
HETATM   23  C1  UNL     1      24.572   6.842  50.677  1.00  0.00     0.125 A 
HETATM   24  F1  UNL     1      24.034   7.954  51.237  1.00  0.00    -0.208 F 
HETATM   25  C16 UNL     1      25.831   7.004  49.898  1.00  0.00     0.123 A 
HETATM   26  C15 UNL     1      26.147   5.638  49.431  1.00  0.00     0.020 A 
HETATM   27  C14 UNL     1      25.184   4.843  49.898  1.00  0.00     0.052 A 
HETATM   28 CL1  UNL     1      27.547   5.252  48.455  1.00  0.00    -0.088 Cl
ENDBRANCH  20  22
ENDBRANCH  19  20
ENDBRANCH   1  19
TORSDOF 3
ENDMDL
MODEL 2
REMARK VINA RESULT:      -8.6      2.557      4.647
REMARK  3 active torsions:
REMARK  status: ('A' for Active; 'I' for Inactive)
REMARK    1  A    between atoms: C2_3  and  N1_4 
REMARK    2  A    between atoms: N1_4  and  C3_5 
REMARK    3  A    between atoms: C3_5  and  N2_6 
ROOT
HETATM    1  N2  UNL     1      24.245   4.144  50.890  1.00  0.00    -0.253 NA
HETATM    2  C4  UNL     1      24.826   3.054  51.262  1.00  0.00     0.153 C 
HETATM    3  N3  UNL     1      26.222   2.854  51.175  1.00  0.00    -0.219 NA
HETATM    4  C5  UNL     1      26.823   1.829  51.680  1.00  0.00     0.260 C 
HETATM    5  O1  UNL     1      26.121   0.838  52.354  1.00  0.00    -0.306 OA
HETATM    6  C6  UNL     1      24.742   0.955  52.486  1.00  0.00     0.085 C 
HETATM    7  C7  UNL     1      24.238   0.019  53.309  1.00  0.00     0.049 C 
HETATM    8  C8  UNL     1      22.830  -0.212  53.721  1.00  0.00    -0.000 A 
HETATM    9  C9  UNL     1      22.698  -1.277  54.494  1.00  0.00     0.179 A 
HETATM   10  O2  UNL     1      21.442  -1.661  54.987  1.00  0.00    -0.250 OA
HETATM   11  N4  UNL     1      20.373  -0.853  54.607  1.00  0.00    -0.272 N 
HETATM   12  C10 UNL     1      20.463   0.308  53.774  1.00  0.00     0.124 A 
HETATM   13  C11 UNL     1      21.674   0.619  53.340  1.00  0.00    -0.011 A 
HETATM   14  C12 UNL     1      21.607   1.843  52.491  1.00  0.00     0.156 C 
HETATM   15  N5  UNL     1      22.853   2.518  52.466  1.00  0.00    -0.402 N 
HETATM   16  C13 UNL     1      23.943   1.985  51.803  1.00  0.00     0.207 C 
HETATM   17  H7  UNL     1      19.425  -1.144  54.980  1.00  0.00     0.193 HD
HETATM   18  H11 UNL     1      22.948   3.362  53.040  1.00  0.00     0.154 HD
ENDROOT
BRANCH   1  19
HETATM   19  C3  UNL     1      24.928   5.295  50.341  1.00  0.00     0.272 C 
BRANCH  19  20
HETATM   20  N1  UNL     1      25.335   5.072  48.976  1.00  0.00    -0.370 N 
HETATM   21  H1  UNL     1      24.925   4.567  48.164  1.00  0.00     0.161 HD
BRANCH  20  22
HETATM   22  C2  UNL     1      26.581   5.659  48.614  1.00  0.00     0.065 A 
HETATM   23  C1  UNL     1      26.849   6.905  48.246  1.00  0.00     0.125 A 
HETATM   24  F1  UNL     1      26.059   7.997  48.097  1.00  0.00    -0.208 F 
HETATM   25  C16 UNL     1      28.303   7.064  47.961  1.00  0.00     0.123 A 
HETATM   26  C15 UNL     1      28.871   5.723  48.212  1.00  0.00     0.020 A 
HETATM   27  C14 UNL     1      27.855   4.942  48.585  1.00  0.00     0.052 A 
HETATM   28 CL1  UNL     1      30.568   5.343  48.024  1.00  0.00    -0.088 Cl
ENDBRANCH  20  22
ENDBRANCH  19  20
ENDBRANCH   1  19
TORSDOF 3
ENDMDL
MODEL 3
REMARK VINA RESULT:      -8.6      4.102      7.465
REMARK  3 active torsions:
REMARK  status: ('A' for Active; 'I' for Inactive)
REMARK    1  A    between atoms: C2_3  and  N1_4 
REMARK    2  A    between atoms: N1_4  and  C3_5 
REMARK    3  A    between atoms: C3_5  and  N2_6 
ROOT
HETATM    1  N2  UNL     1      23.714   1.254  52.925  1.00  0.00    -0.253 NA
HETATM    2  C4  UNL     1      23.231   0.220  53.526  1.00  0.00     0.153 C 
HETATM    3  N3  UNL     1      23.908  -0.455  54.565  1.00  0.00    -0.219 NA
HETATM    4  C5  UNL     1      23.368  -1.395  55.268  1.00  0.00     0.260 C 
HETATM    5  O1  UNL     1      22.062  -1.808  55.041  1.00  0.00    -0.306 OA
HETATM    6  C6  UNL     1      21.322  -1.196  54.036  1.00  0.00     0.085 C 
HETATM    7  C7  UNL     1      20.033  -1.579  54.060  1.00  0.00     0.049 C 
HETATM    8  C8  UNL     1      18.914  -1.172  53.174  1.00  0.00    -0.000 A 
HETATM    9  C9  UNL     1      17.790  -1.810  53.453  1.00  0.00     0.179 A 
HETATM   10  O2  UNL     1      16.617  -1.562  52.724  1.00  0.00    -0.250 OA
HETATM   11  N4  UNL     1      16.728  -0.614  51.709  1.00  0.00    -0.272 N 
HETATM   12  C10 UNL     1      17.919   0.103  51.368  1.00  0.00     0.124 A 
HETATM   13  C11 UNL     1      18.992  -0.175  52.091  1.00  0.00    -0.011 A 
HETATM   14  C12 UNL     1      20.145   0.646  51.620  1.00  0.00     0.156 C 
HETATM   15  N5  UNL     1      21.108   0.812  52.646  1.00  0.00    -0.402 N 
HETATM   16  C13 UNL     1      21.893  -0.244  53.069  1.00  0.00     0.207 C 
HETATM   17  H7  UNL     1      15.842  -0.428  51.160  1.00  0.00     0.193 HD
HETATM   18  H11 UNL     1      21.133   1.714  53.133  1.00  0.00     0.154 HD
ENDROOT
BRANCH   1  19
HETATM   19  C3  UNL     1      24.995   1.857  53.224  1.00  0.00     0.272 C 
BRANCH  19  20
HETATM   20  N1  UNL     1      25.993   1.501  52.246  1.00  0.00    -0.370 N 
HETATM   21  H1  UNL     1      26.063   1.581  51.211  1.00  0.00     0.161 HD
BRANCH  20  22
HETATM   22  C2  UNL     1      27.169   0.896  52.775  1.00  0.00     0.065 A 
HETATM   23  C1  UNL     1      28.193   1.456  53.404  1.00  0.00     0.125 A 
HETATM   24  F1  UNL     1      28.456   2.743  53.742  1.00  0.00    -0.208 F 
HETATM   25  C16 UNL     1      29.202   0.426  53.780  1.00  0.00     0.123 A 
HETATM   26  C15 UNL     1      28.629  -0.841  53.280  1.00  0.00     0.020 A 
HETATM   27  C14 UNL     1      27.462  -0.535  52.710  1.00  0.00     0.052 A 
HETATM   28 CL1  UNL     1      29.418  -2.393  53.457  1.00  0.00    -0.088 Cl
ENDBRANCH  20  22
ENDBRANCH  19  20
ENDBRANCH   1  19
TORSDOF 3
ENDMDL
MODEL 4
REMARK VINA RESULT:      -8.5      2.960      4.801
REMARK  3 active torsions:
REMARK  status: ('A' for Active; 'I' for Inactive)
REMARK    1  A    between atoms: C2_3  and  N1_4 
REMARK    2  A    between atoms: N1_4  and  C3_5 
REMARK    3  A    between atoms: C3_5  and  N2_6 
ROOT
HETATM    1  N2  UNL     1      23.950   3.759  50.156  1.00  0.00    -0.253 NA
HETATM    2  C4  UNL     1      24.635   2.817  50.710  1.00  0.00     0.153 C 
HETATM    3  N3  UNL     1      26.045   2.756  50.662  1.00  0.00    -0.219 NA
HETATM    4  C5  UNL     1      26.740   1.902  51.337  1.00  0.00     0.260 C 
HETATM    5  O1  UNL     1      26.133   0.972  52.170  1.00  0.00    -0.306 OA
HETATM    6  C6  UNL     1      24.746   0.961  52.276  1.00  0.00     0.085 C 
HETATM    7  C7  UNL     1      24.326   0.130  53.247  1.00  0.00     0.049 C 
HETATM    8  C8  UNL     1      22.943  -0.177  53.688  1.00  0.00    -0.000 A 
HETATM    9  C9  UNL     1      22.907  -1.102  54.632  1.00  0.00     0.179 A 
HETATM   10  O2  UNL     1      21.688  -1.529  55.181  1.00  0.00    -0.250 OA
HETATM   11  N4  UNL     1      20.548  -0.916  54.665  1.00  0.00    -0.272 N 
HETATM   12  C10 UNL     1      20.534   0.089  53.645  1.00  0.00     0.124 A 
HETATM   13  C11 UNL     1      21.714   0.449  53.168  1.00  0.00    -0.011 A 
HETATM   14  C12 UNL     1      21.536   1.496  52.121  1.00  0.00     0.156 C 
HETATM   15  N5  UNL     1      22.704   2.286  51.983  1.00  0.00    -0.402 N 
HETATM   16  C13 UNL     1      23.858   1.768  51.424  1.00  0.00     0.207 C 
HETATM   17  H7  UNL     1      19.629  -1.239  55.081  1.00  0.00     0.193 HD
HETATM   18  H11 UNL     1      22.698   3.221  52.405  1.00  0.00     0.154 HD
ENDROOT
BRANCH   1  19
HETATM   19  C3  UNL     1      24.519   4.867  49.418  1.00  0.00     0.272 C 
BRANCH  19  20
HETATM   20  N1  UNL     1      25.548   5.537  50.172  1.00  0.00    -0.370 N 
HETATM   21  H1  UNL     1      25.733   5.685  51.186  1.00  0.00     0.161 HD
BRANCH  20  22
HETATM   22  C2  UNL     1      26.567   6.154  49.391  1.00  0.00     0.065 A 
HETATM   23  C1  UNL     1      27.509   5.595  48.644  1.00  0.00     0.125 A 
HETATM   24  F1  UNL     1      27.811   4.299  48.385  1.00  0.00    -0.208 F 
HETATM   25  C16 UNL     1      28.356   6.640  48.004  1.00  0.00     0.123 A 
HETATM   26  C15 UNL     1      27.779   7.915  48.478  1.00  0.00     0.020 A 
HETATM   27  C14 UNL     1      26.754   7.599  49.271  1.00  0.00     0.052 A 
HETATM   28 CL1  UNL     1      28.404   9.485  48.022  1.00  0.00    -0.088 Cl
ENDBRANCH  20  22
ENDBRANCH  19  20
ENDBRANCH   1  19
TORSDOF 3
ENDMDL
MODEL 5
REMARK VINA RESULT:      -8.3      1.552      1.777
REMARK  3 active torsions:
REMARK  status: ('A' for Active; 'I' for Inactive)
REMARK    1  A    between atoms: C2_3  and  N1_4 
REMARK    2  A    between atoms: N1_4  and  C3_5 
REMARK    3  A    between atoms: C3_5  and  N2_6 
ROOT
HETATM    1  N2  UNL     1      24.376   4.031  52.738  1.00  0.00    -0.253 NA
HETATM    2  C4  UNL     1      24.081   2.779  52.825  1.00  0.00     0.153 C 
HETATM    3  N3  UNL     1      22.791   2.268  52.564  1.00  0.00    -0.219 NA
HETATM    4  C5  UNL     1      22.527   1.006  52.505  1.00  0.00     0.260 C 
HETATM    5  O1  UNL     1      23.516   0.051  52.699  1.00  0.00    -0.306 OA
HETATM    6  C6  UNL     1      24.817   0.466  52.963  1.00  0.00     0.085 C 
HETATM    7  C7  UNL     1      25.683  -0.564  52.949  1.00  0.00     0.049 C 
HETATM    8  C8  UNL     1      27.149  -0.562  53.179  1.00  0.00    -0.000 A 
HETATM    9  C9  UNL     1      27.666  -1.779  53.156  1.00  0.00     0.179 A 
HETATM   10  O2  UNL     1      29.039  -1.986  53.353  1.00  0.00    -0.250 OA
HETATM   11  N4  UNL     1      29.796  -0.837  53.570  1.00  0.00    -0.272 N 
HETATM   12  C10 UNL     1      29.286   0.501  53.604  1.00  0.00     0.124 A 
HETATM   13  C11 UNL     1      27.983   0.631  53.412  1.00  0.00    -0.011 A 
HETATM   14  C12 UNL     1      27.605   2.072  53.476  1.00  0.00     0.156 C 
HETATM   15  N5  UNL     1      26.408   2.320  52.758  1.00  0.00    -0.402 N 
HETATM   16  C13 UNL     1      25.188   1.866  53.223  1.00  0.00     0.207 C 
HETATM   17  H7  UNL     1      30.833  -0.995  53.718  1.00  0.00     0.193 HD
HETATM   18  H11 UNL     1      26.490   2.755  51.834  1.00  0.00     0.154 HD
ENDROOT
BRANCH   1  19
HETATM   19  C3  UNL     1      23.442   5.073  52.367  1.00  0.00     0.272 C 
BRANCH  19  20
HETATM   20  N1  UNL     1      24.072   6.370  52.345  1.00  0.00    -0.370 N 
HETATM   21  H1  UNL     1      24.362   7.054  53.073  1.00  0.00     0.161 HD
BRANCH  20  22
HETATM   22  C2  UNL     1      24.384   6.868  51.048  1.00  0.00     0.065 A 
HETATM   23  C1  UNL     1      25.194   6.366  50.126  1.00  0.00     0.125 A 
HETATM   24  F1  UNL     1      25.969   5.253  50.109  1.00  0.00    -0.208 F 
HETATM   25  C16 UNL     1      25.208   7.233  48.915  1.00  0.00     0.123 A 
HETATM   26  C15 UNL     1      24.282   8.336  49.247  1.00  0.00     0.020 A 
HETATM   27  C14 UNL     1      23.827   8.094  50.478  1.00  0.00     0.052 A 
HETATM   28 CL1  UNL     1      23.924   9.657  48.157  1.00  0.00    -0.088 Cl
ENDBRANCH  20  22
ENDBRANCH  19  20
ENDBRANCH   1  19
TORSDOF 3
ENDMDL
MODEL 6
REMARK VINA RESULT:      -8.2      5.497      8.244
REMARK  3 active torsions:
REMARK  status: ('A' for Active; 'I' for Inactive)
REMARK    1  A    between atoms: C2_3  and  N1_4 
REMARK    2  A    between atoms: N1_4  and  C3_5 
REMARK    3  A    between atoms: C3_5  and  N2_6 
ROOT
HETATM    1  N2  UNL     1      27.252   4.003  49.399  1.00  0.00    -0.253 NA
HETATM    2  C4  UNL     1      26.876   5.108  48.851  1.00  0.00     0.153 C 
HETATM    3  N3  UNL     1      25.538   5.562  48.868  1.00  0.00    -0.219 NA
HETATM    4  C5  UNL     1      25.183   6.733  48.454  1.00  0.00     0.260 C 
HETATM    5  O1  UNL     1      26.111   7.636  47.955  1.00  0.00    -0.306 OA
HETATM    6  C6  UNL     1      27.452   7.271  47.902  1.00  0.00     0.085 C 
HETATM    7  C7  UNL     1      28.239   8.308  47.566  1.00  0.00     0.049 C 
HETATM    8  C8  UNL     1      29.713   8.353  47.398  1.00  0.00    -0.000 A 
HETATM    9  C9  UNL     1      30.140   9.537  46.992  1.00  0.00     0.179 A 
HETATM   10  O2  UNL     1      31.505   9.780  46.775  1.00  0.00    -0.250 OA
HETATM   11  N4  UNL     1      32.353   8.701  47.017  1.00  0.00    -0.272 N 
HETATM   12  C10 UNL     1      31.942   7.402  47.457  1.00  0.00     0.124 A 
HETATM   13  C11 UNL     1      30.643   7.236  47.643  1.00  0.00    -0.011 A 
HETATM   14  C12 UNL     1      30.373   5.841  48.098  1.00  0.00     0.156 C 
HETATM   15  N5  UNL     1      29.155   5.765  48.818  1.00  0.00    -0.402 N 
HETATM   16  C13 UNL     1      27.937   5.910  48.182  1.00  0.00     0.207 C 
HETATM   17  H7  UNL     1      33.383   8.886  46.853  1.00  0.00     0.193 HD
HETATM   18  H11 UNL     1      29.211   5.701  49.840  1.00  0.00     0.154 HD
ENDROOT
BRANCH   1  19
HETATM   19  C3  UNL     1      26.374   3.087  50.095  1.00  0.00     0.272 C 
BRANCH  19  20
HETATM   20  N1  UNL     1      26.519   3.193  51.525  1.00  0.00    -0.370 N 
HETATM   21  H1  UNL     1      26.339   3.943  52.224  1.00  0.00     0.161 HD
BRANCH  20  22
HETATM   22  C2  UNL     1      27.025   2.028  52.170  1.00  0.00     0.065 A 
HETATM   23  C1  UNL     1      27.950   1.924  53.114  1.00  0.00     0.125 A 
HETATM   24  F1  UNL     1      28.698   2.854  53.757  1.00  0.00    -0.208 F 
HETATM   25  C16 UNL     1      28.154   0.497  53.489  1.00  0.00     0.123 A 
HETATM   26  C15 UNL     1      27.210  -0.244  52.627  1.00  0.00     0.020 A 
HETATM   27  C14 UNL     1      26.579   0.666  51.883  1.00  0.00     0.052 A 
HETATM   28 CL1  UNL     1      27.038  -1.985  52.658  1.00  0.00    -0.088 Cl
ENDBRANCH  20  22
ENDBRANCH  19  20
ENDBRANCH   1  19
TORSDOF 3
ENDMDL
MODEL 7
REMARK VINA RESULT:      -8.2      4.808      6.708
REMARK  3 active torsions:
REMARK  status: ('A' for Active; 'I' for Inactive)
REMARK    1  A    between atoms: C2_3  and  N1_4 
REMARK    2  A    between atoms: N1_4  and  C3_5 
REMARK    3  A    between atoms: C3_5  and  N2_6 
ROOT
HETATM    1  N2  UNL     1      22.036   0.466  52.393  1.00  0.00    -0.253 NA
HETATM    2  C4  UNL     1      22.633  -0.046  53.415  1.00  0.00     0.153 C 
HETATM    3  N3  UNL     1      22.047  -1.035  54.236  1.00  0.00    -0.219 NA
HETATM    4  C5  UNL     1      22.692  -1.655  55.168  1.00  0.00     0.260 C 
HETATM    5  O1  UNL     1      24.028  -1.383  55.426  1.00  0.00    -0.306 OA
HETATM    6  C6  UNL     1      24.684  -0.422  54.664  1.00  0.00     0.085 C 
HETATM    7  C7  UNL     1      26.006  -0.403  54.914  1.00  0.00     0.049 C 
HETATM    8  C8  UNL     1      27.061   0.459  54.326  1.00  0.00    -0.000 A 
HETATM    9  C9  UNL     1      28.249   0.243  54.865  1.00  0.00     0.179 A 
HETATM   10  O2  UNL     1      29.378   0.961  54.441  1.00  0.00    -0.250 OA
HETATM   11  N4  UNL     1      29.153   1.896  53.433  1.00  0.00    -0.272 N 
HETATM   12  C10 UNL     1      27.889   2.167  52.818  1.00  0.00     0.124 A 
HETATM   13  C11 UNL     1      26.863   1.458  53.260  1.00  0.00    -0.011 A 
HETATM   14  C12 UNL     1      25.624   1.850  52.527  1.00  0.00     0.156 C 
HETATM   15  N5  UNL     1      24.668   0.805  52.542  1.00  0.00    -0.402 N 
HETATM   16  C13 UNL     1      24.002   0.460  53.703  1.00  0.00     0.207 C 
HETATM   17  H7  UNL     1      30.006   2.437  53.115  1.00  0.00     0.193 HD
HETATM   18  H11 UNL     1      24.561   0.247  51.689  1.00  0.00     0.154 HD
ENDROOT
BRANCH   1  19
HETATM   19  C3  UNL     1      20.706   0.107  51.949  1.00  0.00     0.272 C 
BRANCH  19  20
HETATM   20  N1  UNL     1      19.739   0.232  53.011  1.00  0.00    -0.370 N 
HETATM   21  H1  UNL     1      19.651   0.839  53.851  1.00  0.00     0.161 HD
BRANCH  20  22
HETATM   22  C2  UNL     1      18.634  -0.663  52.931  1.00  0.00     0.065 A 
HETATM   23  C1  UNL     1      17.482  -0.523  52.289  1.00  0.00     0.125 A 
HETATM   24  F1  UNL     1      16.987   0.481  51.524  1.00  0.00    -0.208 F 
HETATM   25  C16 UNL     1      16.624  -1.724  52.489  1.00  0.00     0.123 A 
HETATM   26  C15 UNL     1      17.435  -2.611  53.349  1.00  0.00     0.020 A 
HETATM   27  C14 UNL     1      18.582  -1.971  53.583  1.00  0.00     0.052 A 
HETATM   28 CL1  UNL     1      16.893  -4.182  53.898  1.00  0.00    -0.088 Cl
ENDBRANCH  20  22
ENDBRANCH  19  20
ENDBRANCH   1  19
TORSDOF 3
ENDMDL
MODEL 8
REMARK VINA RESULT:      -8.2      2.717      3.691
REMARK  3 active torsions:
REMARK  status: ('A' for Active; 'I' for Inactive)
REMARK    1  A    between atoms: C2_3  and  N1_4 
REMARK    2  A    between atoms: N1_4  and  C3_5 
REMARK    3  A    between atoms: C3_5  and  N2_6 
ROOT
HETATM    1  N2  UNL     1      27.148   3.993  49.830  1.00  0.00    -0.253 NA
HETATM    2  C4  UNL     1      25.945   3.580  50.045  1.00  0.00     0.153 C 
HETATM    3  N3  UNL     1      24.875   3.822  49.155  1.00  0.00    -0.219 NA
HETATM    4  C5  UNL     1      23.707   3.287  49.291  1.00  0.00     0.260 C 
HETATM    5  O1  UNL     1      23.425   2.424  50.341  1.00  0.00    -0.306 OA
HETATM    6  C6  UNL     1      24.422   2.130  51.264  1.00  0.00     0.085 C 
HETATM    7  C7  UNL     1      24.049   1.150  52.108  1.00  0.00     0.049 C 
HETATM    8  C8  UNL     1      24.803   0.540  53.231  1.00  0.00    -0.000 A 
HETATM    9  C9  UNL     1      24.090  -0.357  53.891  1.00  0.00     0.179 A 
HETATM   10  O2  UNL     1      24.629  -1.046  54.988  1.00  0.00    -0.250 OA
HETATM   11  N4  UNL     1      25.942  -0.718  55.318  1.00  0.00    -0.272 N 
HETATM   12  C10 UNL     1      26.756   0.243  54.637  1.00  0.00     0.124 A 
HETATM   13  C11 UNL     1      26.191   0.860  53.612  1.00  0.00    -0.011 A 
HETATM   14  C12 UNL     1      27.156   1.824  53.009  1.00  0.00     0.156 C 
HETATM   15  N5  UNL     1      26.842   2.083  51.652  1.00  0.00    -0.402 N 
HETATM   16  C13 UNL     1      25.724   2.816  51.303  1.00  0.00     0.207 C 
HETATM   17  H7  UNL     1      26.347  -1.239  56.146  1.00  0.00     0.193 HD
HETATM   18  H11 UNL     1      27.414   1.622  50.936  1.00  0.00     0.154 HD
ENDROOT
BRANCH   1  19
HETATM   19  C3  UNL     1      27.564   4.750  48.669  1.00  0.00     0.272 C 
BRANCH  19  20
HETATM   20  N1  UNL     1      27.851   6.122  49.002  1.00  0.00    -0.370 N 
HETATM   21  H1  UNL     1      28.682   6.625  49.375  1.00  0.00     0.161 HD
BRANCH  20  22
HETATM   22  C2  UNL     1      26.778   7.034  48.787  1.00  0.00     0.065 A 
HETATM   23  C1  UNL     1      25.814   7.410  49.617  1.00  0.00     0.125 A 
HETATM   24  F1  UNL     1      25.535   7.064  50.898  1.00  0.00    -0.208 F 
HETATM   25  C16 UNL     1      24.909   8.390  48.956  1.00  0.00     0.123 A 
HETATM   26  C15 UNL     1      25.474   8.550  47.600  1.00  0.00     0.020 A 
HETATM   27  C14 UNL     1      26.546   7.758  47.538  1.00  0.00     0.052 A 
HETATM   28 CL1  UNL     1      24.786   9.604  46.385  1.00  0.00    -0.088 Cl
ENDBRANCH  20  22
ENDBRANCH  19  20
ENDBRANCH   1  19
TORSDOF 3
ENDMDL
MODEL 9
REMARK VINA RESULT:      -8.2      3.440      4.348
REMARK  3 active torsions:
REMARK  status: ('A' for Active; 'I' for Inactive)
REMARK    1  A    between atoms: C2_3  and  N1_4 
REMARK    2  A    between atoms: N1_4  and  C3_5 
REMARK    3  A    between atoms: C3_5  and  N2_6 
ROOT
HETATM    1  N2  UNL     1      27.089   4.004  49.843  1.00  0.00    -0.253 NA
HETATM    2  C4  UNL     1      25.914   3.526  50.075  1.00  0.00     0.153 C 
HETATM    3  N3  UNL     1      24.827   3.681  49.187  1.00  0.00    -0.219 NA
HETATM    4  C5  UNL     1      23.694   3.082  49.343  1.00  0.00     0.260 C 
HETATM    5  O1  UNL     1      23.468   2.230  50.415  1.00  0.00    -0.306 OA
HETATM    6  C6  UNL     1      24.486   2.019  51.340  1.00  0.00     0.085 C 
HETATM    7  C7  UNL     1      24.176   1.040  52.209  1.00  0.00     0.049 C 
HETATM    8  C8  UNL     1      24.970   0.504  53.342  1.00  0.00    -0.000 A 
HETATM    9  C9  UNL     1      24.315  -0.417  54.029  1.00  0.00     0.179 A 
HETATM   10  O2  UNL     1      24.899  -1.045  55.139  1.00  0.00    -0.250 OA
HETATM   11  N4  UNL     1      26.191  -0.632  55.453  1.00  0.00    -0.272 N 
HETATM   12  C10 UNL     1      26.943   0.358  54.743  1.00  0.00     0.124 A 
HETATM   13  C11 UNL     1      26.339   0.914  53.706  1.00  0.00    -0.011 A 
HETATM   14  C12 UNL     1      27.242   1.919  53.074  1.00  0.00     0.156 C 
HETATM   15  N5  UNL     1      26.907   2.124  51.713  1.00  0.00    -0.402 N 
HETATM   16  C13 UNL     1      25.745   2.781  51.353  1.00  0.00     0.207 C 
HETATM   17  H7  UNL     1      26.631  -1.108  56.291  1.00  0.00     0.193 HD
HETATM   18  H11 UNL     1      27.501   1.681  51.005  1.00  0.00     0.154 HD
ENDROOT
BRANCH   1  19
HETATM   19  C3  UNL     1      27.454   4.754  48.660  1.00  0.00     0.272 C 
BRANCH  19  20
HETATM   20  N1  UNL     1      27.917   6.078  48.992  1.00  0.00    -0.370 N 
HETATM   21  H1  UNL     1      27.641   6.795  49.694  1.00  0.00     0.161 HD
BRANCH  20  22
HETATM   22  C2  UNL     1      29.000   6.556  48.199  1.00  0.00     0.065 A 
HETATM   23  C1  UNL     1      28.975   7.301  47.102  1.00  0.00     0.125 A 
HETATM   24  F1  UNL     1      27.951   7.836  46.392  1.00  0.00    -0.208 F 
HETATM   25  C16 UNL     1      30.359   7.559  46.614  1.00  0.00     0.123 A 
HETATM   26  C15 UNL     1      31.223   6.855  47.585  1.00  0.00     0.020 A 
HETATM   27  C14 UNL     1      30.410   6.292  48.481  1.00  0.00     0.052 A 
HETATM   28 CL1  UNL     1      32.969   6.831  47.483  1.00  0.00    -0.088 Cl
ENDBRANCH  20  22
ENDBRANCH  19  20
ENDBRANCH   1  19
TORSDOF 3
ENDMDL
