MODEL 1
REMARK VINA RESULT:      -8.5      0.000      0.000
REMARK  8 active torsions:
REMARK  status: ('A' for Active; 'I' for Inactive)
REMARK    1  A    between atoms: O1_1  and  C1_2 
REMARK    2  A    between atoms: C4_5  and  C5_6 
REMARK    3  A    between atoms: C5_6  and  N1_7 
REMARK    4  A    between atoms: N1_7  and  C6_8 
REMARK    5  A    between atoms: N1_7  and  C13_17 
REMARK    6  A    between atoms: C6_8  and  C7_9 
REMARK    7  A    between atoms: C12_15  and  O2_16 
REMARK    8  A    between atoms: C13_17  and  C14_19 
ROOT
HETATM    1  N1  UNL     1      25.856   2.279  51.855  1.00  0.00    -0.363 N 
ENDROOT
BRANCH   1   2
HETATM    2  C5  UNL     1      27.064   2.054  52.624  1.00  0.00     0.162 C 
BRANCH   2   3
HETATM    3  C4  UNL     1      27.395   0.599  52.737  1.00  0.00    -0.040 A 
HETATM    4  C3  UNL     1      26.632  -0.410  52.189  1.00  0.00     0.011 A 
HETATM    5  C2  UNL     1      27.031  -1.718  52.358  1.00  0.00     0.037 A 
HETATM    6  C1  UNL     1      28.160  -2.029  53.056  1.00  0.00     0.065 A 
HETATM    7  C21 UNL     1      28.944  -1.031  53.617  1.00  0.00     0.037 A 
HETATM    8  C20 UNL     1      28.543   0.292  53.447  1.00  0.00     0.011 A 
BRANCH   6   9
HETATM    9  O1  UNL     1      28.507  -3.374  53.189  1.00  0.00    -0.361 OA
HETATM   10  H1  UNL     1      28.959  -3.653  54.056  1.00  0.00     0.217 HD
ENDBRANCH   6   9
ENDBRANCH   2   3
ENDBRANCH   1   2
BRANCH   1  11
HETATM   11  C6  UNL     1      26.049   2.277  50.440  1.00  0.00     0.165 C 
BRANCH  11  12
HETATM   12  C7  UNL     1      25.590   3.504  49.759  1.00  0.00    -0.006 A 
HETATM   13  C8  UNL     1      24.221   3.580  49.485  1.00  0.00     0.012 A 
HETATM   14  C9  UNL     1      23.748   4.711  48.844  1.00  0.00     0.002 A 
HETATM   15  C10 UNL     1      24.647   5.710  48.506  1.00  0.00     0.022 A 
HETATM   16  C11 UNL     1      25.990   5.626  48.779  1.00  0.00     0.044 A 
HETATM   17 BR1  UNL     1      27.102   7.085  48.251  1.00  0.00    -0.048 Br
HETATM   18  C12 UNL     1      26.491   4.494  49.426  1.00  0.00     0.090 A 
BRANCH  18  19
HETATM   19  O2  UNL     1      27.827   4.422  49.693  1.00  0.00    -0.359 OA
HETATM   20  H11 UNL     1      28.140   3.981  50.547  1.00  0.00     0.217 HD
ENDBRANCH  18  19
ENDBRANCH  11  12
ENDBRANCH   1  11
BRANCH   1  21
HETATM   21  C13 UNL     1      24.666   2.472  52.608  1.00  0.00     0.109 C 
HETATM   22  S1  UNL     1      24.148   3.814  53.376  1.00  0.00    -0.060 SA
BRANCH  21  23
HETATM   23  C14 UNL     1      23.770   1.329  52.725  1.00  0.00     0.002 A 
HETATM   24  C15 UNL     1      22.772   1.215  51.784  1.00  0.00     0.014 A 
HETATM   25  C16 UNL     1      21.906   0.144  51.866  1.00  0.00     0.001 A 
HETATM   26  C17 UNL     1      21.999  -0.804  52.837  1.00  0.00     0.000 A 
HETATM   27  C18 UNL     1      23.005  -0.675  53.774  1.00  0.00     0.001 A 
HETATM   28  C19 UNL     1      23.905   0.395  53.730  1.00  0.00     0.014 A 
ENDBRANCH  21  23
ENDBRANCH   1  21
TORSDOF 8
ENDMDL
MODEL 2
REMARK VINA RESULT:      -8.3      2.767      4.755
REMARK  8 active torsions:
REMARK  status: ('A' for Active; 'I' for Inactive)
REMARK    1  A    between atoms: O1_1  and  C1_2 
REMARK    2  A    between atoms: C4_5  and  C5_6 
REMARK    3  A    between atoms: C5_6  and  N1_7 
REMARK    4  A    between atoms: N1_7  and  C6_8 
REMARK    5  A    between atoms: N1_7  and  C13_17 
REMARK    6  A    between atoms: C6_8  and  C7_9 
REMARK    7  A    between atoms: C12_15  and  O2_16 
REMARK    8  A    between atoms: C13_17  and  C14_19 
ROOT
HETATM    1  N1  UNL     1      24.123   2.542  51.782  1.00  0.00    -0.363 N 
ENDROOT
BRANCH   1   2
HETATM    2  C5  UNL     1      23.240   1.566  51.174  1.00  0.00     0.162 C 
BRANCH   2   3
HETATM    3  C4  UNL     1      22.612   0.666  52.190  1.00  0.00    -0.040 A 
HETATM    4  C3  UNL     1      23.325  -0.071  53.113  1.00  0.00     0.011 A 
HETATM    5  C2  UNL     1      22.641  -0.871  54.003  1.00  0.00     0.037 A 
HETATM    6  C1  UNL     1      21.280  -0.947  53.985  1.00  0.00     0.065 A 
HETATM    7  C21 UNL     1      20.542  -0.215  53.065  1.00  0.00     0.037 A 
HETATM    8  C20 UNL     1      21.230   0.595  52.165  1.00  0.00     0.011 A 
BRANCH   6   9
HETATM    9  O1  UNL     1      20.651  -1.776  54.914  1.00  0.00    -0.361 OA
HETATM   10  H1  UNL     1      20.250  -2.643  54.565  1.00  0.00     0.217 HD
ENDBRANCH   6   9
ENDBRANCH   2   3
ENDBRANCH   1   2
BRANCH   1  11
HETATM   11  C6  UNL     1      23.457   3.527  52.573  1.00  0.00     0.165 C 
BRANCH  11  12
HETATM   12  C7  UNL     1      22.706   4.531  51.793  1.00  0.00    -0.006 A 
HETATM   13  C8  UNL     1      21.354   4.250  51.570  1.00  0.00     0.012 A 
HETATM   14  C9  UNL     1      20.613   5.162  50.840  1.00  0.00     0.002 A 
HETATM   15  C10 UNL     1      21.240   6.304  50.367  1.00  0.00     0.022 A 
HETATM   16  C11 UNL     1      22.568   6.571  50.592  1.00  0.00     0.044 A 
HETATM   17 BR1  UNL     1      23.287   8.187  49.876  1.00  0.00    -0.048 Br
HETATM   18  C12 UNL     1      23.337   5.665  51.327  1.00  0.00     0.090 A 
BRANCH  18  19
HETATM   19  O2  UNL     1      24.655   5.941  51.544  1.00  0.00    -0.359 OA
HETATM   20  H11 UNL     1      25.020   6.849  51.290  1.00  0.00     0.217 HD
ENDBRANCH  18  19
ENDBRANCH  11  12
ENDBRANCH   1  11
BRANCH   1  21
HETATM   21  C13 UNL     1      25.509   2.385  51.507  1.00  0.00     0.109 C 
HETATM   22  S1  UNL     1      26.407   3.095  50.346  1.00  0.00    -0.060 SA
BRANCH  21  23
HETATM   23  C14 UNL     1      26.249   1.470  52.365  1.00  0.00     0.002 A 
HETATM   24  C15 UNL     1      26.648   0.274  51.812  1.00  0.00     0.014 A 
HETATM   25  C16 UNL     1      27.351  -0.617  52.597  1.00  0.00     0.001 A 
HETATM   26  C17 UNL     1      27.667  -0.361  53.895  1.00  0.00     0.000 A 
HETATM   27  C18 UNL     1      27.259   0.843  54.435  1.00  0.00     0.001 A 
HETATM   28  C19 UNL     1      26.544   1.775  53.676  1.00  0.00     0.014 A 
ENDBRANCH  21  23
ENDBRANCH   1  21
TORSDOF 8
ENDMDL
MODEL 3
REMARK VINA RESULT:      -8.3      3.055      5.650
REMARK  8 active torsions:
REMARK  status: ('A' for Active; 'I' for Inactive)
REMARK    1  A    between atoms: O1_1  and  C1_2 
REMARK    2  A    between atoms: C4_5  and  C5_6 
REMARK    3  A    between atoms: C5_6  and  N1_7 
REMARK    4  A    between atoms: N1_7  and  C6_8 
REMARK    5  A    between atoms: N1_7  and  C13_17 
REMARK    6  A    between atoms: C6_8  and  C7_9 
REMARK    7  A    between atoms: C12_15  and  O2_16 
REMARK    8  A    between atoms: C13_17  and  C14_19 
ROOT
HETATM    1  N1  UNL     1      24.389   2.309  52.503  1.00  0.00    -0.363 N 
ENDROOT
BRANCH   1   2
HETATM    2  C5  UNL     1      25.088   2.507  53.757  1.00  0.00     0.162 C 
BRANCH   2   3
HETATM    3  C4  UNL     1      26.389   1.771  53.798  1.00  0.00    -0.040 A 
HETATM    4  C3  UNL     1      27.500   2.127  53.062  1.00  0.00     0.011 A 
HETATM    5  C2  UNL     1      28.648   1.374  53.176  1.00  0.00     0.037 A 
HETATM    6  C1  UNL     1      28.704   0.288  53.999  1.00  0.00     0.065 A 
HETATM    7  C21 UNL     1      27.599  -0.089  54.749  1.00  0.00     0.037 A 
HETATM    8  C20 UNL     1      26.437   0.671  54.636  1.00  0.00     0.011 A 
BRANCH   6   9
HETATM    9  O1  UNL     1      29.898  -0.431  54.068  1.00  0.00    -0.361 OA
HETATM   10  H1  UNL     1      30.229  -0.692  54.993  1.00  0.00     0.217 HD
ENDBRANCH   6   9
ENDBRANCH   2   3
ENDBRANCH   1   2
BRANCH   1  11
HETATM   11  C6  UNL     1      24.162   0.940  52.164  1.00  0.00     0.165 C 
BRANCH  11  12
HETATM   12  C7  UNL     1      22.927   0.366  52.735  1.00  0.00    -0.006 A 
HETATM   13  C8  UNL     1      23.070  -0.311  53.951  1.00  0.00     0.012 A 
HETATM   14  C9  UNL     1      21.939  -0.868  54.520  1.00  0.00     0.002 A 
HETATM   15  C10 UNL     1      20.726  -0.730  53.865  1.00  0.00     0.022 A 
HETATM   16  C11 UNL     1      20.596  -0.064  52.671  1.00  0.00     0.044 A 
HETATM   17 BR1  UNL     1      18.858   0.041  51.891  1.00  0.00    -0.048 Br
HETATM   18  C12 UNL     1      21.724   0.507  52.077  1.00  0.00     0.090 A 
BRANCH  18  19
HETATM   19  O2  UNL     1      21.583   1.167  50.891  1.00  0.00    -0.359 OA
HETATM   20  H11 UNL     1      22.149   0.892  50.100  1.00  0.00     0.217 HD
ENDBRANCH  18  19
ENDBRANCH  11  12
ENDBRANCH   1  11
BRANCH   1  21
HETATM   21  C13 UNL     1      24.035   3.489  51.794  1.00  0.00     0.109 C 
HETATM   22  S1  UNL     1      22.691   4.401  51.934  1.00  0.00    -0.060 SA
BRANCH  21  23
HETATM   23  C14 UNL     1      24.987   3.969  50.800  1.00  0.00     0.002 A 
HETATM   24  C15 UNL     1      24.880   5.285  50.412  1.00  0.00     0.014 A 
HETATM   25  C16 UNL     1      25.765   5.772  49.472  1.00  0.00     0.001 A 
HETATM   26  C17 UNL     1      26.739   5.004  48.915  1.00  0.00     0.000 A 
HETATM   27  C18 UNL     1      26.833   3.685  49.314  1.00  0.00     0.001 A 
HETATM   28  C19 UNL     1      25.957   3.150  50.263  1.00  0.00     0.014 A 
ENDBRANCH  21  23
ENDBRANCH   1  21
TORSDOF 8
ENDMDL
MODEL 4
REMARK VINA RESULT:      -8.2      2.465      3.052
REMARK  8 active torsions:
REMARK  status: ('A' for Active; 'I' for Inactive)
REMARK    1  A    between atoms: O1_1  and  C1_2 
REMARK    2  A    between atoms: C4_5  and  C5_6 
REMARK    3  A    between atoms: C5_6  and  N1_7 
REMARK    4  A    between atoms: N1_7  and  C6_8 
REMARK    5  A    between atoms: N1_7  and  C13_17 
REMARK    6  A    between atoms: C6_8  and  C7_9 
REMARK    7  A    between atoms: C12_15  and  O2_16 
REMARK    8  A    between atoms: C13_17  and  C14_19 
ROOT
HETATM    1  N1  UNL     1      23.531   2.767  51.763  1.00  0.00    -0.363 N 
ENDROOT
BRANCH   1   2
HETATM    2  C5  UNL     1      24.898   2.600  51.309  1.00  0.00     0.162 C 
BRANCH   2   3
HETATM    3  C4  UNL     1      25.714   1.792  52.268  1.00  0.00    -0.040 A 
HETATM    4  C3  UNL     1      25.836   2.082  53.610  1.00  0.00     0.011 A 
HETATM    5  C2  UNL     1      26.618   1.269  54.402  1.00  0.00     0.037 A 
HETATM    6  C1  UNL     1      27.270   0.190  53.883  1.00  0.00     0.065 A 
HETATM    7  C21 UNL     1      27.161  -0.122  52.534  1.00  0.00     0.037 A 
HETATM    8  C20 UNL     1      26.371   0.698  51.732  1.00  0.00     0.011 A 
BRANCH   6   9
HETATM    9  O1  UNL     1      28.045  -0.592  54.740  1.00  0.00    -0.361 OA
HETATM   10  H1  UNL     1      27.556  -1.275  55.314  1.00  0.00     0.217 HD
ENDBRANCH   6   9
ENDBRANCH   2   3
ENDBRANCH   1   2
BRANCH   1  11
HETATM   11  C6  UNL     1      23.280   4.004  52.432  1.00  0.00     0.165 C 
BRANCH  11  12
HETATM   12  C7  UNL     1      22.712   5.060  51.571  1.00  0.00    -0.006 A 
HETATM   13  C8  UNL     1      21.341   4.968  51.308  1.00  0.00     0.012 A 
HETATM   14  C9  UNL     1      20.767   5.934  50.502  1.00  0.00     0.002 A 
HETATM   15  C10 UNL     1      21.572   6.942  49.995  1.00  0.00     0.022 A 
HETATM   16  C11 UNL     1      22.917   7.024  50.258  1.00  0.00     0.044 A 
HETATM   17 BR1  UNL     1      23.891   8.473  49.487  1.00  0.00    -0.048 Br
HETATM   18  C12 UNL     1      23.519   6.060  51.070  1.00  0.00     0.090 A 
BRANCH  18  19
HETATM   19  O2  UNL     1      24.856   6.152  51.325  1.00  0.00    -0.359 OA
HETATM   20  H11 UNL     1      25.516   5.789  50.651  1.00  0.00     0.217 HD
ENDBRANCH  18  19
ENDBRANCH  11  12
ENDBRANCH   1  11
BRANCH   1  21
HETATM   21  C13 UNL     1      22.646   1.690  51.485  1.00  0.00     0.109 C 
HETATM   22  S1  UNL     1      21.976   1.260  50.063  1.00  0.00    -0.060 SA
BRANCH  21  23
HETATM   23  C14 UNL     1      22.271   0.842  52.608  1.00  0.00     0.002 A 
HETATM   24  C15 UNL     1      21.086   1.132  53.246  1.00  0.00     0.014 A 
HETATM   25  C16 UNL     1      20.701   0.348  54.315  1.00  0.00     0.001 A 
HETATM   26  C17 UNL     1      21.444  -0.700  54.762  1.00  0.00     0.000 A 
HETATM   27  C18 UNL     1      22.630  -0.978  54.112  1.00  0.00     0.001 A 
HETATM   28  C19 UNL     1      23.059  -0.209  53.025  1.00  0.00     0.014 A 
ENDBRANCH  21  23
ENDBRANCH   1  21
TORSDOF 8
ENDMDL
MODEL 5
REMARK VINA RESULT:      -8.1      2.922      5.474
REMARK  8 active torsions:
REMARK  status: ('A' for Active; 'I' for Inactive)
REMARK    1  A    between atoms: O1_1  and  C1_2 
REMARK    2  A    between atoms: C4_5  and  C5_6 
REMARK    3  A    between atoms: C5_6  and  N1_7 
REMARK    4  A    between atoms: N1_7  and  C6_8 
REMARK    5  A    between atoms: N1_7  and  C13_17 
REMARK    6  A    between atoms: C6_8  and  C7_9 
REMARK    7  A    between atoms: C12_15  and  O2_16 
REMARK    8  A    between atoms: C13_17  and  C14_19 
ROOT
HETATM    1  N1  UNL     1      24.908   0.640  53.505  1.00  0.00    -0.363 N 
ENDROOT
BRANCH   1   2
HETATM    2  C5  UNL     1      24.177  -0.189  52.566  1.00  0.00     0.162 C 
BRANCH   2   3
HETATM    3  C4  UNL     1      22.751  -0.379  52.977  1.00  0.00    -0.040 A 
HETATM    4  C3  UNL     1      22.356  -1.122  54.069  1.00  0.00     0.011 A 
HETATM    5  C2  UNL     1      21.012  -1.232  54.353  1.00  0.00     0.037 A 
HETATM    6  C1  UNL     1      20.072  -0.623  53.576  1.00  0.00     0.065 A 
HETATM    7  C21 UNL     1      20.446   0.129  52.471  1.00  0.00     0.037 A 
HETATM    8  C20 UNL     1      21.804   0.242  52.182  1.00  0.00     0.011 A 
BRANCH   6   9
HETATM    9  O1  UNL     1      18.728  -0.775  53.920  1.00  0.00    -0.361 OA
HETATM   10  H1  UNL     1      18.053  -0.208  53.413  1.00  0.00     0.217 HD
ENDBRANCH   6   9
ENDBRANCH   2   3
ENDBRANCH   1   2
BRANCH   1  11
HETATM   11  C6  UNL     1      24.678   2.042  53.356  1.00  0.00     0.165 C 
BRANCH  11  12
HETATM   12  C7  UNL     1      24.984   2.572  52.013  1.00  0.00    -0.006 A 
HETATM   13  C8  UNL     1      26.275   2.323  51.533  1.00  0.00     0.012 A 
HETATM   14  C9  UNL     1      26.607   2.805  50.280  1.00  0.00     0.002 A 
HETATM   15  C10 UNL     1      25.652   3.508  49.563  1.00  0.00     0.022 A 
HETATM   16  C11 UNL     1      24.388   3.748  50.042  1.00  0.00     0.044 A 
HETATM   17 BR1  UNL     1      23.185   4.732  48.934  1.00  0.00    -0.048 Br
HETATM   18  C12 UNL     1      24.029   3.271  51.305  1.00  0.00     0.090 A 
BRANCH  18  19
HETATM   19  O2  UNL     1      22.770   3.515  51.770  1.00  0.00    -0.359 OA
HETATM   20  H11 UNL     1      22.073   3.891  51.142  1.00  0.00     0.217 HD
ENDBRANCH  18  19
ENDBRANCH  11  12
ENDBRANCH   1  11
BRANCH   1  21
HETATM   21  C13 UNL     1      25.742  -0.050  54.426  1.00  0.00     0.109 C 
HETATM   22  S1  UNL     1      25.330  -0.799  55.815  1.00  0.00    -0.060 SA
BRANCH  21  23
HETATM   23  C14 UNL     1      27.163  -0.107  54.110  1.00  0.00     0.002 A 
HETATM   24  C15 UNL     1      27.611  -1.219  53.434  1.00  0.00     0.014 A 
HETATM   25  C16 UNL     1      28.952  -1.306  53.119  1.00  0.00     0.001 A 
HETATM   26  C17 UNL     1      29.848  -0.337  53.449  1.00  0.00     0.000 A 
HETATM   27  C18 UNL     1      29.383   0.772  54.128  1.00  0.00     0.001 A 
HETATM   28  C19 UNL     1      28.032   0.901  54.467  1.00  0.00     0.014 A 
ENDBRANCH  21  23
ENDBRANCH   1  21
TORSDOF 8
ENDMDL
MODEL 6
REMARK VINA RESULT:      -8.1      3.025      3.674
REMARK  8 active torsions:
REMARK  status: ('A' for Active; 'I' for Inactive)
REMARK    1  A    between atoms: O1_1  and  C1_2 
REMARK    2  A    between atoms: C4_5  and  C5_6 
REMARK    3  A    between atoms: C5_6  and  N1_7 
REMARK    4  A    between atoms: N1_7  and  C6_8 
REMARK    5  A    between atoms: N1_7  and  C13_17 
REMARK    6  A    between atoms: C6_8  and  C7_9 
REMARK    7  A    between atoms: C12_15  and  O2_16 
REMARK    8  A    between atoms: C13_17  and  C14_19 
ROOT
HETATM    1  N1  UNL     1      23.495   2.951  51.845  1.00  0.00    -0.363 N 
ENDROOT
BRANCH   1   2
HETATM    2  C5  UNL     1      24.875   2.849  51.412  1.00  0.00     0.162 C 
BRANCH   2   3
HETATM    3  C4  UNL     1      25.676   1.945  52.294  1.00  0.00    -0.040 A 
HETATM    4  C3  UNL     1      25.826   2.128  53.652  1.00  0.00     0.011 A 
HETATM    5  C2  UNL     1      26.591   1.232  54.368  1.00  0.00     0.037 A 
HETATM    6  C1  UNL     1      27.198   0.174  53.758  1.00  0.00     0.065 A 
HETATM    7  C21 UNL     1      27.060  -0.030  52.392  1.00  0.00     0.037 A 
HETATM    8  C20 UNL     1      26.288   0.874  51.667  1.00  0.00     0.011 A 
BRANCH   6   9
HETATM    9  O1  UNL     1      27.957  -0.695  54.541  1.00  0.00    -0.361 OA
HETATM   10  H1  UNL     1      28.668  -0.281  55.139  1.00  0.00     0.217 HD
ENDBRANCH   6   9
ENDBRANCH   2   3
ENDBRANCH   1   2
BRANCH   1  11
HETATM   11  C6  UNL     1      23.191   4.143  52.571  1.00  0.00     0.165 C 
BRANCH  11  12
HETATM   12  C7  UNL     1      22.922   5.322  51.724  1.00  0.00    -0.006 A 
HETATM   13  C8  UNL     1      23.986   6.214  51.556  1.00  0.00     0.012 A 
HETATM   14  C9  UNL     1      23.777   7.335  50.773  1.00  0.00     0.002 A 
HETATM   15  C10 UNL     1      22.531   7.521  50.195  1.00  0.00     0.022 A 
HETATM   16  C11 UNL     1      21.492   6.639  50.365  1.00  0.00     0.044 A 
HETATM   17 BR1  UNL     1      19.836   7.033  49.504  1.00  0.00    -0.048 Br
HETATM   18  C12 UNL     1      21.680   5.500  51.152  1.00  0.00     0.090 A 
BRANCH  18  19
HETATM   19  O2  UNL     1      20.641   4.631  51.314  1.00  0.00    -0.359 OA
HETATM   20  H11 UNL     1      19.693   4.961  51.189  1.00  0.00     0.217 HD
ENDBRANCH  18  19
ENDBRANCH  11  12
ENDBRANCH   1  11
BRANCH   1  21
HETATM   21  C13 UNL     1      22.650   1.863  51.494  1.00  0.00     0.109 C 
HETATM   22  S1  UNL     1      22.108   1.425  50.019  1.00  0.00    -0.060 SA
BRANCH  21  23
HETATM   23  C14 UNL     1      22.192   1.009  52.581  1.00  0.00     0.002 A 
HETATM   24  C15 UNL     1      22.992  -0.057  52.923  1.00  0.00     0.014 A 
HETATM   25  C16 UNL     1      22.587  -0.886  53.949  1.00  0.00     0.001 A 
HETATM   26  C17 UNL     1      21.430  -0.692  54.637  1.00  0.00     0.000 A 
HETATM   27  C18 UNL     1      20.637   0.382  54.282  1.00  0.00     0.001 A 
HETATM   28  C19 UNL     1      21.009   1.247  53.248  1.00  0.00     0.014 A 
ENDBRANCH  21  23
ENDBRANCH   1  21
TORSDOF 8
ENDMDL
MODEL 7
REMARK VINA RESULT:      -8.0      1.759      2.413
REMARK  8 active torsions:
REMARK  status: ('A' for Active; 'I' for Inactive)
REMARK    1  A    between atoms: O1_1  and  C1_2 
REMARK    2  A    between atoms: C4_5  and  C5_6 
REMARK    3  A    between atoms: C5_6  and  N1_7 
REMARK    4  A    between atoms: N1_7  and  C6_8 
REMARK    5  A    between atoms: N1_7  and  C13_17 
REMARK    6  A    between atoms: C6_8  and  C7_9 
REMARK    7  A    between atoms: C12_15  and  O2_16 
REMARK    8  A    between atoms: C13_17  and  C14_19 
ROOT
HETATM    1  N1  UNL     1      25.029   0.607  53.073  1.00  0.00    -0.363 N 
ENDROOT
BRANCH   1   2
HETATM    2  C5  UNL     1      25.828  -0.122  52.107  1.00  0.00     0.162 C 
BRANCH   2   3
HETATM    3  C4  UNL     1      27.152  -0.531  52.668  1.00  0.00    -0.040 A 
HETATM    4  C3  UNL     1      28.057   0.346  53.229  1.00  0.00     0.011 A 
HETATM    5  C2  UNL     1      29.251  -0.142  53.714  1.00  0.00     0.037 A 
HETATM    6  C1  UNL     1      29.552  -1.470  53.647  1.00  0.00     0.065 A 
HETATM    7  C21 UNL     1      28.657  -2.372  53.088  1.00  0.00     0.037 A 
HETATM    8  C20 UNL     1      27.449  -1.881  52.598  1.00  0.00     0.011 A 
BRANCH   6   9
HETATM    9  O1  UNL     1      30.778  -1.898  54.157  1.00  0.00    -0.361 OA
HETATM   10  H1  UNL     1      31.613  -1.627  53.645  1.00  0.00     0.217 HD
ENDBRANCH   6   9
ENDBRANCH   2   3
ENDBRANCH   1   2
BRANCH   1  11
HETATM   11  C6  UNL     1      25.265   2.015  53.091  1.00  0.00     0.165 C 
BRANCH  11  12
HETATM   12  C7  UNL     1      25.083   2.682  51.786  1.00  0.00    -0.006 A 
HETATM   13  C8  UNL     1      23.772   2.737  51.302  1.00  0.00     0.012 A 
HETATM   14  C9  UNL     1      23.556   3.350  50.081  1.00  0.00     0.002 A 
HETATM   15  C10 UNL     1      24.641   3.876  49.398  1.00  0.00     0.022 A 
HETATM   16  C11 UNL     1      25.925   3.818  49.882  1.00  0.00     0.044 A 
HETATM   17 BR1  UNL     1      27.314   4.590  48.826  1.00  0.00    -0.048 Br
HETATM   18  C12 UNL     1      26.168   3.204  51.114  1.00  0.00     0.090 A 
BRANCH  18  19
HETATM   19  O2  UNL     1      27.447   3.152  51.585  1.00  0.00    -0.359 OA
HETATM   20  H11 UNL     1      28.084   3.909  51.376  1.00  0.00     0.217 HD
ENDBRANCH  18  19
ENDBRANCH  11  12
ENDBRANCH   1  11
BRANCH   1  21
HETATM   21  C13 UNL     1      24.136  -0.173  53.857  1.00  0.00     0.109 C 
HETATM   22  S1  UNL     1      24.473  -1.162  55.109  1.00  0.00    -0.060 SA
BRANCH  21  23
HETATM   23  C14 UNL     1      22.722  -0.096  53.515  1.00  0.00     0.002 A 
HETATM   24  C15 UNL     1      22.401  -0.051  52.178  1.00  0.00     0.014 A 
HETATM   25  C16 UNL     1      21.071   0.023  51.818  1.00  0.00     0.001 A 
HETATM   26  C17 UNL     1      20.064   0.052  52.732  1.00  0.00     0.000 A 
HETATM   27  C18 UNL     1      20.402   0.007  54.071  1.00  0.00     0.001 A 
HETATM   28  C19 UNL     1      21.737  -0.067  54.480  1.00  0.00     0.014 A 
ENDBRANCH  21  23
ENDBRANCH   1  21
TORSDOF 8
ENDMDL
MODEL 8
REMARK VINA RESULT:      -8.0      1.597      2.013
REMARK  8 active torsions:
REMARK  status: ('A' for Active; 'I' for Inactive)
REMARK    1  A    between atoms: O1_1  and  C1_2 
REMARK    2  A    between atoms: C4_5  and  C5_6 
REMARK    3  A    between atoms: C5_6  and  N1_7 
REMARK    4  A    between atoms: N1_7  and  C6_8 
REMARK    5  A    between atoms: N1_7  and  C13_17 
REMARK    6  A    between atoms: C6_8  and  C7_9 
REMARK    7  A    between atoms: C12_15  and  O2_16 
REMARK    8  A    between atoms: C13_17  and  C14_19 
ROOT
HETATM    1  N1  UNL     1      23.906   2.450  52.163  1.00  0.00    -0.363 N 
ENDROOT
BRANCH   1   2
HETATM    2  C5  UNL     1      24.717   2.897  53.278  1.00  0.00     0.162 C 
BRANCH   2   3
HETATM    3  C4  UNL     1      25.790   1.913  53.622  1.00  0.00    -0.040 A 
HETATM    4  C3  UNL     1      25.546   0.638  54.088  1.00  0.00     0.011 A 
HETATM    5  C2  UNL     1      26.614  -0.185  54.375  1.00  0.00     0.037 A 
HETATM    6  C1  UNL     1      27.899   0.239  54.210  1.00  0.00     0.065 A 
HETATM    7  C21 UNL     1      28.169   1.519  53.743  1.00  0.00     0.037 A 
HETATM    8  C20 UNL     1      27.091   2.352  53.451  1.00  0.00     0.011 A 
BRANCH   6   9
HETATM    9  O1  UNL     1      28.934  -0.644  54.520  1.00  0.00    -0.361 OA
HETATM   10  H1  UNL     1      29.824  -0.238  54.794  1.00  0.00     0.217 HD
ENDBRANCH   6   9
ENDBRANCH   2   3
ENDBRANCH   1   2
BRANCH   1  11
HETATM   11  C6  UNL     1      24.626   2.282  50.940  1.00  0.00     0.165 C 
BRANCH  11  12
HETATM   12  C7  UNL     1      24.661   3.484  50.082  1.00  0.00    -0.006 A 
HETATM   13  C8  UNL     1      23.441   3.871  49.517  1.00  0.00     0.012 A 
HETATM   14  C9  UNL     1      23.429   4.989  48.703  1.00  0.00     0.002 A 
HETATM   15  C10 UNL     1      24.617   5.669  48.487  1.00  0.00     0.022 A 
HETATM   16  C11 UNL     1      25.809   5.281  49.047  1.00  0.00     0.044 A 
HETATM   17 BR1  UNL     1      27.361   6.321  48.654  1.00  0.00    -0.048 Br
HETATM   18  C12 UNL     1      25.847   4.155  49.873  1.00  0.00     0.090 A 
BRANCH  18  19
HETATM   19  O2  UNL     1      27.037   3.779  50.423  1.00  0.00    -0.359 OA
HETATM   20  H11 UNL     1      27.144   2.840  50.781  1.00  0.00     0.217 HD
ENDBRANCH  18  19
ENDBRANCH  11  12
ENDBRANCH   1  11
BRANCH   1  21
HETATM   21  C13 UNL     1      22.526   2.248  52.438  1.00  0.00     0.109 C 
HETATM   22  S1  UNL     1      21.275   3.264  52.190  1.00  0.00    -0.060 SA
BRANCH  21  23
HETATM   23  C14 UNL     1      22.154   0.967  53.022  1.00  0.00     0.002 A 
HETATM   24  C15 UNL     1      21.171   0.977  53.986  1.00  0.00     0.014 A 
HETATM   25  C16 UNL     1      20.795  -0.220  54.560  1.00  0.00     0.001 A 
HETATM   26  C17 UNL     1      21.354  -1.409  54.212  1.00  0.00     0.000 A 
HETATM   27  C18 UNL     1      22.339  -1.403  53.243  1.00  0.00     0.001 A 
HETATM   28  C19 UNL     1      22.752  -0.214  52.636  1.00  0.00     0.014 A 
ENDBRANCH  21  23
ENDBRANCH   1  21
TORSDOF 8
ENDMDL
MODEL 9
REMARK VINA RESULT:      -7.9      2.730      5.813
REMARK  8 active torsions:
REMARK  status: ('A' for Active; 'I' for Inactive)
REMARK    1  A    between atoms: O1_1  and  C1_2 
REMARK    2  A    between atoms: C4_5  and  C5_6 
REMARK    3  A    between atoms: C5_6  and  N1_7 
REMARK    4  A    between atoms: N1_7  and  C6_8 
REMARK    5  A    between atoms: N1_7  and  C13_17 
REMARK    6  A    between atoms: C6_8  and  C7_9 
REMARK    7  A    between atoms: C12_15  and  O2_16 
REMARK    8  A    between atoms: C13_17  and  C14_19 
ROOT
HETATM    1  N1  UNL     1      24.192   3.348  50.878  1.00  0.00    -0.363 N 
ENDROOT
BRANCH   1   2
HETATM    2  C5  UNL     1      24.997   3.104  49.697  1.00  0.00     0.162 C 
BRANCH   2   3
HETATM    3  C4  UNL     1      25.793   4.307  49.301  1.00  0.00    -0.040 A 
HETATM    4  C3  UNL     1      25.273   5.582  49.216  1.00  0.00     0.011 A 
HETATM    5  C2  UNL     1      26.099   6.618  48.838  1.00  0.00     0.037 A 
HETATM    6  C1  UNL     1      27.414   6.405  48.547  1.00  0.00     0.065 A 
HETATM    7  C21 UNL     1      27.959   5.131  48.625  1.00  0.00     0.037 A 
HETATM    8  C20 UNL     1      27.126   4.082  49.008  1.00  0.00     0.011 A 
BRANCH   6   9
HETATM    9  O1  UNL     1      28.195   7.498  48.171  1.00  0.00    -0.361 OA
HETATM   10  H1  UNL     1      27.743   8.222  47.618  1.00  0.00     0.217 HD
ENDBRANCH   6   9
ENDBRANCH   2   3
ENDBRANCH   1   2
BRANCH   1  11
HETATM   11  C6  UNL     1      24.935   3.397  52.098  1.00  0.00     0.165 C 
BRANCH  11  12
HETATM   12  C7  UNL     1      25.438   2.088  52.560  1.00  0.00    -0.006 A 
HETATM   13  C8  UNL     1      24.466   1.139  52.895  1.00  0.00     0.012 A 
HETATM   14  C9  UNL     1      24.893  -0.100  53.336  1.00  0.00     0.002 A 
HETATM   15  C10 UNL     1      26.254  -0.343  53.425  1.00  0.00     0.022 A 
HETATM   16  C11 UNL     1      27.201   0.595  53.094  1.00  0.00     0.044 A 
HETATM   17 BR1  UNL     1      29.038   0.110  53.270  1.00  0.00    -0.048 Br
HETATM   18  C12 UNL     1      26.794   1.854  52.645  1.00  0.00     0.090 A 
BRANCH  18  19
HETATM   19  O2  UNL     1      27.744   2.777  52.319  1.00  0.00    -0.359 OA
HETATM   20  H11 UNL     1      28.074   2.834  51.365  1.00  0.00     0.217 HD
ENDBRANCH  18  19
ENDBRANCH  11  12
ENDBRANCH   1  11
BRANCH   1  21
HETATM   21  C13 UNL     1      22.796   3.499  50.660  1.00  0.00     0.109 C 
HETATM   22  S1  UNL     1      22.000   4.732  49.949  1.00  0.00    -0.060 SA
BRANCH  21  23
HETATM   23  C14 UNL     1      21.938   2.419  51.128  1.00  0.00     0.002 A 
HETATM   24  C15 UNL     1      21.223   2.640  52.283  1.00  0.00     0.014 A 
HETATM   25  C16 UNL     1      20.401   1.637  52.755  1.00  0.00     0.001 A 
HETATM   26  C17 UNL     1      20.267   0.440  52.123  1.00  0.00     0.000 A 
HETATM   27  C18 UNL     1      20.990   0.233  50.965  1.00  0.00     0.001 A 
HETATM   28  C19 UNL     1      21.836   1.221  50.452  1.00  0.00     0.014 A 
ENDBRANCH  21  23
ENDBRANCH   1  21
TORSDOF 8
ENDMDL
