MODEL 1
REMARK VINA RESULT:      -8.0      0.000      0.000
REMARK  4 active torsions:
REMARK  status: ('A' for Active; 'I' for Inactive)
REMARK    1  A    between atoms: O1_2  and  C2_3 
REMARK    2  A    between atoms: C6_7  and  N1_8 
REMARK    3  A    between atoms: N1_8  and  C7_9 
REMARK    4  A    between atoms: C10_13  and  N3_14 
ROOT
HETATM    1  C7  UNL     1      22.282   0.514  53.204  1.00  0.00     0.148 A 
HETATM    2  C8  UNL     1      21.676  -0.306  54.123  1.00  0.00     0.071 A 
HETATM    3  C9  UNL     1      22.327  -1.162  55.012  1.00  0.00     0.140 A 
HETATM    4  N2  UNL     1      23.672  -1.114  54.890  1.00  0.00    -0.075 NA
HETATM    5  C10 UNL     1      24.318  -0.337  54.016  1.00  0.00     0.730 A 
HETATM    6  N4  UNL     1      23.649   0.490  53.157  1.00  0.00    -0.045 NA
ENDROOT
BRANCH   1   7
HETATM    7  N1  UNL     1      21.578   1.384  52.333  1.00  0.00    -0.340 N 
HETATM    8  H7  UNL     1      20.744   1.901  52.686  1.00  0.00     0.167 HD
BRANCH   7   9
HETATM    9  C6  UNL     1      21.888   1.648  50.974  1.00  0.00     0.036 A 
HETATM   10  C5  UNL     1      21.263   0.914  49.985  1.00  0.00     0.029 A 
HETATM   11  C4  UNL     1      21.512   1.099  48.624  1.00  0.00     0.005 A 
HETATM   12  C3  UNL     1      22.437   2.073  48.250  1.00  0.00     0.037 A 
HETATM   13  C2  UNL     1      23.088   2.830  49.199  1.00  0.00     0.070 A 
HETATM   14  C17 UNL     1      22.812   2.615  50.547  1.00  0.00     0.066 A 
BRANCH  13  15
HETATM   15  O1  UNL     1      24.023   3.829  48.997  1.00  0.00    -0.356 OA
HETATM   16  C1  UNL     1      25.282   3.745  49.632  1.00  0.00     0.210 C 
ENDBRANCH  13  15
ENDBRANCH   7   9
ENDBRANCH   1   7
BRANCH   5  17
HETATM   17  N3  UNL     1      25.737  -0.381  53.995  1.00  0.00    -0.186 N 
HETATM   18  C11 UNL     1      26.363  -1.170  52.991  1.00  0.00     0.110 A 
HETATM   19  C12 UNL     1      27.664  -1.314  52.820  1.00  0.00     0.024 A 
HETATM   20  C13 UNL     1      28.565  -0.618  53.723  1.00  0.00    -0.063 A 
HETATM   21  C14 UNL     1      30.032  -0.761  53.549  1.00  0.00     0.048 C 
HETATM   22  C15 UNL     1      27.995   0.110  54.652  1.00  0.00     0.000 A 
HETATM   23  C16 UNL     1      26.572   0.328  54.917  1.00  0.00     0.174 A 
ENDBRANCH   5  17
TORSDOF 4
ENDMDL
MODEL 2
REMARK VINA RESULT:      -7.8      3.257      4.908
REMARK  4 active torsions:
REMARK  status: ('A' for Active; 'I' for Inactive)
REMARK    1  A    between atoms: O1_2  and  C2_3 
REMARK    2  A    between atoms: C6_7  and  N1_8 
REMARK    3  A    between atoms: N1_8  and  C7_9 
REMARK    4  A    between atoms: C10_13  and  N3_14 
ROOT
HETATM    1  C7  UNL     1      24.971   3.685  50.709  1.00  0.00     0.148 A 
HETATM    2  C8  UNL     1      24.042   3.990  51.671  1.00  0.00     0.071 A 
HETATM    3  C9  UNL     1      23.967   3.429  52.947  1.00  0.00     0.140 A 
HETATM    4  N2  UNL     1      24.937   2.513  53.168  1.00  0.00    -0.075 NA
HETATM    5  C10 UNL     1      25.867   2.175  52.272  1.00  0.00     0.730 A 
HETATM    6  N4  UNL     1      25.911   2.745  51.030  1.00  0.00    -0.045 NA
ENDROOT
BRANCH   1   7
HETATM    7  N1  UNL     1      25.019   4.299  49.431  1.00  0.00    -0.340 N 
HETATM    8  H7  UNL     1      24.250   4.126  48.749  1.00  0.00     0.167 HD
BRANCH   7   9
HETATM    9  C6  UNL     1      26.037   5.161  48.948  1.00  0.00     0.036 A 
HETATM   10  C5  UNL     1      25.710   6.456  48.593  1.00  0.00     0.029 A 
HETATM   11  C4  UNL     1      26.642   7.371  48.100  1.00  0.00     0.005 A 
HETATM   12  C3  UNL     1      27.966   6.953  47.961  1.00  0.00     0.037 A 
HETATM   13  C2  UNL     1      28.340   5.671  48.301  1.00  0.00     0.070 A 
HETATM   14  C17 UNL     1      27.381   4.789  48.789  1.00  0.00     0.066 A 
BRANCH  13  15
HETATM   15  O1  UNL     1      29.600   5.105  48.226  1.00  0.00    -0.356 OA
HETATM   16  C1  UNL     1      30.736   5.891  48.522  1.00  0.00     0.210 C 
ENDBRANCH  13  15
ENDBRANCH   7   9
ENDBRANCH   1   7
BRANCH   5  17
HETATM   17  N3  UNL     1      26.832   1.199  52.637  1.00  0.00    -0.186 N 
HETATM   18  C11 UNL     1      28.060   1.654  53.194  1.00  0.00     0.110 A 
HETATM   19  C12 UNL     1      29.057   0.888  53.596  1.00  0.00     0.024 A 
HETATM   20  C13 UNL     1      28.921  -0.553  53.473  1.00  0.00    -0.063 A 
HETATM   21  C14 UNL     1      30.026  -1.435  53.922  1.00  0.00     0.048 C 
HETATM   22  C15 UNL     1      27.792  -0.979  52.960  1.00  0.00     0.000 A 
HETATM   23  C16 UNL     1      26.638  -0.212  52.488  1.00  0.00     0.174 A 
ENDBRANCH   5  17
TORSDOF 4
ENDMDL
MODEL 3
REMARK VINA RESULT:      -7.7      3.186      6.435
REMARK  4 active torsions:
REMARK  status: ('A' for Active; 'I' for Inactive)
REMARK    1  A    between atoms: O1_2  and  C2_3 
REMARK    2  A    between atoms: C6_7  and  N1_8 
REMARK    3  A    between atoms: N1_8  and  C7_9 
REMARK    4  A    between atoms: C10_13  and  N3_14 
ROOT
HETATM    1  C7  UNL     1      23.243   2.826  51.385  1.00  0.00     0.148 A 
HETATM    2  C8  UNL     1      22.410   3.723  52.003  1.00  0.00     0.071 A 
HETATM    3  C9  UNL     1      22.543   5.112  51.985  1.00  0.00     0.140 A 
HETATM    4  N2  UNL     1      23.615   5.523  51.272  1.00  0.00    -0.075 NA
HETATM    5  C10 UNL     1      24.461   4.697  50.649  1.00  0.00     0.730 A 
HETATM    6  N4  UNL     1      24.302   3.340  50.687  1.00  0.00    -0.045 NA
ENDROOT
BRANCH   1   7
HETATM    7  N1  UNL     1      23.056   1.421  51.414  1.00  0.00    -0.340 N 
HETATM    8  H7  UNL     1      22.813   0.916  50.535  1.00  0.00     0.167 HD
BRANCH   7   9
HETATM    9  C6  UNL     1      23.165   0.578  52.552  1.00  0.00     0.036 A 
HETATM   10  C5  UNL     1      22.015   0.114  53.159  1.00  0.00     0.029 A 
HETATM   11  C4  UNL     1      22.025  -0.710  54.286  1.00  0.00     0.005 A 
HETATM   12  C3  UNL     1      23.260  -1.080  54.819  1.00  0.00     0.037 A 
HETATM   13  C2  UNL     1      24.435  -0.642  54.249  1.00  0.00     0.070 A 
HETATM   14  C17 UNL     1      24.382   0.179  53.126  1.00  0.00     0.066 A 
BRANCH  13  15
HETATM   15  O1  UNL     1      25.730  -0.918  54.650  1.00  0.00    -0.356 OA
HETATM   16  C1  UNL     1      26.588   0.144  55.014  1.00  0.00     0.210 C 
ENDBRANCH  13  15
ENDBRANCH   7   9
ENDBRANCH   1   7
BRANCH   5  17
HETATM   17  N3  UNL     1      25.547   5.263  49.929  1.00  0.00    -0.186 N 
HETATM   18  C11 UNL     1      26.520   4.376  49.390  1.00  0.00     0.110 A 
HETATM   19  C12 UNL     1      27.582   4.728  48.689  1.00  0.00     0.024 A 
HETATM   20  C13 UNL     1      27.806   6.139  48.426  1.00  0.00    -0.063 A 
HETATM   21  C14 UNL     1      28.990   6.559  47.636  1.00  0.00     0.048 C 
HETATM   22  C15 UNL     1      26.913   6.962  48.920  1.00  0.00     0.000 A 
HETATM   23  C16 UNL     1      25.713   6.667  49.705  1.00  0.00     0.174 A 
ENDBRANCH   5  17
TORSDOF 4
ENDMDL
MODEL 4
REMARK VINA RESULT:      -7.7      1.135      1.437
REMARK  4 active torsions:
REMARK  status: ('A' for Active; 'I' for Inactive)
REMARK    1  A    between atoms: O1_2  and  C2_3 
REMARK    2  A    between atoms: C6_7  and  N1_8 
REMARK    3  A    between atoms: N1_8  and  C7_9 
REMARK    4  A    between atoms: C10_13  and  N3_14 
ROOT
HETATM    1  C7  UNL     1      22.446   0.937  52.981  1.00  0.00     0.148 A 
HETATM    2  C8  UNL     1      21.730   0.074  53.772  1.00  0.00     0.071 A 
HETATM    3  C9  UNL     1      22.264  -0.908  54.607  1.00  0.00     0.140 A 
HETATM    4  N2  UNL     1      23.615  -0.941  54.573  1.00  0.00    -0.075 NA
HETATM    5  C10 UNL     1      24.365  -0.128  53.824  1.00  0.00     0.730 A 
HETATM    6  N4  UNL     1      23.809   0.824  53.015  1.00  0.00    -0.045 NA
ENDROOT
BRANCH   1   7
HETATM    7  N1  UNL     1      21.858   1.934  52.163  1.00  0.00    -0.340 N 
HETATM    8  H7  UNL     1      20.840   2.140  52.254  1.00  0.00     0.167 HD
BRANCH   7   9
HETATM    9  C6  UNL     1      22.522   2.725  51.188  1.00  0.00     0.036 A 
HETATM   10  C5  UNL     1      22.624   2.253  49.894  1.00  0.00     0.029 A 
HETATM   11  C4  UNL     1      23.266   2.957  48.873  1.00  0.00     0.005 A 
HETATM   12  C3  UNL     1      23.829   4.196  49.181  1.00  0.00     0.037 A 
HETATM   13  C2  UNL     1      23.753   4.708  50.457  1.00  0.00     0.070 A 
HETATM   14  C17 UNL     1      23.105   3.975  51.447  1.00  0.00     0.066 A 
BRANCH  13  15
HETATM   15  O1  UNL     1      24.253   5.911  50.922  1.00  0.00    -0.356 OA
HETATM   16  C1  UNL     1      25.297   6.551  50.218  1.00  0.00     0.210 C 
ENDBRANCH  13  15
ENDBRANCH   7   9
ENDBRANCH   1   7
BRANCH   5  17
HETATM   17  N3  UNL     1      25.777  -0.267  53.885  1.00  0.00    -0.186 N 
HETATM   18  C11 UNL     1      26.401  -1.130  52.942  1.00  0.00     0.110 A 
HETATM   19  C12 UNL     1      27.697  -1.367  52.850  1.00  0.00     0.024 A 
HETATM   20  C13 UNL     1      28.593  -0.702  53.781  1.00  0.00    -0.063 A 
HETATM   21  C14 UNL     1      30.054  -0.949  53.694  1.00  0.00     0.048 C 
HETATM   22  C15 UNL     1      28.024   0.093  54.653  1.00  0.00     0.000 A 
HETATM   23  C16 UNL     1      26.608   0.415  54.831  1.00  0.00     0.174 A 
ENDBRANCH   5  17
TORSDOF 4
ENDMDL
MODEL 5
REMARK VINA RESULT:      -7.6      2.621      7.032
REMARK  4 active torsions:
REMARK  status: ('A' for Active; 'I' for Inactive)
REMARK    1  A    between atoms: O1_2  and  C2_3 
REMARK    2  A    between atoms: C6_7  and  N1_8 
REMARK    3  A    between atoms: N1_8  and  C7_9 
REMARK    4  A    between atoms: C10_13  and  N3_14 
ROOT
HETATM    1  C7  UNL     1      24.769   2.394  52.397  1.00  0.00     0.148 A 
HETATM    2  C8  UNL     1      24.853   2.925  51.135  1.00  0.00     0.071 A 
HETATM    3  C9  UNL     1      23.880   2.832  50.139  1.00  0.00     0.140 A 
HETATM    4  N2  UNL     1      22.790   2.141  50.541  1.00  0.00    -0.075 NA
HETATM    5  C10 UNL     1      22.650   1.601  51.755  1.00  0.00     0.730 A 
HETATM    6  N4  UNL     1      23.625   1.710  52.708  1.00  0.00    -0.045 NA
ENDROOT
BRANCH   1   7
HETATM    7  N1  UNL     1      25.777   2.532  53.384  1.00  0.00    -0.340 N 
HETATM    8  H7  UNL     1      25.692   3.281  54.105  1.00  0.00     0.167 HD
BRANCH   7   9
HETATM    9  C6  UNL     1      26.944   1.735  53.516  1.00  0.00     0.036 A 
HETATM   10  C5  UNL     1      28.148   2.345  53.810  1.00  0.00     0.029 A 
HETATM   11  C4  UNL     1      29.346   1.643  53.949  1.00  0.00     0.005 A 
HETATM   12  C3  UNL     1      29.321   0.259  53.782  1.00  0.00     0.037 A 
HETATM   13  C2  UNL     1      28.145  -0.396  53.487  1.00  0.00     0.070 A 
HETATM   14  C17 UNL     1      26.971   0.340  53.356  1.00  0.00     0.066 A 
BRANCH  13  15
HETATM   15  O1  UNL     1      27.951  -1.752  53.295  1.00  0.00    -0.356 OA
HETATM   16  C1  UNL     1      26.894  -2.195  52.470  1.00  0.00     0.210 C 
ENDBRANCH  13  15
ENDBRANCH   7   9
ENDBRANCH   1   7
BRANCH   5  17
HETATM   17  N3  UNL     1      21.449   0.902  52.048  1.00  0.00    -0.186 N 
HETATM   18  C11 UNL     1      21.402   0.135  53.245  1.00  0.00     0.110 A 
HETATM   19  C12 UNL     1      20.367  -0.565  53.674  1.00  0.00     0.024 A 
HETATM   20  C13 UNL     1      19.153  -0.572  52.876  1.00  0.00    -0.063 A 
HETATM   21  C14 UNL     1      17.976  -1.347  53.341  1.00  0.00     0.048 C 
HETATM   22  C15 UNL     1      19.191   0.132  51.771  1.00  0.00     0.000 A 
HETATM   23  C16 UNL     1      20.283   0.933  51.217  1.00  0.00     0.174 A 
ENDBRANCH   5  17
TORSDOF 4
ENDMDL
MODEL 6
REMARK VINA RESULT:      -7.5      1.927      2.185
REMARK  4 active torsions:
REMARK  status: ('A' for Active; 'I' for Inactive)
REMARK    1  A    between atoms: O1_2  and  C2_3 
REMARK    2  A    between atoms: C6_7  and  N1_8 
REMARK    3  A    between atoms: N1_8  and  C7_9 
REMARK    4  A    between atoms: C10_13  and  N3_14 
ROOT
HETATM    1  C7  UNL     1      22.279  -0.267  52.972  1.00  0.00     0.148 A 
HETATM    2  C8  UNL     1      21.723  -0.818  54.099  1.00  0.00     0.071 A 
HETATM    3  C9  UNL     1      22.422  -1.286  55.213  1.00  0.00     0.140 A 
HETATM    4  N2  UNL     1      23.759  -1.145  55.085  1.00  0.00    -0.075 NA
HETATM    5  C10 UNL     1      24.358  -0.617  54.013  1.00  0.00     0.730 A 
HETATM    6  N4  UNL     1      23.643  -0.168  52.938  1.00  0.00    -0.045 NA
ENDROOT
BRANCH   1   7
HETATM    7  N1  UNL     1      21.526   0.215  51.872  1.00  0.00    -0.340 N 
HETATM    8  H7  UNL     1      21.418  -0.380  51.023  1.00  0.00     0.167 HD
BRANCH   7   9
HETATM    9  C6  UNL     1      20.869   1.471  51.785  1.00  0.00     0.036 A 
HETATM   10  C5  UNL     1      19.499   1.503  51.612  1.00  0.00     0.029 A 
HETATM   11  C4  UNL     1      18.770   2.689  51.507  1.00  0.00     0.005 A 
HETATM   12  C3  UNL     1      19.464   3.897  51.581  1.00  0.00     0.037 A 
HETATM   13  C2  UNL     1      20.831   3.916  51.753  1.00  0.00     0.070 A 
HETATM   14  C17 UNL     1      21.521   2.712  51.853  1.00  0.00     0.066 A 
BRANCH  13  15
HETATM   15  O1  UNL     1      21.661   5.019  51.848  1.00  0.00    -0.356 OA
HETATM   16  C1  UNL     1      21.551   6.058  50.898  1.00  0.00     0.210 C 
ENDBRANCH  13  15
ENDBRANCH   7   9
ENDBRANCH   1   7
BRANCH   5  17
HETATM   17  N3  UNL     1      25.775  -0.524  54.010  1.00  0.00    -0.186 N 
HETATM   18  C11 UNL     1      26.485  -1.220  52.992  1.00  0.00     0.110 A 
HETATM   19  C12 UNL     1      27.796  -1.233  52.835  1.00  0.00     0.024 A 
HETATM   20  C13 UNL     1      28.616  -0.480  53.769  1.00  0.00    -0.063 A 
HETATM   21  C14 UNL     1      30.091  -0.477  53.610  1.00  0.00     0.048 C 
HETATM   22  C15 UNL     1      27.968   0.163  54.710  1.00  0.00     0.000 A 
HETATM   23  C16 UNL     1      26.528   0.235  54.962  1.00  0.00     0.174 A 
ENDBRANCH   5  17
TORSDOF 4
ENDMDL
MODEL 7
REMARK VINA RESULT:      -7.3      3.480      6.845
REMARK  4 active torsions:
REMARK  status: ('A' for Active; 'I' for Inactive)
REMARK    1  A    between atoms: O1_2  and  C2_3 
REMARK    2  A    between atoms: C6_7  and  N1_8 
REMARK    3  A    between atoms: N1_8  and  C7_9 
REMARK    4  A    between atoms: C10_13  and  N3_14 
ROOT
HETATM    1  C7  UNL     1      23.489   3.448  51.189  1.00  0.00     0.148 A 
HETATM    2  C8  UNL     1      22.436   3.403  50.310  1.00  0.00     0.071 A 
HETATM    3  C9  UNL     1      22.437   3.893  49.003  1.00  0.00     0.140 A 
HETATM    4  N2  UNL     1      23.622   4.442  48.655  1.00  0.00    -0.075 NA
HETATM    5  C10 UNL     1      24.681   4.515  49.466  1.00  0.00     0.730 A 
HETATM    6  N4  UNL     1      24.646   4.026  50.742  1.00  0.00    -0.045 NA
ENDROOT
BRANCH   1   7
HETATM    7  N1  UNL     1      23.447   2.918  52.503  1.00  0.00    -0.340 N 
HETATM    8  H7  UNL     1      22.713   3.247  53.167  1.00  0.00     0.167 HD
BRANCH   7   9
HETATM    9  C6  UNL     1      24.327   1.947  53.050  1.00  0.00     0.036 A 
HETATM   10  C5  UNL     1      23.922   0.628  53.106  1.00  0.00     0.029 A 
HETATM   11  C4  UNL     1      24.715  -0.392  53.634  1.00  0.00     0.005 A 
HETATM   12  C3  UNL     1      25.977  -0.058  54.126  1.00  0.00     0.037 A 
HETATM   13  C2  UNL     1      26.425   1.245  54.092  1.00  0.00     0.070 A 
HETATM   14  C17 UNL     1      25.603   2.233  53.558  1.00  0.00     0.066 A 
BRANCH  13  15
HETATM   15  O1  UNL     1      27.640   1.738  54.533  1.00  0.00    -0.356 OA
HETATM   16  C1  UNL     1      28.612   2.141  53.591  1.00  0.00     0.210 C 
ENDBRANCH  13  15
ENDBRANCH   7   9
ENDBRANCH   1   7
BRANCH   5  17
HETATM   17  N3  UNL     1      25.869   5.116  48.971  1.00  0.00    -0.186 N 
HETATM   18  C11 UNL     1      25.779   6.439  48.455  1.00  0.00     0.110 A 
HETATM   19  C12 UNL     1      26.780   7.148  47.967  1.00  0.00     0.024 A 
HETATM   20  C13 UNL     1      28.106   6.553  47.940  1.00  0.00    -0.063 A 
HETATM   21  C14 UNL     1      29.247   7.332  47.401  1.00  0.00     0.048 C 
HETATM   22  C15 UNL     1      28.195   5.334  48.413  1.00  0.00     0.000 A 
HETATM   23  C16 UNL     1      27.149   4.475  48.969  1.00  0.00     0.174 A 
ENDBRANCH   5  17
TORSDOF 4
ENDMDL
MODEL 8
REMARK VINA RESULT:      -7.0      3.066      5.994
REMARK  4 active torsions:
REMARK  status: ('A' for Active; 'I' for Inactive)
REMARK    1  A    between atoms: O1_2  and  C2_3 
REMARK    2  A    between atoms: C6_7  and  N1_8 
REMARK    3  A    between atoms: N1_8  and  C7_9 
REMARK    4  A    between atoms: C10_13  and  N3_14 
ROOT
HETATM    1  C7  UNL     1      23.692   4.082  49.571  1.00  0.00     0.148 A 
HETATM    2  C8  UNL     1      23.110   3.686  48.393  1.00  0.00     0.071 A 
HETATM    3  C9  UNL     1      22.399   2.502  48.187  1.00  0.00     0.140 A 
HETATM    4  N2  UNL     1      22.328   1.739  49.300  1.00  0.00    -0.075 NA
HETATM    5  C10 UNL     1      22.874   2.071  50.473  1.00  0.00     0.730 A 
HETATM    6  N4  UNL     1      23.565   3.239  50.641  1.00  0.00    -0.045 NA
ENDROOT
BRANCH   1   7
HETATM    7  N1  UNL     1      24.388   5.306  49.738  1.00  0.00    -0.340 N 
HETATM    8  H7  UNL     1      23.955   6.071  50.298  1.00  0.00     0.167 HD
BRANCH   7   9
HETATM    9  C6  UNL     1      25.666   5.628  49.211  1.00  0.00     0.036 A 
HETATM   10  C5  UNL     1      26.616   4.633  49.090  1.00  0.00     0.029 A 
HETATM   11  C4  UNL     1      27.900   4.860  48.592  1.00  0.00     0.005 A 
HETATM   12  C3  UNL     1      28.234   6.155  48.196  1.00  0.00     0.037 A 
HETATM   13  C2  UNL     1      27.321   7.181  48.297  1.00  0.00     0.070 A 
HETATM   14  C17 UNL     1      26.051   6.915  48.800  1.00  0.00     0.066 A 
BRANCH  13  15
HETATM   15  O1  UNL     1      27.491   8.509  47.950  1.00  0.00    -0.356 OA
HETATM   16  C1  UNL     1      28.789   9.067  47.944  1.00  0.00     0.210 C 
ENDBRANCH  13  15
ENDBRANCH   7   9
ENDBRANCH   1   7
BRANCH   5  17
HETATM   17  N3  UNL     1      22.720   1.176  51.566  1.00  0.00    -0.186 N 
HETATM   18  C11 UNL     1      23.831   0.990  52.433  1.00  0.00     0.110 A 
HETATM   19  C12 UNL     1      23.858   0.208  53.498  1.00  0.00     0.024 A 
HETATM   20  C13 UNL     1      22.662  -0.543  53.840  1.00  0.00    -0.063 A 
HETATM   21  C14 UNL     1      22.667  -1.424  55.034  1.00  0.00     0.048 C 
HETATM   22  C15 UNL     1      21.634  -0.376  53.043  1.00  0.00     0.000 A 
HETATM   23  C16 UNL     1      21.512   0.462  51.850  1.00  0.00     0.174 A 
ENDBRANCH   5  17
TORSDOF 4
ENDMDL
MODEL 9
REMARK VINA RESULT:      -7.0      2.417      3.511
REMARK  4 active torsions:
REMARK  status: ('A' for Active; 'I' for Inactive)
REMARK    1  A    between atoms: O1_2  and  C2_3 
REMARK    2  A    between atoms: C6_7  and  N1_8 
REMARK    3  A    between atoms: N1_8  and  C7_9 
REMARK    4  A    between atoms: C10_13  and  N3_14 
ROOT
HETATM    1  C7  UNL     1      23.776   3.548  52.392  1.00  0.00     0.148 A 
HETATM    2  C8  UNL     1      22.628   2.796  52.364  1.00  0.00     0.071 A 
HETATM    3  C9  UNL     1      22.552   1.411  52.512  1.00  0.00     0.140 A 
HETATM    4  N2  UNL     1      23.763   0.840  52.696  1.00  0.00    -0.075 NA
HETATM    5  C10 UNL     1      24.914   1.519  52.732  1.00  0.00     0.730 A 
HETATM    6  N4  UNL     1      24.953   2.878  52.583  1.00  0.00    -0.045 NA
ENDROOT
BRANCH   1   7
HETATM    7  N1  UNL     1      23.802   4.959  52.257  1.00  0.00    -0.340 N 
HETATM    8  H7  UNL     1      23.589   5.559  53.083  1.00  0.00     0.167 HD
BRANCH   7   9
HETATM    9  C6  UNL     1      24.098   5.689  51.076  1.00  0.00     0.036 A 
HETATM   10  C5  UNL     1      23.245   6.700  50.677  1.00  0.00     0.029 A 
HETATM   11  C4  UNL     1      23.452   7.462  49.526  1.00  0.00     0.005 A 
HETATM   12  C3  UNL     1      24.574   7.187  48.746  1.00  0.00     0.037 A 
HETATM   13  C2  UNL     1      25.453   6.188  49.102  1.00  0.00     0.070 A 
HETATM   14  C17 UNL     1      25.212   5.449  50.257  1.00  0.00     0.066 A 
BRANCH  13  15
HETATM   15  O1  UNL     1      26.605   5.793  48.444  1.00  0.00    -0.356 OA
HETATM   16  C1  UNL     1      27.289   4.634  48.871  1.00  0.00     0.210 C 
ENDBRANCH  13  15
ENDBRANCH   7   9
ENDBRANCH   1   7
BRANCH   5  17
HETATM   17  N3  UNL     1      26.118   0.794  52.936  1.00  0.00    -0.186 N 
HETATM   18  C11 UNL     1      26.094  -0.610  52.713  1.00  0.00     0.110 A 
HETATM   19  C12 UNL     1      27.120  -1.432  52.845  1.00  0.00     0.024 A 
HETATM   20  C13 UNL     1      28.402  -0.883  53.254  1.00  0.00    -0.063 A 
HETATM   21  C14 UNL     1      29.570  -1.786  53.404  1.00  0.00     0.048 C 
HETATM   22  C15 UNL     1      28.430   0.411  53.462  1.00  0.00     0.000 A 
HETATM   23  C16 UNL     1      27.353   1.394  53.343  1.00  0.00     0.174 A 
ENDBRANCH   5  17
TORSDOF 4
ENDMDL
