MODEL 1
REMARK VINA RESULT:      -8.1      0.000      0.000
REMARK  2 active torsions:
REMARK  status: ('A' for Active; 'I' for Inactive)
REMARK    1  A    between atoms: C12_16  and  N4_17 
REMARK    2  A    between atoms: N4_17  and  C13_18 
ROOT
HETATM    1  C1  UNL     1      21.918   1.354  48.909  1.00  0.00     0.044 C 
HETATM    2  C2  UNL     1      21.970   1.190  50.382  1.00  0.00    -0.067 C 
HETATM    3  C3  UNL     1      20.759   0.776  50.693  1.00  0.00     0.073 C 
HETATM    4  C4  UNL     1      19.818   0.324  51.755  1.00  0.00     0.312 A 
HETATM    5  O1  UNL     1      19.099  -0.061  52.682  1.00  0.00    -0.121 OA
HETATM    6  N1  UNL     1      20.446  -0.223  52.950  1.00  0.00     0.127 N 
HETATM    7  C5  UNL     1      21.067  -0.775  54.159  1.00  0.00     0.241 C 
HETATM    8  C6  UNL     1      22.408  -0.516  54.265  1.00  0.00     0.009 C 
HETATM    9  C7  UNL     1      23.355   0.186  53.456  1.00  0.00     0.116 C 
HETATM   10  C8  UNL     1      23.604   0.941  52.354  1.00  0.00     0.058 A 
HETATM   11  N2  UNL     1      25.006   1.054  52.560  1.00  0.00    -0.293 NA
HETATM   12  C9  UNL     1      25.847   1.749  51.883  1.00  0.00     0.135 A 
HETATM   13  C10 UNL     1      25.378   2.540  50.763  1.00  0.00     0.085 A 
HETATM   14  C11 UNL     1      26.290   3.304  49.979  1.00  0.00     0.103 C 
HETATM   15  N3  UNL     1      27.050   3.926  49.332  1.00  0.00    -0.191 NA
HETATM   16  C12 UNL     1      24.094   2.482  50.517  1.00  0.00     0.042 A 
HETATM   17  C19 UNL     1      23.078   1.684  51.199  1.00  0.00     0.091 A 
HETATM   18  H5  UNL     1      21.326  -0.558  52.441  1.00  0.00     0.334 HD
ENDROOT
BRANCH  16  19
HETATM   19  N4  UNL     1      23.624   3.260  49.442  1.00  0.00    -0.358 N 
HETATM   20  H10 UNL     1      23.364   3.534  48.488  1.00  0.00     0.166 HD
BRANCH  19  21
HETATM   21  C13 UNL     1      23.220   4.557  49.904  1.00  0.00     0.033 A 
HETATM   22  C14 UNL     1      22.137   4.826  50.699  1.00  0.00     0.029 A 
HETATM   23  C15 UNL     1      21.644   6.000  51.207  1.00  0.00     0.004 A 
HETATM   24  C16 UNL     1      22.411   7.116  50.833  1.00  0.00     0.019 A 
HETATM   25  C17 UNL     1      23.532   6.997  50.035  1.00  0.00     0.013 A 
HETATM   26 BR1  UNL     1      24.530   8.552  49.567  1.00  0.00    -0.051 Br
HETATM   27  C18 UNL     1      23.896   5.732  49.600  1.00  0.00     0.048 A 
ENDBRANCH  19  21
ENDBRANCH  16  19
TORSDOF 2
ENDMDL
MODEL 2
REMARK VINA RESULT:      -8.0      3.424      6.259
REMARK  2 active torsions:
REMARK  status: ('A' for Active; 'I' for Inactive)
REMARK    1  A    between atoms: C12_16  and  N4_17 
REMARK    2  A    between atoms: N4_17  and  C13_18 
ROOT
HETATM    1  C1  UNL     1      23.255   4.751  52.966  1.00  0.00     0.044 C 
HETATM    2  C2  UNL     1      24.017   4.663  51.697  1.00  0.00    -0.067 C 
HETATM    3  C3  UNL     1      23.736   5.795  51.086  1.00  0.00     0.073 C 
HETATM    4  C4  UNL     1      23.953   6.673  49.903  1.00  0.00     0.312 A 
HETATM    5  O1  UNL     1      24.195   7.358  48.905  1.00  0.00    -0.121 OA
HETATM    6  N1  UNL     1      25.200   6.450  49.183  1.00  0.00     0.127 N 
HETATM    7  C5  UNL     1      26.452   6.234  48.450  1.00  0.00     0.241 C 
HETATM    8  C6  UNL     1      27.090   5.065  48.769  1.00  0.00     0.009 C 
HETATM    9  C7  UNL     1      26.807   3.986  49.665  1.00  0.00     0.116 C 
HETATM   10  C8  UNL     1      25.961   3.417  50.562  1.00  0.00     0.058 A 
HETATM   11  N2  UNL     1      26.779   2.290  50.849  1.00  0.00    -0.293 NA
HETATM   12  C9  UNL     1      26.496   1.280  51.590  1.00  0.00     0.135 A 
HETATM   13  C10 UNL     1      25.201   1.215  52.239  1.00  0.00     0.085 A 
HETATM   14  C11 UNL     1      24.866   0.119  53.085  1.00  0.00     0.103 C 
HETATM   15  N3  UNL     1      24.599  -0.786  53.787  1.00  0.00    -0.191 NA
HETATM   16  C12 UNL     1      24.396   2.223  52.017  1.00  0.00     0.042 A 
HETATM   17  C19 UNL     1      24.654   3.429  51.235  1.00  0.00     0.091 A 
HETATM   18  H5  UNL     1      25.730   6.084  50.038  1.00  0.00     0.334 HD
ENDROOT
BRANCH  16  19
HETATM   19  N4  UNL     1      23.130   2.163  52.629  1.00  0.00    -0.358 N 
HETATM   20  H10 UNL     1      22.395   2.243  53.340  1.00  0.00     0.166 HD
BRANCH  19  21
HETATM   21  C13 UNL     1      22.155   1.654  51.707  1.00  0.00     0.033 A 
HETATM   22  C14 UNL     1      22.261   1.659  50.341  1.00  0.00     0.029 A 
HETATM   23  C15 UNL     1      21.418   1.211  49.356  1.00  0.00     0.004 A 
HETATM   24  C16 UNL     1      20.238   0.646  49.870  1.00  0.00     0.019 A 
HETATM   25  C17 UNL     1      19.995   0.571  51.227  1.00  0.00     0.013 A 
HETATM   26 BR1  UNL     1      18.375  -0.211  51.857  1.00  0.00    -0.051 Br
HETATM   27  C18 UNL     1      20.953   1.074  52.094  1.00  0.00     0.048 A 
ENDBRANCH  19  21
ENDBRANCH  16  19
TORSDOF 2
ENDMDL
MODEL 3
REMARK VINA RESULT:      -7.8      2.977      5.183
REMARK  2 active torsions:
REMARK  status: ('A' for Active; 'I' for Inactive)
REMARK    1  A    between atoms: C12_16  and  N4_17 
REMARK    2  A    between atoms: N4_17  and  C13_18 
ROOT
HETATM    1  C1  UNL     1      23.703   3.771  53.129  1.00  0.00     0.044 C 
HETATM    2  C2  UNL     1      24.398   2.491  52.851  1.00  0.00    -0.067 C 
HETATM    3  C3  UNL     1      25.665   2.839  52.759  1.00  0.00     0.073 C 
HETATM    4  C4  UNL     1      27.077   2.408  52.558  1.00  0.00     0.312 A 
HETATM    5  O1  UNL     1      28.224   1.977  52.407  1.00  0.00    -0.121 OA
HETATM    6  N1  UNL     1      27.354   1.016  52.887  1.00  0.00     0.127 N 
HETATM    7  C5  UNL     1      27.645  -0.384  53.214  1.00  0.00     0.241 C 
HETATM    8  C6  UNL     1      26.530  -1.166  53.361  1.00  0.00     0.009 C 
HETATM    9  C7  UNL     1      25.124  -0.927  53.260  1.00  0.00     0.116 C 
HETATM   10  C8  UNL     1      24.112  -0.063  52.986  1.00  0.00     0.058 A 
HETATM   11  N2  UNL     1      23.055  -0.975  53.254  1.00  0.00    -0.293 NA
HETATM   12  C9  UNL     1      21.795  -0.790  53.089  1.00  0.00     0.135 A 
HETATM   13  C10 UNL     1      21.325   0.478  52.566  1.00  0.00     0.085 A 
HETATM   14  C11 UNL     1      19.932   0.721  52.392  1.00  0.00     0.103 C 
HETATM   15  N3  UNL     1      18.780   0.916  52.259  1.00  0.00    -0.191 NA
HETATM   16  C12 UNL     1      22.248   1.366  52.297  1.00  0.00     0.042 A 
HETATM   17  C19 UNL     1      23.690   1.260  52.501  1.00  0.00     0.091 A 
HETATM   18  H5  UNL     1      26.571   0.940  53.613  1.00  0.00     0.334 HD
ENDROOT
BRANCH  16  19
HETATM   19  N4  UNL     1      21.804   2.595  51.774  1.00  0.00    -0.358 N 
HETATM   20  H10 UNL     1      21.421   3.545  51.730  1.00  0.00     0.166 HD
BRANCH  19  21
HETATM   21  C13 UNL     1      21.943   2.607  50.345  1.00  0.00     0.033 A 
HETATM   22  C14 UNL     1      21.883   1.514  49.522  1.00  0.00     0.029 A 
HETATM   23  C15 UNL     1      21.998   1.385  48.162  1.00  0.00     0.004 A 
HETATM   24  C16 UNL     1      22.211   2.617  47.518  1.00  0.00     0.019 A 
HETATM   25  C17 UNL     1      22.292   3.803  48.220  1.00  0.00     0.013 A 
HETATM   26 BR1  UNL     1      22.580   5.438  47.284  1.00  0.00    -0.051 Br
HETATM   27  C18 UNL     1      22.158   3.760  49.599  1.00  0.00     0.048 A 
ENDBRANCH  19  21
ENDBRANCH  16  19
TORSDOF 2
ENDMDL
MODEL 4
REMARK VINA RESULT:      -7.7      2.920      4.921
REMARK  2 active torsions:
REMARK  status: ('A' for Active; 'I' for Inactive)
REMARK    1  A    between atoms: C12_16  and  N4_17 
REMARK    2  A    between atoms: N4_17  and  C13_18 
ROOT
HETATM    1  C1  UNL     1      23.768   4.534  52.532  1.00  0.00     0.044 C 
HETATM    2  C2  UNL     1      23.987   3.067  52.560  1.00  0.00    -0.067 C 
HETATM    3  C3  UNL     1      25.299   2.948  52.522  1.00  0.00     0.073 C 
HETATM    4  C4  UNL     1      26.479   2.040  52.535  1.00  0.00     0.312 A 
HETATM    5  O1  UNL     1      27.411   1.231  52.571  1.00  0.00    -0.121 OA
HETATM    6  N1  UNL     1      26.253   0.734  53.139  1.00  0.00     0.127 N 
HETATM    7  C5  UNL     1      26.037  -0.585  53.744  1.00  0.00     0.241 C 
HETATM    8  C6  UNL     1      24.718  -0.904  53.930  1.00  0.00     0.009 C 
HETATM    9  C7  UNL     1      23.482  -0.236  53.658  1.00  0.00     0.116 C 
HETATM   10  C8  UNL     1      22.836   0.840  53.137  1.00  0.00     0.058 A 
HETATM   11  N2  UNL     1      21.524   0.406  53.471  1.00  0.00    -0.293 NA
HETATM   12  C9  UNL     1      20.409   0.961  53.160  1.00  0.00     0.135 A 
HETATM   13  C10 UNL     1      20.416   2.178  52.371  1.00  0.00     0.085 A 
HETATM   14  C11 UNL     1      19.196   2.829  52.028  1.00  0.00     0.103 C 
HETATM   15  N3  UNL     1      18.185   3.365  51.755  1.00  0.00    -0.191 NA
HETATM   16  C12 UNL     1      21.594   2.633  52.028  1.00  0.00     0.042 A 
HETATM   17  C19 UNL     1      22.907   2.097  52.380  1.00  0.00     0.091 A 
HETATM   18  H5  UNL     1      25.475   1.073  53.791  1.00  0.00     0.334 HD
ENDROOT
BRANCH  16  19
HETATM   19  N4  UNL     1      21.612   3.805  51.249  1.00  0.00    -0.358 N 
HETATM   20  H10 UNL     1      21.579   4.798  50.995  1.00  0.00     0.166 HD
BRANCH  19  21
HETATM   21  C13 UNL     1      21.792   3.478  49.862  1.00  0.00     0.033 A 
HETATM   22  C14 UNL     1      21.941   2.218  49.347  1.00  0.00     0.029 A 
HETATM   23  C15 UNL     1      22.117   1.769  48.063  1.00  0.00     0.004 A 
HETATM   24  C16 UNL     1      22.142   2.815  47.124  1.00  0.00     0.019 A 
HETATM   25  C17 UNL     1      22.004   4.137  47.498  1.00  0.00     0.013 A 
HETATM   26 BR1  UNL     1      22.044   5.505  46.173  1.00  0.00    -0.051 Br
HETATM   27  C18 UNL     1      21.835   4.423  48.844  1.00  0.00     0.048 A 
ENDBRANCH  19  21
ENDBRANCH  16  19
TORSDOF 2
ENDMDL
MODEL 5
REMARK VINA RESULT:      -7.6      1.668      1.982
REMARK  2 active torsions:
REMARK  status: ('A' for Active; 'I' for Inactive)
REMARK    1  A    between atoms: C12_16  and  N4_17 
REMARK    2  A    between atoms: N4_17  and  C13_18 
ROOT
HETATM    1  C1  UNL     1      22.034   1.615  48.295  1.00  0.00     0.044 C 
HETATM    2  C2  UNL     1      21.462   1.417  49.649  1.00  0.00    -0.067 C 
HETATM    3  C3  UNL     1      20.170   1.291  49.426  1.00  0.00     0.073 C 
HETATM    4  C4  UNL     1      18.813   1.052  49.992  1.00  0.00     0.312 A 
HETATM    5  O1  UNL     1      17.723   0.829  50.527  1.00  0.00    -0.121 OA
HETATM    6  N1  UNL     1      18.787   0.352  51.269  1.00  0.00     0.127 N 
HETATM    7  C5  UNL     1      18.748  -0.352  52.556  1.00  0.00     0.241 C 
HETATM    8  C6  UNL     1      19.959  -0.415  53.194  1.00  0.00     0.009 C 
HETATM    9  C7  UNL     1      21.272   0.062  52.890  1.00  0.00     0.116 C 
HETATM   10  C8  UNL     1      22.089   0.758  52.056  1.00  0.00     0.058 A 
HETATM   11  N2  UNL     1      23.284   0.537  52.793  1.00  0.00    -0.293 NA
HETATM   12  C9  UNL     1      24.449   1.029  52.569  1.00  0.00     0.135 A 
HETATM   13  C10 UNL     1      24.637   1.928  51.448  1.00  0.00     0.085 A 
HETATM   14  C11 UNL     1      25.922   2.472  51.160  1.00  0.00     0.103 C 
HETATM   15  N3  UNL     1      26.988   2.912  50.925  1.00  0.00    -0.191 NA
HETATM   16  C12 UNL     1      23.575   2.176  50.725  1.00  0.00     0.042 A 
HETATM   17  C19 UNL     1      22.231   1.624  50.877  1.00  0.00     0.091 A 
HETATM   18  H5  UNL     1      19.707  -0.169  51.102  1.00  0.00     0.334 HD
ENDROOT
BRANCH  16  19
HETATM   19  N4  UNL     1      23.743   3.061  49.644  1.00  0.00    -0.358 N 
HETATM   20  H10 UNL     1      23.976   3.411  48.708  1.00  0.00     0.166 HD
BRANCH  19  21
HETATM   21  C13 UNL     1      23.346   4.388  50.020  1.00  0.00     0.033 A 
HETATM   22  C14 UNL     1      24.090   5.270  50.758  1.00  0.00     0.029 A 
HETATM   23  C15 UNL     1      23.836   6.549  51.182  1.00  0.00     0.004 A 
HETATM   24  C16 UNL     1      22.578   7.018  50.766  1.00  0.00     0.019 A 
HETATM   25  C17 UNL     1      21.721   6.239  50.014  1.00  0.00     0.013 A 
HETATM   26 BR1  UNL     1      20.030   6.938  49.480  1.00  0.00    -0.051 Br
HETATM   27  C18 UNL     1      22.129   4.960  49.669  1.00  0.00     0.048 A 
ENDBRANCH  19  21
ENDBRANCH  16  19
TORSDOF 2
ENDMDL
MODEL 6
REMARK VINA RESULT:      -7.5      3.231      6.196
REMARK  2 active torsions:
REMARK  status: ('A' for Active; 'I' for Inactive)
REMARK    1  A    between atoms: C12_16  and  N4_17 
REMARK    2  A    between atoms: N4_17  and  C13_18 
ROOT
HETATM    1  C1  UNL     1      23.506   5.037  53.329  1.00  0.00     0.044 C 
HETATM    2  C2  UNL     1      23.396   5.174  51.856  1.00  0.00    -0.067 C 
HETATM    3  C3  UNL     1      22.383   5.999  51.695  1.00  0.00     0.073 C 
HETATM    4  C4  UNL     1      21.521   6.763  50.751  1.00  0.00     0.312 A 
HETATM    5  O1  UNL     1      20.861   7.384  49.913  1.00  0.00    -0.121 OA
HETATM    6  N1  UNL     1      22.120   7.048  49.454  1.00  0.00     0.127 N 
HETATM    7  C5  UNL     1      22.713   7.340  48.144  1.00  0.00     0.241 C 
HETATM    8  C6  UNL     1      23.840   6.613  47.868  1.00  0.00     0.009 C 
HETATM    9  C7  UNL     1      24.580   5.612  48.573  1.00  0.00     0.116 C 
HETATM   10  C8  UNL     1      24.701   4.816  49.667  1.00  0.00     0.058 A 
HETATM   11  N2  UNL     1      25.922   4.203  49.276  1.00  0.00    -0.293 NA
HETATM   12  C9  UNL     1      26.548   3.250  49.866  1.00  0.00     0.135 A 
HETATM   13  C10 UNL     1      25.996   2.680  51.079  1.00  0.00     0.085 A 
HETATM   14  C11 UNL     1      26.679   1.636  51.768  1.00  0.00     0.103 C 
HETATM   15  N3  UNL     1      27.251   0.779  52.335  1.00  0.00    -0.191 NA
HETATM   16  C12 UNL     1      24.870   3.199  51.497  1.00  0.00     0.042 A 
HETATM   17  C19 UNL     1      24.120   4.313  50.921  1.00  0.00     0.091 A 
HETATM   18  H5  UNL     1      23.127   7.040  49.819  1.00  0.00     0.334 HD
ENDROOT
BRANCH  16  19
HETATM   19  N4  UNL     1      24.317   2.643  52.665  1.00  0.00    -0.358 N 
HETATM   20  H10 UNL     1      24.151   2.448  53.659  1.00  0.00     0.166 HD
BRANCH  19  21
HETATM   21  C13 UNL     1      23.283   1.705  52.329  1.00  0.00     0.033 A 
HETATM   22  C14 UNL     1      22.650   1.606  51.119  1.00  0.00     0.029 A 
HETATM   23  C15 UNL     1      21.662   0.769  50.669  1.00  0.00     0.004 A 
HETATM   24  C16 UNL     1      21.243  -0.148  51.648  1.00  0.00     0.019 A 
HETATM   25  C17 UNL     1      21.792  -0.166  52.915  1.00  0.00     0.013 A 
HETATM   26 BR1  UNL     1      21.179  -1.438  54.194  1.00  0.00    -0.051 Br
HETATM   27  C18 UNL     1      22.786   0.754  53.212  1.00  0.00     0.048 A 
ENDBRANCH  19  21
ENDBRANCH  16  19
TORSDOF 2
ENDMDL
MODEL 7
REMARK VINA RESULT:      -7.3      3.283      6.665
REMARK  2 active torsions:
REMARK  status: ('A' for Active; 'I' for Inactive)
REMARK    1  A    between atoms: C12_16  and  N4_17 
REMARK    2  A    between atoms: N4_17  and  C13_18 
ROOT
HETATM    1  C1  UNL     1      24.248   2.529  48.820  1.00  0.00     0.044 C 
HETATM    2  C2  UNL     1      24.392   3.773  49.615  1.00  0.00    -0.067 C 
HETATM    3  C3  UNL     1      25.418   4.382  49.057  1.00  0.00     0.073 C 
HETATM    4  C4  UNL     1      26.309   5.575  49.030  1.00  0.00     0.312 A 
HETATM    5  O1  UNL     1      26.995   6.601  49.050  1.00  0.00    -0.121 OA
HETATM    6  N1  UNL     1      25.742   6.788  49.603  1.00  0.00     0.127 N 
HETATM    7  C5  UNL     1      25.182   8.015  50.179  1.00  0.00     0.241 C 
HETATM    8  C6  UNL     1      24.052   7.815  50.928  1.00  0.00     0.009 C 
HETATM    9  C7  UNL     1      23.286   6.663  51.288  1.00  0.00     0.116 C 
HETATM   10  C8  UNL     1      23.132   5.313  51.246  1.00  0.00     0.058 A 
HETATM   11  N2  UNL     1      21.913   5.276  51.976  1.00  0.00    -0.293 NA
HETATM   12  C9  UNL     1      21.263   4.240  52.370  1.00  0.00     0.135 A 
HETATM   13  C10 UNL     1      21.782   2.920  52.073  1.00  0.00     0.085 A 
HETATM   14  C11 UNL     1      21.073   1.752  52.477  1.00  0.00     0.103 C 
HETATM   15  N3  UNL     1      20.478   0.793  52.809  1.00  0.00    -0.191 NA
HETATM   16  C12 UNL     1      22.905   2.881  51.402  1.00  0.00     0.042 A 
HETATM   17  C19 UNL     1      23.679   4.001  50.872  1.00  0.00     0.091 A 
HETATM   18  H5  UNL     1      24.728   6.519  49.390  1.00  0.00     0.334 HD
ENDROOT
BRANCH  16  19
HETATM   19  N4  UNL     1      23.426   1.604  51.121  1.00  0.00    -0.358 N 
HETATM   20  H10 UNL     1      23.597   0.713  50.642  1.00  0.00     0.166 HD
BRANCH  19  21
HETATM   21  C13 UNL     1      24.341   1.203  52.152  1.00  0.00     0.033 A 
HETATM   22  C14 UNL     1      24.122   0.223  53.084  1.00  0.00     0.029 A 
HETATM   23  C15 UNL     1      24.899  -0.256  54.108  1.00  0.00     0.004 A 
HETATM   24  C16 UNL     1      26.143   0.393  54.191  1.00  0.00     0.019 A 
HETATM   25  C17 UNL     1      26.502   1.400  53.317  1.00  0.00     0.013 A 
HETATM   26 BR1  UNL     1      28.207   2.236  53.485  1.00  0.00    -0.051 Br
HETATM   27  C18 UNL     1      25.597   1.770  52.335  1.00  0.00     0.048 A 
ENDBRANCH  19  21
ENDBRANCH  16  19
TORSDOF 2
ENDMDL
MODEL 8
REMARK VINA RESULT:      -7.2      3.180      6.821
REMARK  2 active torsions:
REMARK  status: ('A' for Active; 'I' for Inactive)
REMARK    1  A    between atoms: C12_16  and  N4_17 
REMARK    2  A    between atoms: N4_17  and  C13_18 
ROOT
HETATM    1  C1  UNL     1      21.917   0.983  48.953  1.00  0.00     0.044 C 
HETATM    2  C2  UNL     1      21.986   2.252  49.717  1.00  0.00    -0.067 C 
HETATM    3  C3  UNL     1      23.166   2.743  49.399  1.00  0.00     0.073 C 
HETATM    4  C4  UNL     1      24.145   3.856  49.543  1.00  0.00     0.312 A 
HETATM    5  O1  UNL     1      24.900   4.822  49.691  1.00  0.00    -0.121 OA
HETATM    6  N1  UNL     1      23.575   5.141  49.923  1.00  0.00     0.127 N 
HETATM    7  C5  UNL     1      23.012   6.440  50.307  1.00  0.00     0.241 C 
HETATM    8  C6  UNL     1      21.725   6.375  50.772  1.00  0.00     0.009 C 
HETATM    9  C7  UNL     1      20.792   5.311  50.979  1.00  0.00     0.116 C 
HETATM   10  C8  UNL     1      20.528   3.979  50.948  1.00  0.00     0.058 A 
HETATM   11  N2  UNL     1      19.174   4.082  51.367  1.00  0.00    -0.293 NA
HETATM   12  C9  UNL     1      18.357   3.127  51.631  1.00  0.00     0.135 A 
HETATM   13  C10 UNL     1      18.806   1.753  51.511  1.00  0.00     0.085 A 
HETATM   14  C11 UNL     1      17.916   0.672  51.775  1.00  0.00     0.103 C 
HETATM   15  N3  UNL     1      17.174  -0.215  51.988  1.00  0.00    -0.191 NA
HETATM   16  C12 UNL     1      20.046   1.586  51.128  1.00  0.00     0.042 A 
HETATM   17  C19 UNL     1      21.023   2.607  50.760  1.00  0.00     0.091 A 
HETATM   18  H5  UNL     1      22.618   4.945  49.484  1.00  0.00     0.334 HD
ENDROOT
BRANCH  16  19
HETATM   19  N4  UNL     1      20.497   0.257  51.023  1.00  0.00    -0.358 N 
HETATM   20  H10 UNL     1      20.668  -0.679  50.639  1.00  0.00     0.166 HD
BRANCH  19  21
HETATM   21  C13 UNL     1      21.199  -0.126  52.216  1.00  0.00     0.033 A 
HETATM   22  C14 UNL     1      20.625  -0.547  53.386  1.00  0.00     0.029 A 
HETATM   23  C15 UNL     1      21.168  -0.938  54.583  1.00  0.00     0.004 A 
HETATM   24  C16 UNL     1      22.573  -0.892  54.579  1.00  0.00     0.019 A 
HETATM   25  C17 UNL     1      23.288  -0.489  53.469  1.00  0.00     0.013 A 
HETATM   26 BR1  UNL     1      25.193  -0.454  53.531  1.00  0.00    -0.051 Br
HETATM   27  C18 UNL     1      22.584  -0.121  52.333  1.00  0.00     0.048 A 
ENDBRANCH  19  21
ENDBRANCH  16  19
TORSDOF 2
ENDMDL
MODEL 9
REMARK VINA RESULT:      -7.2      7.201     10.670
REMARK  2 active torsions:
REMARK  status: ('A' for Active; 'I' for Inactive)
REMARK    1  A    between atoms: C12_16  and  N4_17 
REMARK    2  A    between atoms: N4_17  and  C13_18 
ROOT
HETATM    1  C1  UNL     1      29.956   8.119  45.141  1.00  0.00     0.044 C 
HETATM    2  C2  UNL     1      30.924   7.634  46.155  1.00  0.00    -0.067 C 
HETATM    3  C3  UNL     1      31.684   6.794  45.483  1.00  0.00     0.073 C 
HETATM    4  C4  UNL     1      32.851   5.868  45.495  1.00  0.00     0.312 A 
HETATM    5  O1  UNL     1      33.840   5.134  45.571  1.00  0.00    -0.121 OA
HETATM    6  N1  UNL     1      33.840   6.128  46.531  1.00  0.00     0.127 N 
HETATM    7  C5  UNL     1      34.843   6.380  47.572  1.00  0.00     0.241 C 
HETATM    8  C6  UNL     1      34.418   7.225  48.563  1.00  0.00     0.009 C 
HETATM    9  C7  UNL     1      33.198   7.925  48.823  1.00  0.00     0.116 C 
HETATM   10  C8  UNL     1      31.915   8.188  48.464  1.00  0.00     0.058 A 
HETATM   11  N2  UNL     1      31.650   9.112  49.512  1.00  0.00    -0.293 NA
HETATM   12  C9  UNL     1      30.534   9.681  49.796  1.00  0.00     0.135 A 
HETATM   13  C10 UNL     1      29.362   9.387  48.995  1.00  0.00     0.085 A 
HETATM   14  C11 UNL     1      28.116  10.019  49.272  1.00  0.00     0.103 C 
HETATM   15  N3  UNL     1      27.092  10.551  49.502  1.00  0.00    -0.191 NA
HETATM   16  C12 UNL     1      29.536   8.542  48.011  1.00  0.00     0.042 A 
HETATM   17  C19 UNL     1      30.773   7.891  47.587  1.00  0.00     0.091 A 
HETATM   18  H5  UNL     1      33.626   7.175  46.596  1.00  0.00     0.334 HD
ENDROOT
BRANCH  16  19
HETATM   19  N4  UNL     1      28.400   8.237  47.237  1.00  0.00    -0.358 N 
HETATM   20  H10 UNL     1      27.700   8.281  46.489  1.00  0.00     0.166 HD
BRANCH  19  21
HETATM   21  C13 UNL     1      27.682   7.139  47.818  1.00  0.00     0.033 A 
HETATM   22  C14 UNL     1      28.217   5.933  48.185  1.00  0.00     0.029 A 
HETATM   23  C15 UNL     1      27.655   4.814  48.743  1.00  0.00     0.004 A 
HETATM   24  C16 UNL     1      26.276   4.959  48.973  1.00  0.00     0.019 A 
HETATM   25  C17 UNL     1      25.600   6.121  48.654  1.00  0.00     0.013 A 
HETATM   26 BR1  UNL     1      23.730   6.253  48.996  1.00  0.00    -0.051 Br
HETATM   27  C18 UNL     1      26.319   7.164  48.091  1.00  0.00     0.048 A 
ENDBRANCH  19  21
ENDBRANCH  16  19
TORSDOF 2
ENDMDL
