MODEL 1
REMARK VINA RESULT:      -9.7      0.000      0.000
REMARK  3 active torsions:
REMARK  status: ('A' for Active; 'I' for Inactive)
REMARK    1  A    between atoms: O1_1  and  C1_2 
REMARK    2  A    between atoms: C9_10  and  N1_11 
REMARK    3  A    between atoms: N1_11  and  C10_12 
ROOT
HETATM    1  C1  UNL     1      21.662  -0.620  53.365  1.00  0.00     0.066 A 
HETATM    2  C2  UNL     1      20.445   0.028  53.361  1.00  0.00     0.037 A 
HETATM    3  C3  UNL     1      20.315   1.365  53.051  1.00  0.00     0.012 A 
HETATM    4  C4  UNL     1      21.398   2.142  52.722  1.00  0.00    -0.020 A 
HETATM    5  C5  UNL     1      22.672   1.627  52.687  1.00  0.00    -0.025 A 
HETATM    6  C6  UNL     1      22.716   0.250  53.018  1.00  0.00     0.048 A 
HETATM    7  C7  UNL     1      24.024   2.022  52.421  1.00  0.00     0.029 C 
HETATM    8  C8  UNL     1      24.817   2.471  51.489  1.00  0.00     0.036 A 
HETATM    9  C9  UNL     1      26.134   2.738  51.618  1.00  0.00     0.141 A 
HETATM   10  N2  UNL     1      26.916   3.226  50.675  1.00  0.00    -0.224 NA
HETATM   11  C16 UNL     1      26.474   3.513  49.463  1.00  0.00     0.235 A 
HETATM   12  N3  UNL     1      25.160   3.275  49.250  1.00  0.00    -0.245 NA
HETATM   13  C17 UNL     1      24.343   2.778  50.199  1.00  0.00     0.054 A 
HETATM   14  C18 UNL     1      23.238   2.813  49.478  1.00  0.00     0.050 C 
HETATM   15  C19 UNL     1      21.860   2.740  48.961  1.00  0.00     0.041 C 
HETATM   16  C20 UNL     1      20.973   2.686  50.226  1.00  0.00     0.270 C 
HETATM   17  N4  UNL     1      21.471   3.845  51.027  1.00  0.00     0.087 N 
HETATM   18  C21 UNL     1      20.968   3.553  52.366  1.00  0.00     0.309 C 
HETATM   19  H17 UNL     1      20.980   4.708  50.739  1.00  0.00     0.316 HD
ENDROOT
BRANCH   9  20
HETATM   20  N1  UNL     1      26.718   2.484  52.891  1.00  0.00    -0.340 N 
HETATM   21  H6  UNL     1      26.691   2.930  53.818  1.00  0.00     0.167 HD
BRANCH  20  22
HETATM   22  C10 UNL     1      27.570   1.363  53.090  1.00  0.00     0.035 A 
HETATM   23  C11 UNL     1      28.875   1.433  53.599  1.00  0.00     0.029 A 
HETATM   24  C12 UNL     1      29.712   0.366  53.812  1.00  0.00     0.004 A 
HETATM   25  C13 UNL     1      29.264  -0.885  53.512  1.00  0.00     0.024 A 
HETATM   26  C14 UNL     1      27.992  -1.043  53.006  1.00  0.00     0.036 A 
HETATM   27 CL1  UNL     1      27.500  -2.683  52.649  1.00  0.00    -0.084 Cl
HETATM   28  C15 UNL     1      27.214   0.054  52.820  1.00  0.00     0.053 A 
ENDBRANCH  20  22
ENDBRANCH   9  20
BRANCH   1  29
HETATM   29  O1  UNL     1      21.763  -1.958  53.678  1.00  0.00    -0.361 OA
HETATM   30  H1  UNL     1      21.030  -2.453  54.193  1.00  0.00     0.217 HD
ENDBRANCH   1  29
TORSDOF 3
ENDMDL
MODEL 2
REMARK VINA RESULT:      -9.1      2.692      4.533
REMARK  3 active torsions:
REMARK  status: ('A' for Active; 'I' for Inactive)
REMARK    1  A    between atoms: O1_1  and  C1_2 
REMARK    2  A    between atoms: C9_10  and  N1_11 
REMARK    3  A    between atoms: N1_11  and  C10_12 
ROOT
HETATM    1  C1  UNL     1      25.404   5.633  49.806  1.00  0.00     0.066 A 
HETATM    2  C2  UNL     1      24.452   5.937  48.856  1.00  0.00     0.037 A 
HETATM    3  C3  UNL     1      23.443   5.065  48.509  1.00  0.00     0.012 A 
HETATM    4  C4  UNL     1      23.318   3.829  49.093  1.00  0.00    -0.020 A 
HETATM    5  C5  UNL     1      24.198   3.394  50.056  1.00  0.00    -0.025 A 
HETATM    6  C6  UNL     1      25.202   4.349  50.352  1.00  0.00     0.048 A 
HETATM    7  C7  UNL     1      24.458   2.261  50.895  1.00  0.00     0.029 C 
HETATM    8  C8  UNL     1      23.965   1.545  51.865  1.00  0.00     0.036 A 
HETATM    9  C9  UNL     1      24.546   0.474  52.445  1.00  0.00     0.141 A 
HETATM   10  N2  UNL     1      24.018  -0.263  53.403  1.00  0.00    -0.224 NA
HETATM   11  C16 UNL     1      22.823  -0.018  53.912  1.00  0.00     0.235 A 
HETATM   12  N3  UNL     1      22.171   1.042  53.383  1.00  0.00    -0.245 NA
HETATM   13  C17 UNL     1      22.690   1.807  52.404  1.00  0.00     0.054 A 
HETATM   14  C18 UNL     1      21.644   2.599  52.263  1.00  0.00     0.050 C 
HETATM   15  C19 UNL     1      20.663   3.621  51.854  1.00  0.00     0.041 C 
HETATM   16  C20 UNL     1      21.119   4.054  50.443  1.00  0.00     0.270 C 
HETATM   17  N4  UNL     1      21.266   2.750  49.729  1.00  0.00     0.087 N 
HETATM   18  C21 UNL     1      22.090   3.103  48.576  1.00  0.00     0.309 C 
HETATM   19  H17 UNL     1      20.356   2.463  49.330  1.00  0.00     0.316 HD
ENDROOT
BRANCH   9  20
HETATM   20  N1  UNL     1      25.833   0.103  51.964  1.00  0.00    -0.340 N 
HETATM   21  H6  UNL     1      26.196  -0.423  51.158  1.00  0.00     0.167 HD
BRANCH  20  22
HETATM   22  C10 UNL     1      27.010   0.493  52.661  1.00  0.00     0.035 A 
HETATM   23  C11 UNL     1      27.290   1.799  53.088  1.00  0.00     0.029 A 
HETATM   24  C12 UNL     1      28.411   2.197  53.771  1.00  0.00     0.004 A 
HETATM   25  C13 UNL     1      29.355   1.264  54.077  1.00  0.00     0.024 A 
HETATM   26  C14 UNL     1      29.159  -0.045  53.694  1.00  0.00     0.036 A 
HETATM   27 CL1  UNL     1      30.422  -1.176  54.127  1.00  0.00    -0.084 Cl
HETATM   28  C15 UNL     1      28.027  -0.373  53.020  1.00  0.00     0.053 A 
ENDBRANCH  20  22
ENDBRANCH   9  20
BRANCH   1  29
HETATM   29  O1  UNL     1      26.402   6.524  50.134  1.00  0.00    -0.361 OA
HETATM   30  H1  UNL     1      26.595   6.795  51.101  1.00  0.00     0.217 HD
ENDBRANCH   1  29
TORSDOF 3
ENDMDL
MODEL 3
REMARK VINA RESULT:      -9.0      3.409      7.024
REMARK  3 active torsions:
REMARK  status: ('A' for Active; 'I' for Inactive)
REMARK    1  A    between atoms: O1_1  and  C1_2 
REMARK    2  A    between atoms: C9_10  and  N1_11 
REMARK    3  A    between atoms: N1_11  and  C10_12 
ROOT
HETATM    1  C1  UNL     1      22.245   1.915  48.875  1.00  0.00     0.066 A 
HETATM    2  C2  UNL     1      23.257   2.838  48.712  1.00  0.00     0.037 A 
HETATM    3  C3  UNL     1      24.022   3.295  49.763  1.00  0.00     0.012 A 
HETATM    4  C4  UNL     1      23.826   2.858  51.049  1.00  0.00    -0.020 A 
HETATM    5  C5  UNL     1      22.851   1.939  51.358  1.00  0.00    -0.025 A 
HETATM    6  C6  UNL     1      22.112   1.523  50.223  1.00  0.00     0.048 A 
HETATM    7  C7  UNL     1      22.304   1.232  52.478  1.00  0.00     0.029 C 
HETATM    8  C8  UNL     1      22.588   0.356  53.400  1.00  0.00     0.036 A 
HETATM    9  C9  UNL     1      21.750  -0.106  54.351  1.00  0.00     0.141 A 
HETATM   10  N2  UNL     1      22.062  -0.966  55.300  1.00  0.00    -0.224 NA
HETATM   11  C16 UNL     1      23.273  -1.483  55.421  1.00  0.00     0.235 A 
HETATM   12  N3  UNL     1      24.177  -1.070  54.504  1.00  0.00    -0.245 NA
HETATM   13  C17 UNL     1      23.880  -0.191  53.527  1.00  0.00     0.054 A 
HETATM   14  C18 UNL     1      25.092  -0.127  53.010  1.00  0.00     0.050 C 
HETATM   15  C19 UNL     1      26.303   0.176  52.226  1.00  0.00     0.041 C 
HETATM   16  C20 UNL     1      25.990   1.522  51.534  1.00  0.00     0.270 C 
HETATM   17  N4  UNL     1      25.534   2.378  52.671  1.00  0.00     0.087 N 
HETATM   18  C21 UNL     1      24.842   3.471  51.994  1.00  0.00     0.309 C 
HETATM   19  H17 UNL     1      26.350   2.820  53.128  1.00  0.00     0.316 HD
ENDROOT
BRANCH   9  20
HETATM   20  N1  UNL     1      20.418   0.397  54.332  1.00  0.00    -0.340 N 
HETATM   21  H6  UNL     1      19.923   1.193  54.756  1.00  0.00     0.167 HD
BRANCH  20  22
HETATM   22  C10 UNL     1      19.406  -0.252  53.572  1.00  0.00     0.035 A 
HETATM   23  C11 UNL     1      18.884   0.228  52.363  1.00  0.00     0.029 A 
HETATM   24  C12 UNL     1      17.918  -0.385  51.606  1.00  0.00     0.004 A 
HETATM   25  C13 UNL     1      17.399  -1.567  52.041  1.00  0.00     0.024 A 
HETATM   26  C14 UNL     1      17.857  -2.110  53.222  1.00  0.00     0.036 A 
HETATM   27 CL1  UNL     1      17.136  -3.629  53.706  1.00  0.00    -0.084 Cl
HETATM   28  C15 UNL     1      18.816  -1.453  53.923  1.00  0.00     0.053 A 
ENDBRANCH  20  22
ENDBRANCH   9  20
BRANCH   1  29
HETATM   29  O1  UNL     1      21.495   1.475  47.807  1.00  0.00    -0.361 OA
HETATM   30  H1  UNL     1      21.560   0.517  47.454  1.00  0.00     0.217 HD
ENDBRANCH   1  29
TORSDOF 3
ENDMDL
MODEL 4
REMARK VINA RESULT:      -8.9      3.421      5.266
REMARK  3 active torsions:
REMARK  status: ('A' for Active; 'I' for Inactive)
REMARK    1  A    between atoms: O1_1  and  C1_2 
REMARK    2  A    between atoms: C9_10  and  N1_11 
REMARK    3  A    between atoms: N1_11  and  C10_12 
ROOT
HETATM    1  C1  UNL     1      25.898   0.059  52.479  1.00  0.00     0.066 A 
HETATM    2  C2  UNL     1      24.926  -0.498  53.284  1.00  0.00     0.037 A 
HETATM    3  C3  UNL     1      23.661   0.036  53.400  1.00  0.00     0.012 A 
HETATM    4  C4  UNL     1      23.283   1.164  52.716  1.00  0.00    -0.020 A 
HETATM    5  C5  UNL     1      24.150   1.825  51.878  1.00  0.00    -0.025 A 
HETATM    6  C6  UNL     1      25.426   1.211  51.817  1.00  0.00     0.048 A 
HETATM    7  C7  UNL     1      24.209   2.966  51.013  1.00  0.00     0.029 C 
HETATM    8  C8  UNL     1      23.704   3.480  49.927  1.00  0.00     0.036 A 
HETATM    9  C9  UNL     1      24.037   4.664  49.372  1.00  0.00     0.141 A 
HETATM   10  N2  UNL     1      23.493   5.188  48.291  1.00  0.00    -0.224 NA
HETATM   11  C16 UNL     1      22.530   4.583  47.616  1.00  0.00     0.235 A 
HETATM   12  N3  UNL     1      22.136   3.387  48.108  1.00  0.00    -0.245 NA
HETATM   13  C17 UNL     1      22.677   2.834  49.210  1.00  0.00     0.054 A 
HETATM   14  C18 UNL     1      21.903   1.767  49.239  1.00  0.00     0.050 C 
HETATM   15  C19 UNL     1      21.209   0.506  49.557  1.00  0.00     0.041 C 
HETATM   16  C20 UNL     1      21.519   0.259  51.051  1.00  0.00     0.270 C 
HETATM   17  N4  UNL     1      21.149   1.561  51.683  1.00  0.00     0.087 N 
HETATM   18  C21 UNL     1      21.826   1.497  52.975  1.00  0.00     0.309 C 
HETATM   19  H17 UNL     1      20.140   1.568  51.910  1.00  0.00     0.316 HD
ENDROOT
BRANCH   9  20
HETATM   20  N1  UNL     1      25.054   5.416  50.025  1.00  0.00    -0.340 N 
HETATM   21  H6  UNL     1      25.178   5.837  50.956  1.00  0.00     0.167 HD
BRANCH  20  22
HETATM   22  C10 UNL     1      26.267   5.736  49.355  1.00  0.00     0.035 A 
HETATM   23  C11 UNL     1      27.239   4.799  48.974  1.00  0.00     0.029 A 
HETATM   24  C12 UNL     1      28.411   5.082  48.317  1.00  0.00     0.004 A 
HETATM   25  C13 UNL     1      28.682   6.376  47.992  1.00  0.00     0.024 A 
HETATM   26  C14 UNL     1      27.778   7.360  48.330  1.00  0.00     0.036 A 
HETATM   27 CL1  UNL     1      28.206   8.994  47.874  1.00  0.00    -0.084 Cl
HETATM   28  C15 UNL     1      26.637   7.014  48.979  1.00  0.00     0.053 A 
ENDBRANCH  20  22
ENDBRANCH   9  20
BRANCH   1  29
HETATM   29  O1  UNL     1      27.155  -0.495  52.381  1.00  0.00    -0.361 OA
HETATM   30  H1  UNL     1      27.517  -1.148  53.080  1.00  0.00     0.217 HD
ENDBRANCH   1  29
TORSDOF 3
ENDMDL
MODEL 5
REMARK VINA RESULT:      -8.7      4.990      8.137
REMARK  3 active torsions:
REMARK  status: ('A' for Active; 'I' for Inactive)
REMARK    1  A    between atoms: O1_1  and  C1_2 
REMARK    2  A    between atoms: C9_10  and  N1_11 
REMARK    3  A    between atoms: N1_11  and  C10_12 
ROOT
HETATM    1  C1  UNL     1      31.040   5.540  48.337  1.00  0.00     0.066 A 
HETATM    2  C2  UNL     1      31.432   6.462  47.389  1.00  0.00     0.037 A 
HETATM    3  C3  UNL     1      30.540   7.292  46.746  1.00  0.00     0.012 A 
HETATM    4  C4  UNL     1      29.193   7.256  47.011  1.00  0.00    -0.020 A 
HETATM    5  C5  UNL     1      28.662   6.384  47.933  1.00  0.00    -0.025 A 
HETATM    6  C6  UNL     1      29.646   5.569  48.545  1.00  0.00     0.048 A 
HETATM    7  C7  UNL     1      27.406   6.004  48.508  1.00  0.00     0.029 C 
HETATM    8  C8  UNL     1      26.412   6.440  49.229  1.00  0.00     0.036 A 
HETATM    9  C9  UNL     1      25.324   5.735  49.602  1.00  0.00     0.141 A 
HETATM   10  N2  UNL     1      24.308   6.201  50.302  1.00  0.00    -0.224 NA
HETATM   11  C16 UNL     1      24.251   7.452  50.726  1.00  0.00     0.235 A 
HETATM   12  N3  UNL     1      25.307   8.229  50.393  1.00  0.00    -0.245 NA
HETATM   13  C17 UNL     1      26.354   7.774  49.678  1.00  0.00     0.054 A 
HETATM   14  C18 UNL     1      27.003   8.921  49.616  1.00  0.00     0.050 C 
HETATM   15  C19 UNL     1      27.946  10.024  49.356  1.00  0.00     0.041 C 
HETATM   16  C20 UNL     1      28.772   9.548  48.139  1.00  0.00     0.270 C 
HETATM   17  N4  UNL     1      27.716   9.146  47.161  1.00  0.00     0.087 N 
HETATM   18  C21 UNL     1      28.452   8.313  46.214  1.00  0.00     0.309 C 
HETATM   19  H17 UNL     1      27.412   9.969  46.613  1.00  0.00     0.316 HD
ENDROOT
BRANCH   9  20
HETATM   20  N1  UNL     1      25.266   4.375  49.185  1.00  0.00    -0.340 N 
HETATM   21  H6  UNL     1      25.175   3.882  48.286  1.00  0.00     0.167 HD
BRANCH  20  22
HETATM   22  C10 UNL     1      25.350   3.319  50.133  1.00  0.00     0.035 A 
HETATM   23  C11 UNL     1      26.545   2.843  50.693  1.00  0.00     0.029 A 
HETATM   24  C12 UNL     1      26.652   1.835  51.618  1.00  0.00     0.004 A 
HETATM   25  C13 UNL     1      25.515   1.222  52.050  1.00  0.00     0.024 A 
HETATM   26  C14 UNL     1      24.297   1.629  51.550  1.00  0.00     0.036 A 
HETATM   27 CL1  UNL     1      22.890   0.787  52.160  1.00  0.00    -0.084 Cl
HETATM   28  C15 UNL     1      24.261   2.633  50.637  1.00  0.00     0.053 A 
ENDBRANCH  20  22
ENDBRANCH   9  20
BRANCH   1  29
HETATM   29  O1  UNL     1      31.954   4.722  48.964  1.00  0.00    -0.361 OA
HETATM   30  H1  UNL     1      32.646   4.179  48.443  1.00  0.00     0.217 HD
ENDBRANCH   1  29
TORSDOF 3
ENDMDL
MODEL 6
REMARK VINA RESULT:      -8.6      2.608      4.091
REMARK  3 active torsions:
REMARK  status: ('A' for Active; 'I' for Inactive)
REMARK    1  A    between atoms: O1_1  and  C1_2 
REMARK    2  A    between atoms: C9_10  and  N1_11 
REMARK    3  A    between atoms: N1_11  and  C10_12 
ROOT
HETATM    1  C1  UNL     1      22.037   5.723  50.707  1.00  0.00     0.066 A 
HETATM    2  C2  UNL     1      21.477   5.520  49.463  1.00  0.00     0.037 A 
HETATM    3  C3  UNL     1      21.563   4.316  48.797  1.00  0.00     0.012 A 
HETATM    4  C4  UNL     1      22.216   3.234  49.334  1.00  0.00    -0.020 A 
HETATM    5  C5  UNL     1      22.822   3.296  50.566  1.00  0.00    -0.025 A 
HETATM    6  C6  UNL     1      22.686   4.565  51.180  1.00  0.00     0.048 A 
HETATM    7  C7  UNL     1      23.573   2.484  51.478  1.00  0.00     0.029 C 
HETATM    8  C8  UNL     1      23.510   1.415  52.221  1.00  0.00     0.036 A 
HETATM    9  C9  UNL     1      24.492   0.928  53.008  1.00  0.00     0.141 A 
HETATM   10  N2  UNL     1      24.425  -0.175  53.728  1.00  0.00    -0.224 NA
HETATM   11  C16 UNL     1      23.350  -0.944  53.752  1.00  0.00     0.235 A 
HETATM   12  N3  UNL     1      22.318  -0.526  52.986  1.00  0.00    -0.245 NA
HETATM   13  C17 UNL     1      22.364   0.597  52.243  1.00  0.00     0.054 A 
HETATM   14  C18 UNL     1      21.168   0.467  51.701  1.00  0.00     0.050 C 
HETATM   15  C19 UNL     1      19.921   0.605  50.927  1.00  0.00     0.041 C 
HETATM   16  C20 UNL     1      20.287   1.562  49.770  1.00  0.00     0.270 C 
HETATM   17  N4  UNL     1      21.520   0.937  49.203  1.00  0.00     0.087 N 
HETATM   18  C21 UNL     1      22.106   2.025  48.424  1.00  0.00     0.309 C 
HETATM   19  H17 UNL     1      21.261   0.218  48.505  1.00  0.00     0.316 HD
ENDROOT
BRANCH   9  20
HETATM   20  N1  UNL     1      25.708   1.667  53.048  1.00  0.00    -0.340 N 
HETATM   21  H6  UNL     1      25.974   2.657  52.959  1.00  0.00     0.167 HD
BRANCH  20  22
HETATM   22  C10 UNL     1      26.951   1.011  53.266  1.00  0.00     0.035 A 
HETATM   23  C11 UNL     1      28.107   1.634  53.759  1.00  0.00     0.029 A 
HETATM   24  C12 UNL     1      29.313   1.021  53.989  1.00  0.00     0.004 A 
HETATM   25  C13 UNL     1      29.430  -0.310  53.727  1.00  0.00     0.024 A 
HETATM   26  C14 UNL     1      28.340  -1.000  53.240  1.00  0.00     0.036 A 
HETATM   27 CL1  UNL     1      28.579  -2.705  52.931  1.00  0.00    -0.084 Cl
HETATM   28  C15 UNL     1      27.175  -0.334  53.034  1.00  0.00     0.053 A 
ENDBRANCH  20  22
ENDBRANCH   9  20
BRANCH   1  29
HETATM   29  O1  UNL     1      21.935   6.937  51.350  1.00  0.00    -0.361 OA
HETATM   30  H1  UNL     1      22.574   7.211  52.101  1.00  0.00     0.217 HD
ENDBRANCH   1  29
TORSDOF 3
ENDMDL
MODEL 7
REMARK VINA RESULT:      -8.5      5.938      9.395
REMARK  3 active torsions:
REMARK  status: ('A' for Active; 'I' for Inactive)
REMARK    1  A    between atoms: O1_1  and  C1_2 
REMARK    2  A    between atoms: C9_10  and  N1_11 
REMARK    3  A    between atoms: N1_11  and  C10_12 
ROOT
HETATM    1  C1  UNL     1      31.792   5.078  47.937  1.00  0.00     0.066 A 
HETATM    2  C2  UNL     1      32.551   5.825  47.058  1.00  0.00     0.037 A 
HETATM    3  C3  UNL     1      32.067   6.954  46.434  1.00  0.00     0.012 A 
HETATM    4  C4  UNL     1      30.791   7.412  46.647  1.00  0.00    -0.020 A 
HETATM    5  C5  UNL     1      29.924   6.766  47.496  1.00  0.00    -0.025 A 
HETATM    6  C6  UNL     1      30.500   5.618  48.096  1.00  0.00     0.048 A 
HETATM    7  C7  UNL     1      28.587   6.858  48.003  1.00  0.00     0.029 C 
HETATM    8  C8  UNL     1      27.787   7.605  48.711  1.00  0.00     0.036 A 
HETATM    9  C9  UNL     1      26.496   7.343  49.003  1.00  0.00     0.141 A 
HETATM   10  N2  UNL     1      25.689   8.126  49.692  1.00  0.00    -0.224 NA
HETATM   11  C16 UNL     1      26.077   9.289  50.186  1.00  0.00     0.235 A 
HETATM   12  N3  UNL     1      27.362   9.628  49.936  1.00  0.00    -0.245 NA
HETATM   13  C17 UNL     1      28.203   8.845  49.235  1.00  0.00     0.054 A 
HETATM   14  C18 UNL     1      29.234   9.668  49.263  1.00  0.00     0.050 C 
HETATM   15  C19 UNL     1      30.532  10.348  49.102  1.00  0.00     0.041 C 
HETATM   16  C20 UNL     1      31.188   9.649  47.890  1.00  0.00     0.270 C 
HETATM   17  N4  UNL     1      30.115   9.710  46.853  1.00  0.00     0.087 N 
HETATM   18  C21 UNL     1      30.541   8.701  45.887  1.00  0.00     0.309 C 
HETATM   19  H17 UNL     1      30.168  10.608  46.343  1.00  0.00     0.316 HD
ENDROOT
BRANCH   9  20
HETATM   20  N1  UNL     1      25.961   6.122  48.506  1.00  0.00    -0.340 N 
HETATM   21  H6  UNL     1      25.622   5.780  47.596  1.00  0.00     0.167 HD
BRANCH  20  22
HETATM   22  C10 UNL     1      25.803   4.995  49.359  1.00  0.00     0.035 A 
HETATM   23  C11 UNL     1      26.673   3.896  49.400  1.00  0.00     0.029 A 
HETATM   24  C12 UNL     1      26.549   2.805  50.223  1.00  0.00     0.004 A 
HETATM   25  C13 UNL     1      25.498   2.754  51.088  1.00  0.00     0.024 A 
HETATM   26  C14 UNL     1      24.594   3.795  51.112  1.00  0.00     0.036 A 
HETATM   27 CL1  UNL     1      23.275   3.648  52.252  1.00  0.00    -0.084 Cl
HETATM   28  C15 UNL     1      24.775   4.846  50.272  1.00  0.00     0.053 A 
ENDBRANCH  20  22
ENDBRANCH   9  20
BRANCH   1  29
HETATM   29  O1  UNL     1      32.301   3.954  48.548  1.00  0.00    -0.361 OA
HETATM   30  H1  UNL     1      32.482   3.088  48.033  1.00  0.00     0.217 HD
ENDBRANCH   1  29
TORSDOF 3
ENDMDL
MODEL 8
REMARK VINA RESULT:      -8.5      1.686      2.199
REMARK  3 active torsions:
REMARK  status: ('A' for Active; 'I' for Inactive)
REMARK    1  A    between atoms: O1_1  and  C1_2 
REMARK    2  A    between atoms: C9_10  and  N1_11 
REMARK    3  A    between atoms: N1_11  and  C10_12 
ROOT
HETATM    1  C1  UNL     1      20.282   1.359  51.722  1.00  0.00     0.066 A 
HETATM    2  C2  UNL     1      19.377   2.395  51.625  1.00  0.00     0.037 A 
HETATM    3  C3  UNL     1      19.765   3.714  51.524  1.00  0.00     0.012 A 
HETATM    4  C4  UNL     1      21.087   4.083  51.513  1.00  0.00    -0.020 A 
HETATM    5  C5  UNL     1      22.097   3.154  51.604  1.00  0.00    -0.025 A 
HETATM    6  C6  UNL     1      21.612   1.826  51.703  1.00  0.00     0.048 A 
HETATM    7  C7  UNL     1      23.527   3.065  51.634  1.00  0.00     0.029 C 
HETATM    8  C8  UNL     1      24.603   3.291  50.933  1.00  0.00     0.036 A 
HETATM    9  C9  UNL     1      25.874   3.057  51.321  1.00  0.00     0.141 A 
HETATM   10  N2  UNL     1      26.955   3.324  50.614  1.00  0.00    -0.224 NA
HETATM   11  C16 UNL     1      26.901   3.868  49.410  1.00  0.00     0.235 A 
HETATM   12  N3  UNL     1      25.660   4.136  48.947  1.00  0.00    -0.245 NA
HETATM   13  C17 UNL     1      24.542   3.872  49.651  1.00  0.00     0.054 A 
HETATM   14  C18 UNL     1      23.691   4.369  48.774  1.00  0.00     0.050 C 
HETATM   15  C19 UNL     1      22.509   4.843  48.032  1.00  0.00     0.041 C 
HETATM   16  C20 UNL     1      21.407   4.984  49.106  1.00  0.00     0.270 C 
HETATM   17  N4  UNL     1      22.077   5.805  50.159  1.00  0.00     0.087 N 
HETATM   18  C21 UNL     1      21.233   5.582  51.330  1.00  0.00     0.309 C 
HETATM   19  H17 UNL     1      21.972   6.811  49.941  1.00  0.00     0.316 HD
ENDROOT
BRANCH   9  20
HETATM   20  N1  UNL     1      26.057   2.488  52.612  1.00  0.00    -0.340 N 
HETATM   21  H6  UNL     1      25.899   2.793  53.582  1.00  0.00     0.167 HD
BRANCH  20  22
HETATM   22  C10 UNL     1      26.570   1.170  52.761  1.00  0.00     0.035 A 
HETATM   23  C11 UNL     1      25.818  -0.002  52.596  1.00  0.00     0.029 A 
HETATM   24  C12 UNL     1      26.292  -1.284  52.722  1.00  0.00     0.004 A 
HETATM   25  C13 UNL     1      27.605  -1.467  53.034  1.00  0.00     0.024 A 
HETATM   26  C14 UNL     1      28.416  -0.366  53.213  1.00  0.00     0.036 A 
HETATM   27 CL1  UNL     1      30.087  -0.694  53.612  1.00  0.00    -0.084 Cl
HETATM   28  C15 UNL     1      27.884   0.875  53.074  1.00  0.00     0.053 A 
ENDBRANCH  20  22
ENDBRANCH   9  20
BRANCH   1  29
HETATM   29  O1  UNL     1      19.866   0.049  51.821  1.00  0.00    -0.361 OA
HETATM   30  H1  UNL     1      19.026  -0.217  52.340  1.00  0.00     0.217 HD
ENDBRANCH   1  29
TORSDOF 3
ENDMDL
MODEL 9
REMARK VINA RESULT:      -8.5      6.985     10.730
REMARK  3 active torsions:
REMARK  status: ('A' for Active; 'I' for Inactive)
REMARK    1  A    between atoms: O1_1  and  C1_2 
REMARK    2  A    between atoms: C9_10  and  N1_11 
REMARK    3  A    between atoms: N1_11  and  C10_12 
ROOT
HETATM    1  C1  UNL     1      33.161   2.897  47.667  1.00  0.00     0.066 A 
HETATM    2  C2  UNL     1      34.239   3.180  46.855  1.00  0.00     0.037 A 
HETATM    3  C3  UNL     1      34.359   4.369  46.168  1.00  0.00     0.012 A 
HETATM    4  C4  UNL     1      33.407   5.355  46.250  1.00  0.00    -0.020 A 
HETATM    5  C5  UNL     1      32.279   5.207  47.022  1.00  0.00    -0.025 A 
HETATM    6  C6  UNL     1      32.235   3.959  47.693  1.00  0.00     0.048 A 
HETATM    7  C7  UNL     1      31.087   5.909  47.395  1.00  0.00     0.029 C 
HETATM    8  C8  UNL     1      30.650   6.971  48.011  1.00  0.00     0.036 A 
HETATM    9  C9  UNL     1      29.358   7.323  48.181  1.00  0.00     0.141 A 
HETATM   10  N2  UNL     1      28.932   8.420  48.777  1.00  0.00    -0.224 NA
HETATM   11  C16 UNL     1      29.756   9.319  49.287  1.00  0.00     0.235 A 
HETATM   12  N3  UNL     1      31.073   9.041  49.157  1.00  0.00    -0.245 NA
HETATM   13  C17 UNL     1      31.531   7.928  48.553  1.00  0.00     0.054 A 
HETATM   14  C18 UNL     1      32.814   8.212  48.667  1.00  0.00     0.050 C 
HETATM   15  C19 UNL     1      34.287   8.239  48.621  1.00  0.00     0.041 C 
HETATM   16  C20 UNL     1      34.658   7.254  47.490  1.00  0.00     0.270 C 
HETATM   17  N4  UNL     1      33.810   7.723  46.353  1.00  0.00     0.087 N 
HETATM   18  C21 UNL     1      33.818   6.576  45.449  1.00  0.00     0.309 C 
HETATM   19  H17 UNL     1      34.298   8.474  45.837  1.00  0.00     0.316 HD
ENDROOT
BRANCH   9  20
HETATM   20  N1  UNL     1      28.377   6.437  47.654  1.00  0.00    -0.340 N 
HETATM   21  H6  UNL     1      28.135   6.073  46.723  1.00  0.00     0.167 HD
BRANCH  20  22
HETATM   22  C10 UNL     1      27.428   5.811  48.508  1.00  0.00     0.035 A 
HETATM   23  C11 UNL     1      27.432   4.449  48.844  1.00  0.00     0.029 A 
HETATM   24  C12 UNL     1      26.535   3.825  49.674  1.00  0.00     0.004 A 
HETATM   25  C13 UNL     1      25.542   4.566  50.239  1.00  0.00     0.024 A 
HETATM   26  C14 UNL     1      25.466   5.914  49.962  1.00  0.00     0.036 A 
HETATM   27 CL1  UNL     1      24.159   6.789  50.729  1.00  0.00    -0.084 Cl
HETATM   28  C15 UNL     1      26.384   6.470  49.132  1.00  0.00     0.053 A 
ENDBRANCH  20  22
ENDBRANCH   9  20
BRANCH   1  29
HETATM   29  O1  UNL     1      33.066   1.700  48.343  1.00  0.00    -0.361 OA
HETATM   30  H1  UNL     1      33.891   1.153  48.599  1.00  0.00     0.217 HD
ENDBRANCH   1  29
TORSDOF 3
ENDMDL
