MODEL 1
REMARK VINA RESULT:      -8.8      0.000      0.000
REMARK  4 active torsions:
REMARK  status: ('A' for Active; 'I' for Inactive)
REMARK    1  A    between atoms: C2_2  and  C3_3 
REMARK       I    between atoms: C3_3  and  N1_5 
REMARK    2  A    between atoms: N1_5  and  C4_6 
REMARK    3  A    between atoms: C9_13  and  C10_14 
REMARK    4  A    between atoms: C13_17  and  C14_18 
ROOT
HETATM    1  C4  UNL     1      25.101   0.076  53.294  1.00  0.00     0.035 A 
HETATM    2  C5  UNL     1      24.219  -0.729  53.976  1.00  0.00     0.032 A 
HETATM    3  C6  UNL     1      22.856  -0.531  54.060  1.00  0.00     0.035 A 
HETATM    4  C7  UNL     1      22.323   0.561  53.409  1.00  0.00     0.070 A 
HETATM    5  N2  UNL     1      21.004   0.848  53.411  1.00  0.00    -0.241 NA
HETATM    6  C8  UNL     1      20.546   1.926  52.744  1.00  0.00     0.234 A 
HETATM    7  N3  UNL     1      21.397   2.734  52.066  1.00  0.00    -0.240 NA
HETATM    8  C9  UNL     1      22.721   2.490  52.035  1.00  0.00     0.081 A 
HETATM    9  C20 UNL     1      23.184   1.385  52.718  1.00  0.00     0.025 A 
HETATM   10  C21 UNL     1      24.522   1.150  52.661  1.00  0.00     0.045 A 
ENDROOT
BRANCH   8  11
HETATM   11  C10 UNL     1      23.480   3.458  51.264  1.00  0.00    -0.006 A 
HETATM   12  C11 UNL     1      23.618   4.751  51.752  1.00  0.00     0.014 A 
HETATM   13  C12 UNL     1      24.334   5.734  51.119  1.00  0.00     0.009 A 
HETATM   14  C13 UNL     1      24.974   5.464  49.917  1.00  0.00    -0.051 A 
HETATM   15  C18 UNL     1      24.866   4.173  49.384  1.00  0.00     0.009 A 
HETATM   16  C19 UNL     1      24.131   3.228  50.071  1.00  0.00     0.014 A 
BRANCH  14  17
HETATM   17  C14 UNL     1      25.784   6.392  49.098  1.00  0.00    -0.024 C 
HETATM   18  C15 UNL     1      27.059   5.801  48.598  1.00  0.00     0.019 C 
HETATM   19  C16 UNL     1      26.119   7.589  49.961  1.00  0.00     0.019 C 
HETATM   20  C17 UNL     1      24.930   6.900  47.958  1.00  0.00     0.019 C 
ENDBRANCH  14  17
ENDBRANCH   8  11
BRANCH   1  21
HETATM   21  N1  UNL     1      26.499  -0.113  53.200  1.00  0.00    -0.324 N 
HETATM   22  C3  UNL     1      27.535   0.191  54.113  1.00  0.00     0.244 C 
HETATM   23  O1  UNL     1      27.210   0.712  55.186  1.00  0.00    -0.268 OA
HETATM   24  H4  UNL     1      26.888  -0.550  52.321  1.00  0.00     0.169 HD
BRANCH  22  25
HETATM   25  C2  UNL     1      28.941  -0.078  53.854  1.00  0.00     0.064 C 
HETATM   26  C1  UNL     1      29.363  -1.257  53.438  1.00  0.00     0.017 C 
ENDBRANCH  22  25
ENDBRANCH   1  21
TORSDOF 4
ENDMDL
MODEL 2
REMARK VINA RESULT:      -8.3      2.082      3.612
REMARK  4 active torsions:
REMARK  status: ('A' for Active; 'I' for Inactive)
REMARK    1  A    between atoms: C2_2  and  C3_3 
REMARK       I    between atoms: C3_3  and  N1_5 
REMARK    2  A    between atoms: N1_5  and  C4_6 
REMARK    3  A    between atoms: C9_13  and  C10_14 
REMARK    4  A    between atoms: C13_17  and  C14_18 
ROOT
HETATM    1  C4  UNL     1      25.911   1.706  51.700  1.00  0.00     0.035 A 
HETATM    2  C5  UNL     1      24.693   1.132  51.979  1.00  0.00     0.032 A 
HETATM    3  C6  UNL     1      23.477   1.556  51.486  1.00  0.00     0.035 A 
HETATM    4  C7  UNL     1      23.469   2.646  50.642  1.00  0.00     0.070 A 
HETATM    5  N2  UNL     1      22.342   3.144  50.090  1.00  0.00    -0.241 NA
HETATM    6  C8  UNL     1      22.406   4.205  49.262  1.00  0.00     0.234 A 
HETATM    7  N3  UNL     1      23.596   4.788  48.974  1.00  0.00    -0.240 NA
HETATM    8  C9  UNL     1      24.747   4.329  49.501  1.00  0.00     0.081 A 
HETATM    9  C20 UNL     1      24.676   3.242  50.346  1.00  0.00     0.025 A 
HETATM   10  C21 UNL     1      25.852   2.787  50.855  1.00  0.00     0.045 A 
ENDROOT
BRANCH   8  11
HETATM   11  C10 UNL     1      25.922   5.074  49.086  1.00  0.00    -0.006 A 
HETATM   12  C11 UNL     1      27.122   4.398  48.906  1.00  0.00     0.014 A 
HETATM   13  C12 UNL     1      28.282   4.998  48.492  1.00  0.00     0.009 A 
HETATM   14  C13 UNL     1      28.304   6.360  48.224  1.00  0.00    -0.051 A 
HETATM   15  C18 UNL     1      27.118   7.087  48.389  1.00  0.00     0.009 A 
HETATM   16  C19 UNL     1      25.983   6.423  48.809  1.00  0.00     0.014 A 
BRANCH  14  17
HETATM   17  C14 UNL     1      29.455   7.172  47.773  1.00  0.00    -0.024 C 
HETATM   18  C15 UNL     1      29.832   8.262  48.718  1.00  0.00     0.019 C 
HETATM   19  C16 UNL     1      29.079   7.800  46.447  1.00  0.00     0.019 C 
HETATM   20  C17 UNL     1      30.622   6.250  47.504  1.00  0.00     0.019 C 
ENDBRANCH  14  17
ENDBRANCH   8  11
BRANCH   1  21
HETATM   21  N1  UNL     1      27.165   1.283  52.199  1.00  0.00    -0.324 N 
HETATM   22  C3  UNL     1      27.823   1.580  53.414  1.00  0.00     0.244 C 
HETATM   23  O1  UNL     1      27.243   2.336  54.203  1.00  0.00    -0.268 OA
HETATM   24  H4  UNL     1      27.748   0.635  51.603  1.00  0.00     0.169 HD
BRANCH  22  25
HETATM   25  C2  UNL     1      29.129   1.049  53.774  1.00  0.00     0.064 C 
HETATM   26  C1  UNL     1      29.307  -0.225  54.071  1.00  0.00     0.017 C 
ENDBRANCH  22  25
ENDBRANCH   1  21
TORSDOF 4
ENDMDL
MODEL 3
REMARK VINA RESULT:      -8.1      2.517      5.934
REMARK  4 active torsions:
REMARK  status: ('A' for Active; 'I' for Inactive)
REMARK    1  A    between atoms: C2_2  and  C3_3 
REMARK       I    between atoms: C3_3  and  N1_5 
REMARK    2  A    between atoms: N1_5  and  C4_6 
REMARK    3  A    between atoms: C9_13  and  C10_14 
REMARK    4  A    between atoms: C13_17  and  C14_18 
ROOT
HETATM    1  C4  UNL     1      26.109   2.538  52.183  1.00  0.00     0.035 A 
HETATM    2  C5  UNL     1      27.169   2.099  52.941  1.00  0.00     0.032 A 
HETATM    3  C6  UNL     1      27.127   1.066  53.853  1.00  0.00     0.035 A 
HETATM    4  C7  UNL     1      25.927   0.410  54.029  1.00  0.00     0.070 A 
HETATM    5  N2  UNL     1      25.769  -0.622  54.884  1.00  0.00    -0.241 NA
HETATM    6  C8  UNL     1      24.570  -1.227  54.999  1.00  0.00     0.234 A 
HETATM    7  N3  UNL     1      23.510  -0.810  54.264  1.00  0.00    -0.240 NA
HETATM    8  C9  UNL     1      23.618   0.216  53.398  1.00  0.00     0.081 A 
HETATM    9  C20 UNL     1      24.847   0.830  53.283  1.00  0.00     0.025 A 
HETATM   10  C21 UNL     1      24.936   1.854  52.392  1.00  0.00     0.045 A 
ENDROOT
BRANCH   8  11
HETATM   11  C10 UNL     1      22.384   0.526  52.698  1.00  0.00    -0.006 A 
HETATM   12  C11 UNL     1      21.368   1.184  53.379  1.00  0.00     0.014 A 
HETATM   13  C12 UNL     1      20.177   1.548  52.808  1.00  0.00     0.009 A 
HETATM   14  C13 UNL     1      19.929   1.261  51.473  1.00  0.00    -0.051 A 
HETATM   15  C18 UNL     1      20.924   0.599  50.742  1.00  0.00     0.009 A 
HETATM   16  C19 UNL     1      22.103   0.261  51.375  1.00  0.00     0.014 A 
BRANCH  14  17
HETATM   17  C14 UNL     1      18.711   1.573  50.694  1.00  0.00    -0.024 C 
HETATM   18  C15 UNL     1      17.790   2.531  51.372  1.00  0.00     0.019 C 
HETATM   19  C16 UNL     1      17.967   0.274  50.469  1.00  0.00     0.019 C 
HETATM   20  C17 UNL     1      19.125   2.082  49.332  1.00  0.00     0.019 C 
ENDBRANCH  14  17
ENDBRANCH   8  11
BRANCH   1  21
HETATM   21  N1  UNL     1      26.137   3.595  51.245  1.00  0.00    -0.324 N 
HETATM   22  C3  UNL     1      26.553   3.621  49.894  1.00  0.00     0.244 C 
HETATM   23  O1  UNL     1      26.974   2.564  49.410  1.00  0.00    -0.268 OA
HETATM   24  H4  UNL     1      25.800   4.548  51.553  1.00  0.00     0.169 HD
BRANCH  22  25
HETATM   25  C2  UNL     1      26.510   4.813  49.060  1.00  0.00     0.064 C 
HETATM   26  C1  UNL     1      27.601   5.339  48.537  1.00  0.00     0.017 C 
ENDBRANCH  22  25
ENDBRANCH   1  21
TORSDOF 4
ENDMDL
MODEL 4
REMARK VINA RESULT:      -8.0      2.216      4.842
REMARK  4 active torsions:
REMARK  status: ('A' for Active; 'I' for Inactive)
REMARK    1  A    between atoms: C2_2  and  C3_3 
REMARK       I    between atoms: C3_3  and  N1_5 
REMARK    2  A    between atoms: N1_5  and  C4_6 
REMARK    3  A    between atoms: C9_13  and  C10_14 
REMARK    4  A    between atoms: C13_17  and  C14_18 
ROOT
HETATM    1  C4  UNL     1      21.576  -0.336  53.254  1.00  0.00     0.035 A 
HETATM    2  C5  UNL     1      21.679  -1.300  54.229  1.00  0.00     0.032 A 
HETATM    3  C6  UNL     1      22.814  -1.580  54.960  1.00  0.00     0.035 A 
HETATM    4  C7  UNL     1      23.947  -0.836  54.701  1.00  0.00     0.070 A 
HETATM    5  N2  UNL     1      25.111  -1.012  55.361  1.00  0.00    -0.241 NA
HETATM    6  C8  UNL     1      26.178  -0.243  55.067  1.00  0.00     0.234 A 
HETATM    7  N3  UNL     1      26.099   0.713  54.108  1.00  0.00    -0.240 NA
HETATM    8  C9  UNL     1      24.960   0.926  53.422  1.00  0.00     0.081 A 
HETATM    9  C20 UNL     1      23.871   0.137  53.728  1.00  0.00     0.025 A 
HETATM   10  C21 UNL     1      22.728   0.379  53.033  1.00  0.00     0.045 A 
ENDROOT
BRANCH   8  11
HETATM   11  C10 UNL     1      25.058   1.986  52.435  1.00  0.00    -0.006 A 
HETATM   12  C11 UNL     1      24.267   3.118  52.579  1.00  0.00     0.014 A 
HETATM   13  C12 UNL     1      24.299   4.186  51.721  1.00  0.00     0.009 A 
HETATM   14  C13 UNL     1      25.158   4.178  50.631  1.00  0.00    -0.051 A 
HETATM   15  C18 UNL     1      25.978   3.058  50.443  1.00  0.00     0.009 A 
HETATM   16  C19 UNL     1      25.898   2.014  51.343  1.00  0.00     0.014 A 
BRANCH  14  17
HETATM   17  C14 UNL     1      25.327   5.232  49.607  1.00  0.00    -0.024 C 
HETATM   18  C15 UNL     1      26.606   5.135  48.847  1.00  0.00     0.019 C 
HETATM   19  C16 UNL     1      25.295   6.568  50.318  1.00  0.00     0.019 C 
HETATM   20  C17 UNL     1      24.133   5.201  48.680  1.00  0.00     0.019 C 
ENDBRANCH  14  17
ENDBRANCH   8  11
BRANCH   1  21
HETATM   21  N1  UNL     1      20.420  -0.039  52.495  1.00  0.00    -0.324 N 
HETATM   22  C3  UNL     1      19.682   1.161  52.368  1.00  0.00     0.244 C 
HETATM   23  O1  UNL     1      20.076   2.140  53.013  1.00  0.00    -0.268 OA
HETATM   24  H4  UNL     1      19.995  -0.806  51.907  1.00  0.00     0.169 HD
BRANCH  22  25
HETATM   25  C2  UNL     1      18.502   1.295  51.529  1.00  0.00     0.064 C 
HETATM   26  C1  UNL     1      18.167   0.378  50.641  1.00  0.00     0.017 C 
ENDBRANCH  22  25
ENDBRANCH   1  21
TORSDOF 4
ENDMDL
MODEL 5
REMARK VINA RESULT:      -7.6      3.772      6.300
REMARK  4 active torsions:
REMARK  status: ('A' for Active; 'I' for Inactive)
REMARK    1  A    between atoms: C2_2  and  C3_3 
REMARK       I    between atoms: C3_3  and  N1_5 
REMARK    2  A    between atoms: N1_5  and  C4_6 
REMARK    3  A    between atoms: C9_13  and  C10_14 
REMARK    4  A    between atoms: C13_17  and  C14_18 
ROOT
HETATM    1  C4  UNL     1      22.306   2.563  47.840  1.00  0.00     0.035 A 
HETATM    2  C5  UNL     1      21.571   1.677  48.593  1.00  0.00     0.032 A 
HETATM    3  C6  UNL     1      21.842   1.318  49.896  1.00  0.00     0.035 A 
HETATM    4  C7  UNL     1      22.939   1.888  50.507  1.00  0.00     0.070 A 
HETATM    5  N2  UNL     1      23.294   1.621  51.782  1.00  0.00    -0.241 NA
HETATM    6  C8  UNL     1      24.372   2.223  52.323  1.00  0.00     0.234 A 
HETATM    7  N3  UNL     1      25.113   3.098  51.599  1.00  0.00    -0.240 NA
HETATM    8  C9  UNL     1      24.799   3.396  50.324  1.00  0.00     0.081 A 
HETATM    9  C20 UNL     1      23.694   2.779  49.776  1.00  0.00     0.025 A 
HETATM   10  C21 UNL     1      23.388   3.105  48.492  1.00  0.00     0.045 A 
ENDROOT
BRANCH   8  11
HETATM   11  C10 UNL     1      25.701   4.349  49.704  1.00  0.00    -0.006 A 
HETATM   12  C11 UNL     1      25.345   5.692  49.668  1.00  0.00     0.014 A 
HETATM   13  C12 UNL     1      26.132   6.676  49.131  1.00  0.00     0.009 A 
HETATM   14  C13 UNL     1      27.366   6.358  48.580  1.00  0.00    -0.051 A 
HETATM   15  C18 UNL     1      27.771   5.017  48.593  1.00  0.00     0.009 A 
HETATM   16  C19 UNL     1      26.932   4.073  49.149  1.00  0.00     0.014 A 
BRANCH  14  17
HETATM   17  C14 UNL     1      28.342   7.281  47.960  1.00  0.00    -0.024 C 
HETATM   18  C15 UNL     1      27.880   7.871  46.671  1.00  0.00     0.019 C 
HETATM   19  C16 UNL     1      29.610   6.496  47.698  1.00  0.00     0.019 C 
HETATM   20  C17 UNL     1      28.693   8.357  48.962  1.00  0.00     0.019 C 
ENDBRANCH  14  17
ENDBRANCH   8  11
BRANCH   1  21
HETATM   21  N1  UNL     1      22.043   2.940  46.504  1.00  0.00    -0.324 N 
HETATM   22  C3  UNL     1      21.302   4.025  45.979  1.00  0.00     0.244 C 
HETATM   23  O1  UNL     1      20.777   4.797  46.789  1.00  0.00    -0.268 OA
HETATM   24  H4  UNL     1      22.442   2.347  45.727  1.00  0.00     0.169 HD
BRANCH  22  25
HETATM   25  C2  UNL     1      21.132   4.270  44.555  1.00  0.00     0.064 C 
HETATM   26  C1  UNL     1      20.140   3.737  43.867  1.00  0.00     0.017 C 
ENDBRANCH  22  25
ENDBRANCH   1  21
TORSDOF 4
ENDMDL
MODEL 6
REMARK VINA RESULT:      -7.6      7.063     11.065
REMARK  4 active torsions:
REMARK  status: ('A' for Active; 'I' for Inactive)
REMARK    1  A    between atoms: C2_2  and  C3_3 
REMARK       I    between atoms: C3_3  and  N1_5 
REMARK    2  A    between atoms: N1_5  and  C4_6 
REMARK    3  A    between atoms: C9_13  and  C10_14 
REMARK    4  A    between atoms: C13_17  and  C14_18 
ROOT
HETATM    1  C4  UNL     1      28.635   8.582  48.986  1.00  0.00     0.035 A 
HETATM    2  C5  UNL     1      28.276   9.899  49.149  1.00  0.00     0.032 A 
HETATM    3  C6  UNL     1      29.055  10.988  48.817  1.00  0.00     0.035 A 
HETATM    4  C7  UNL     1      30.299  10.748  48.274  1.00  0.00     0.070 A 
HETATM    5  N2  UNL     1      31.143  11.733  47.900  1.00  0.00    -0.241 NA
HETATM    6  C8  UNL     1      32.342  11.429  47.363  1.00  0.00     0.234 A 
HETATM    7  N3  UNL     1      32.718  10.137  47.195  1.00  0.00    -0.240 NA
HETATM    8  C9  UNL     1      31.912   9.120  47.553  1.00  0.00     0.081 A 
HETATM    9  C20 UNL     1      30.686   9.436  48.100  1.00  0.00     0.025 A 
HETATM   10  C21 UNL     1      29.883   8.393  48.441  1.00  0.00     0.045 A 
ENDROOT
BRANCH   8  11
HETATM   11  C10 UNL     1      32.476   7.806  47.302  1.00  0.00    -0.006 A 
HETATM   12  C11 UNL     1      33.300   7.230  48.261  1.00  0.00     0.014 A 
HETATM   13  C12 UNL     1      33.862   5.987  48.137  1.00  0.00     0.009 A 
HETATM   14  C13 UNL     1      33.621   5.223  47.003  1.00  0.00    -0.051 A 
HETATM   15  C18 UNL     1      32.794   5.760  46.008  1.00  0.00     0.009 A 
HETATM   16  C19 UNL     1      32.258   7.018  46.193  1.00  0.00     0.014 A 
BRANCH  14  17
HETATM   17  C14 UNL     1      34.139   3.872  46.698  1.00  0.00    -0.024 C 
HETATM   18  C15 UNL     1      35.033   3.823  45.505  1.00  0.00     0.019 C 
HETATM   19  C16 UNL     1      32.948   2.974  46.438  1.00  0.00     0.019 C 
HETATM   20  C17 UNL     1      34.834   3.332  47.928  1.00  0.00     0.019 C 
ENDBRANCH  14  17
ENDBRANCH   8  11
BRANCH   1  21
HETATM   21  N1  UNL     1      27.849   7.456  49.323  1.00  0.00    -0.324 N 
HETATM   22  C3  UNL     1      26.790   6.828  48.628  1.00  0.00     0.244 C 
HETATM   23  O1  UNL     1      26.461   7.312  47.539  1.00  0.00    -0.268 OA
HETATM   24  H4  UNL     1      28.044   6.964  50.237  1.00  0.00     0.169 HD
BRANCH  22  25
HETATM   25  C2  UNL     1      26.083   5.658  49.125  1.00  0.00     0.064 C 
HETATM   26  C1  UNL     1      26.660   4.474  49.208  1.00  0.00     0.017 C 
ENDBRANCH  22  25
ENDBRANCH   1  21
TORSDOF 4
ENDMDL
MODEL 7
REMARK VINA RESULT:      -7.5      4.802      8.136
REMARK  4 active torsions:
REMARK  status: ('A' for Active; 'I' for Inactive)
REMARK    1  A    between atoms: C2_2  and  C3_3 
REMARK       I    between atoms: C3_3  and  N1_5 
REMARK    2  A    between atoms: N1_5  and  C4_6 
REMARK    3  A    between atoms: C9_13  and  C10_14 
REMARK    4  A    between atoms: C13_17  and  C14_18 
ROOT
HETATM    1  C4  UNL     1      30.373   5.962  47.730  1.00  0.00     0.035 A 
HETATM    2  C5  UNL     1      30.595   7.045  46.912  1.00  0.00     0.032 A 
HETATM    3  C6  UNL     1      29.640   7.957  46.515  1.00  0.00     0.035 A 
HETATM    4  C7  UNL     1      28.351   7.779  46.970  1.00  0.00     0.070 A 
HETATM    5  N2  UNL     1      27.337   8.613  46.657  1.00  0.00    -0.241 NA
HETATM    6  C8  UNL     1      26.101   8.389  47.146  1.00  0.00     0.234 A 
HETATM    7  N3  UNL     1      25.858   7.327  47.954  1.00  0.00    -0.240 NA
HETATM    8  C9  UNL     1      26.836   6.466  48.293  1.00  0.00     0.081 A 
HETATM    9  C20 UNL     1      28.099   6.701  47.791  1.00  0.00     0.025 A 
HETATM   10  C21 UNL     1      29.074   5.828  48.159  1.00  0.00     0.045 A 
ENDROOT
BRANCH   8  11
HETATM   11  C10 UNL     1      26.397   5.389  49.162  1.00  0.00    -0.006 A 
HETATM   12  C11 UNL     1      25.316   5.602  50.008  1.00  0.00     0.014 A 
HETATM   13  C12 UNL     1      24.804   4.648  50.847  1.00  0.00     0.009 A 
HETATM   14  C13 UNL     1      25.368   3.380  50.886  1.00  0.00    -0.051 A 
HETATM   15  C18 UNL     1      26.460   3.115  50.050  1.00  0.00     0.009 A 
HETATM   16  C19 UNL     1      26.929   4.119  49.227  1.00  0.00     0.014 A 
BRANCH  14  17
HETATM   17  C14 UNL     1      24.953   2.233  51.723  1.00  0.00    -0.024 C 
HETATM   18  C15 UNL     1      25.950   1.125  51.766  1.00  0.00     0.019 C 
HETATM   19  C16 UNL     1      23.662   1.691  51.148  1.00  0.00     0.019 C 
HETATM   20  C17 UNL     1      24.635   2.739  53.112  1.00  0.00     0.019 C 
ENDBRANCH  14  17
ENDBRANCH   8  11
BRANCH   1  21
HETATM   21  N1  UNL     1      31.340   5.018  48.145  1.00  0.00    -0.324 N 
HETATM   22  C3  UNL     1      32.256   4.245  47.395  1.00  0.00     0.244 C 
HETATM   23  O1  UNL     1      32.242   4.383  46.167  1.00  0.00    -0.268 OA
HETATM   24  H4  UNL     1      31.437   4.820  49.178  1.00  0.00     0.169 HD
BRANCH  22  25
HETATM   25  C2  UNL     1      33.199   3.311  47.991  1.00  0.00     0.064 C 
HETATM   26  C1  UNL     1      34.434   3.183  47.544  1.00  0.00     0.017 C 
ENDBRANCH  22  25
ENDBRANCH   1  21
TORSDOF 4
ENDMDL
MODEL 8
REMARK VINA RESULT:      -7.3      3.819      6.689
REMARK  4 active torsions:
REMARK  status: ('A' for Active; 'I' for Inactive)
REMARK    1  A    between atoms: C2_2  and  C3_3 
REMARK       I    between atoms: C3_3  and  N1_5 
REMARK    2  A    between atoms: N1_5  and  C4_6 
REMARK    3  A    between atoms: C9_13  and  C10_14 
REMARK    4  A    between atoms: C13_17  and  C14_18 
ROOT
HETATM    1  C4  UNL     1      21.796   3.588  47.840  1.00  0.00     0.035 A 
HETATM    2  C5  UNL     1      21.073   2.579  48.431  1.00  0.00     0.032 A 
HETATM    3  C6  UNL     1      21.489   1.820  49.505  1.00  0.00     0.035 A 
HETATM    4  C7  UNL     1      22.732   2.087  50.039  1.00  0.00     0.070 A 
HETATM    5  N2  UNL     1      23.239   1.418  51.096  1.00  0.00    -0.241 NA
HETATM    6  C8  UNL     1      24.457   1.738  51.577  1.00  0.00     0.234 A 
HETATM    7  N3  UNL     1      25.189   2.728  51.008  1.00  0.00    -0.240 NA
HETATM    8  C9  UNL     1      24.726   3.422  49.952  1.00  0.00     0.081 A 
HETATM    9  C20 UNL     1      23.479   3.093  49.465  1.00  0.00     0.025 A 
HETATM   10  C21 UNL     1      23.027   3.817  48.407  1.00  0.00     0.045 A 
ENDROOT
BRANCH   8  11
HETATM   11  C10 UNL     1      25.642   4.442  49.472  1.00  0.00    -0.006 A 
HETATM   12  C11 UNL     1      26.922   4.072  49.080  1.00  0.00     0.014 A 
HETATM   13  C12 UNL     1      27.854   4.947  48.589  1.00  0.00     0.009 A 
HETATM   14  C13 UNL     1      27.543   6.294  48.459  1.00  0.00    -0.051 A 
HETATM   15  C18 UNL     1      26.263   6.718  48.841  1.00  0.00     0.009 A 
HETATM   16  C19 UNL     1      25.370   5.786  49.327  1.00  0.00     0.014 A 
BRANCH  14  17
HETATM   17  C14 UNL     1      28.415   7.376  47.954  1.00  0.00    -0.024 C 
HETATM   18  C15 UNL     1      28.639   8.478  48.934  1.00  0.00     0.019 C 
HETATM   19  C16 UNL     1      27.753   7.960  46.724  1.00  0.00     0.019 C 
HETATM   20  C17 UNL     1      29.724   6.771  47.500  1.00  0.00     0.019 C 
ENDBRANCH  14  17
ENDBRANCH   8  11
BRANCH   1  21
HETATM   21  N1  UNL     1      21.384   4.373  46.738  1.00  0.00    -0.324 N 
HETATM   22  C3  UNL     1      21.618   4.216  45.353  1.00  0.00     0.244 C 
HETATM   23  O1  UNL     1      22.296   3.243  45.000  1.00  0.00    -0.268 OA
HETATM   24  H4  UNL     1      20.800   5.233  46.926  1.00  0.00     0.169 HD
BRANCH  22  25
HETATM   25  C2  UNL     1      21.109   5.128  44.341  1.00  0.00     0.064 C 
HETATM   26  C1  UNL     1      19.816   5.290  44.132  1.00  0.00     0.017 C 
ENDBRANCH  22  25
ENDBRANCH   1  21
TORSDOF 4
ENDMDL
MODEL 9
REMARK VINA RESULT:      -7.1      6.368      9.622
REMARK  4 active torsions:
REMARK  status: ('A' for Active; 'I' for Inactive)
REMARK    1  A    between atoms: C2_2  and  C3_3 
REMARK       I    between atoms: C3_3  and  N1_5 
REMARK    2  A    between atoms: N1_5  and  C4_6 
REMARK    3  A    between atoms: C9_13  and  C10_14 
REMARK    4  A    between atoms: C13_17  and  C14_18 
ROOT
HETATM    1  C4  UNL     1      32.906   5.653  47.954  1.00  0.00     0.035 A 
HETATM    2  C5  UNL     1      34.008   6.410  47.632  1.00  0.00     0.032 A 
HETATM    3  C6  UNL     1      34.009   7.774  47.430  1.00  0.00     0.035 A 
HETATM    4  C7  UNL     1      32.812   8.446  47.559  1.00  0.00     0.070 A 
HETATM    5  N2  UNL     1      32.694   9.781  47.395  1.00  0.00    -0.241 NA
HETATM    6  C8  UNL     1      31.495  10.377  47.548  1.00  0.00     0.234 A 
HETATM    7  N3  UNL     1      30.395   9.650  47.863  1.00  0.00    -0.240 NA
HETATM    8  C9  UNL     1      30.462   8.316  48.035  1.00  0.00     0.081 A 
HETATM    9  C20 UNL     1      31.691   7.711  47.880  1.00  0.00     0.025 A 
HETATM   10  C21 UNL     1      31.738   6.366  48.072  1.00  0.00     0.045 A 
ENDROOT
BRANCH   8  11
HETATM   11  C10 UNL     1      29.189   7.702  48.367  1.00  0.00    -0.006 A 
HETATM   12  C11 UNL     1      28.244   8.441  49.067  1.00  0.00     0.014 A 
HETATM   13  C12 UNL     1      27.004   7.968  49.408  1.00  0.00     0.009 A 
HETATM   14  C13 UNL     1      26.629   6.679  49.052  1.00  0.00    -0.051 A 
HETATM   15  C18 UNL     1      27.547   5.894  48.344  1.00  0.00     0.009 A 
HETATM   16  C19 UNL     1      28.780   6.429  48.030  1.00  0.00     0.014 A 
BRANCH  14  17
HETATM   17  C14 UNL     1      25.343   6.004  49.333  1.00  0.00    -0.024 C 
HETATM   18  C15 UNL     1      24.760   6.345  50.662  1.00  0.00     0.019 C 
HETATM   19  C16 UNL     1      25.592   4.511  49.290  1.00  0.00     0.019 C 
HETATM   20  C17 UNL     1      24.377   6.319  48.213  1.00  0.00     0.019 C 
ENDBRANCH  14  17
ENDBRANCH   8  11
BRANCH   1  21
HETATM   21  N1  UNL     1      32.889   4.255  48.163  1.00  0.00    -0.324 N 
HETATM   22  C3  UNL     1      33.003   3.182  47.249  1.00  0.00     0.244 C 
HETATM   23  O1  UNL     1      33.141   3.469  46.054  1.00  0.00    -0.268 OA
HETATM   24  H4  UNL     1      32.773   3.896  49.150  1.00  0.00     0.169 HD
BRANCH  22  25
HETATM   25  C2  UNL     1      32.968   1.782  47.640  1.00  0.00     0.064 C 
HETATM   26  C1  UNL     1      32.230   0.895  47.000  1.00  0.00     0.017 C 
ENDBRANCH  22  25
ENDBRANCH   1  21
TORSDOF 4
ENDMDL
