MODEL 1
REMARK VINA RESULT:      -7.2      0.000      0.000
REMARK  9 active torsions:
REMARK  status: ('A' for Active; 'I' for Inactive)
REMARK    1  A    between atoms: N1_2  and  C3_4 
REMARK    2  A    between atoms: C3_4  and  C4_5 
REMARK    3  A    between atoms: C5_6  and  C6_7 
REMARK       I    between atoms: C6_7  and  N2_9 
REMARK    4  A    between atoms: N2_9  and  C7_10 
REMARK    5  A    between atoms: C7_10  and  C8_11 
REMARK    6  A    between atoms: C9_12  and  C10_13 
REMARK    7  A    between atoms: C12_17  and  N5_18 
REMARK    8  A    between atoms: N5_18  and  C13_19 
REMARK    9  A    between atoms: C16_22  and  C17_23 
ROOT
HETATM    1  C10 UNL     1      22.823   5.221  49.678  1.00  0.00     0.083 A 
HETATM    2  N3  UNL     1      22.260   5.916  50.669  1.00  0.00    -0.240 NA
HETATM    3  C11 UNL     1      21.537   5.327  51.665  1.00  0.00     0.236 A 
HETATM    4  N4  UNL     1      21.344   3.999  51.715  1.00  0.00    -0.223 NA
HETATM    5  C12 UNL     1      21.879   3.170  50.744  1.00  0.00     0.153 A 
HETATM    6  C19 UNL     1      22.583   3.871  49.798  1.00  0.00     0.108 A 
HETATM    7 CL1  UNL     1      23.254   2.804  48.568  1.00  0.00    -0.078 Cl
ENDROOT
BRANCH   1   8
HETATM    8  C9  UNL     1      23.567   5.697  48.527  1.00  0.00     0.031 C 
HETATM    9  C8  UNL     1      24.840   6.043  48.577  1.00  0.00    -0.005 C 
BRANCH   9  10
HETATM   10  C7  UNL     1      25.922   6.106  49.600  1.00  0.00     0.150 C 
BRANCH  10  11
HETATM   11  N2  UNL     1      26.044   4.857  50.290  1.00  0.00    -0.354 N 
HETATM   12  C6  UNL     1      26.645   3.575  50.160  1.00  0.00     0.241 C 
HETATM   13  O1  UNL     1      27.271   3.577  49.050  1.00  0.00    -0.269 OA
HETATM   14  H11 UNL     1      25.509   4.897  51.214  1.00  0.00     0.163 HD
BRANCH  12  15
HETATM   15  C5  UNL     1      26.527   2.505  51.153  1.00  0.00     0.072 C 
HETATM   16  C4  UNL     1      27.084   1.989  52.272  1.00  0.00     0.008 C 
BRANCH  16  17
HETATM   17  C3  UNL     1      28.214   2.261  53.173  1.00  0.00     0.299 C 
BRANCH  17  18
HETATM   18  N1  UNL     1      28.310   1.184  54.153  1.00  0.00     0.083 N 
HETATM   19  C1  UNL     1      29.487   0.402  53.752  1.00  0.00     0.309 C 
HETATM   20  C2  UNL     1      27.142   0.315  54.061  1.00  0.00     0.309 C 
ENDBRANCH  17  18
ENDBRANCH  16  17
ENDBRANCH  12  15
ENDBRANCH  10  11
ENDBRANCH   9  10
ENDBRANCH   1   8
BRANCH   5  21
HETATM   21  N5  UNL     1      21.682   1.767  50.757  1.00  0.00    -0.340 N 
HETATM   22  H17 UNL     1      21.161   1.338  49.946  1.00  0.00     0.167 HD
BRANCH  21  23
HETATM   23  C13 UNL     1      22.172   0.933  51.828  1.00  0.00     0.030 A 
HETATM   24  C14 UNL     1      23.426   0.867  52.237  1.00  0.00     0.007 A 
HETATM   25  C15 UNL     1      23.505  -0.110  53.357  1.00  0.00     0.066 A 
HETATM   26  C16 UNL     1      22.112  -0.587  53.521  1.00  0.00    -0.046 A 
HETATM   27  C18 UNL     1      21.354   0.031  52.625  1.00  0.00     0.034 A 
BRANCH  26  28
HETATM   28  C17 UNL     1      21.828  -1.607  54.583  1.00  0.00     0.257 C 
HETATM   29  F1  UNL     1      20.507  -1.993  54.474  1.00  0.00    -0.251 F 
ENDBRANCH  26  28
ENDBRANCH  21  23
ENDBRANCH   5  21
TORSDOF 9
ENDMDL
MODEL 2
REMARK VINA RESULT:      -7.1      3.214      6.033
REMARK  9 active torsions:
REMARK  status: ('A' for Active; 'I' for Inactive)
REMARK    1  A    between atoms: N1_2  and  C3_4 
REMARK    2  A    between atoms: C3_4  and  C4_5 
REMARK    3  A    between atoms: C5_6  and  C6_7 
REMARK       I    between atoms: C6_7  and  N2_9 
REMARK    4  A    between atoms: N2_9  and  C7_10 
REMARK    5  A    between atoms: C7_10  and  C8_11 
REMARK    6  A    between atoms: C9_12  and  C10_13 
REMARK    7  A    between atoms: C12_17  and  N5_18 
REMARK    8  A    between atoms: N5_18  and  C13_19 
REMARK    9  A    between atoms: C16_22  and  C17_23 
ROOT
HETATM    1  C10 UNL     1      24.196   3.709  50.136  1.00  0.00     0.083 A 
HETATM    2  N3  UNL     1      25.179   3.766  49.234  1.00  0.00    -0.240 NA
HETATM    3  C11 UNL     1      26.465   3.412  49.522  1.00  0.00     0.236 A 
HETATM    4  N4  UNL     1      26.829   2.980  50.741  1.00  0.00    -0.223 NA
HETATM    5  C12 UNL     1      25.900   2.876  51.761  1.00  0.00     0.153 A 
HETATM    6  C19 UNL     1      24.645   3.256  51.356  1.00  0.00     0.108 A 
HETATM    7 CL1  UNL     1      23.474   3.123  52.665  1.00  0.00    -0.078 Cl
ENDROOT
BRANCH   1   8
HETATM    8  C9  UNL     1      22.804   4.097  50.006  1.00  0.00     0.031 C 
HETATM    9  C8  UNL     1      21.836   3.245  49.721  1.00  0.00    -0.005 C 
BRANCH   9  10
HETATM   10  C7  UNL     1      21.701   1.786  49.452  1.00  0.00     0.150 C 
BRANCH  10  11
HETATM   11  N2  UNL     1      21.113   1.114  50.572  1.00  0.00    -0.354 N 
HETATM   12  C6  UNL     1      19.869   0.593  51.022  1.00  0.00     0.241 C 
HETATM   13  O1  UNL     1      19.024   0.819  50.096  1.00  0.00    -0.269 OA
HETATM   14  H11 UNL     1      21.853   0.940  51.323  1.00  0.00     0.163 HD
BRANCH  12  15
HETATM   15  C5  UNL     1      19.670  -0.067  52.314  1.00  0.00     0.072 C 
HETATM   16  C4  UNL     1      20.230  -0.283  53.526  1.00  0.00     0.008 C 
BRANCH  16  17
HETATM   17  C3  UNL     1      21.454   0.072  54.260  1.00  0.00     0.299 C 
BRANCH  17  18
HETATM   18  N1  UNL     1      22.464  -0.954  54.023  1.00  0.00     0.083 N 
HETATM   19  C1  UNL     1      22.871  -1.411  55.358  1.00  0.00     0.309 C 
HETATM   20  C2  UNL     1      23.632  -0.369  53.372  1.00  0.00     0.309 C 
ENDBRANCH  17  18
ENDBRANCH  16  17
ENDBRANCH  12  15
ENDBRANCH  10  11
ENDBRANCH   9  10
ENDBRANCH   1   8
BRANCH   5  21
HETATM   21  N5  UNL     1      26.251   2.439  53.062  1.00  0.00    -0.340 N 
HETATM   22  H17 UNL     1      25.626   2.727  53.861  1.00  0.00     0.167 HD
BRANCH  21  23
HETATM   23  C13 UNL     1      27.416   1.623  53.308  1.00  0.00     0.030 A 
HETATM   24  C14 UNL     1      28.575   2.059  53.767  1.00  0.00     0.007 A 
HETATM   25  C15 UNL     1      29.504   0.901  53.875  1.00  0.00     0.066 A 
HETATM   26  C16 UNL     1      28.700  -0.254  53.410  1.00  0.00    -0.046 A 
HETATM   27  C18 UNL     1      27.490   0.186  53.086  1.00  0.00     0.034 A 
BRANCH  26  28
HETATM   28  C17 UNL     1      29.344  -1.607  53.384  1.00  0.00     0.257 C 
HETATM   29  F1  UNL     1      30.537  -1.535  54.074  1.00  0.00    -0.251 F 
ENDBRANCH  26  28
ENDBRANCH  21  23
ENDBRANCH   5  21
TORSDOF 9
ENDMDL
MODEL 3
REMARK VINA RESULT:      -7.0      4.159      5.817
REMARK  9 active torsions:
REMARK  status: ('A' for Active; 'I' for Inactive)
REMARK    1  A    between atoms: N1_2  and  C3_4 
REMARK    2  A    between atoms: C3_4  and  C4_5 
REMARK    3  A    between atoms: C5_6  and  C6_7 
REMARK       I    between atoms: C6_7  and  N2_9 
REMARK    4  A    between atoms: N2_9  and  C7_10 
REMARK    5  A    between atoms: C7_10  and  C8_11 
REMARK    6  A    between atoms: C9_12  and  C10_13 
REMARK    7  A    between atoms: C12_17  and  N5_18 
REMARK    8  A    between atoms: N5_18  and  C13_19 
REMARK    9  A    between atoms: C16_22  and  C17_23 
ROOT
HETATM    1  C10 UNL     1      24.675   4.807  50.357  1.00  0.00     0.083 A 
HETATM    2  N3  UNL     1      23.796   5.208  51.279  1.00  0.00    -0.240 NA
HETATM    3  C11 UNL     1      23.436   4.432  52.342  1.00  0.00     0.236 A 
HETATM    4  N4  UNL     1      23.946   3.204  52.532  1.00  0.00    -0.223 NA
HETATM    5  C12 UNL     1      24.868   2.676  51.645  1.00  0.00     0.153 A 
HETATM    6  C19 UNL     1      25.153   3.543  50.621  1.00  0.00     0.108 A 
HETATM    7 CL1  UNL     1      26.324   2.857  49.498  1.00  0.00    -0.078 Cl
ENDROOT
BRANCH   1   8
HETATM    8  C9  UNL     1      25.118   5.482  49.152  1.00  0.00     0.031 C 
HETATM    9  C8  UNL     1      25.677   6.678  49.153  1.00  0.00    -0.005 C 
BRANCH   9  10
HETATM   10  C7  UNL     1      26.058   7.711  50.157  1.00  0.00     0.150 C 
BRANCH  10  11
HETATM   11  N2  UNL     1      27.363   8.234  49.880  1.00  0.00    -0.354 N 
HETATM   12  C6  UNL     1      28.050   9.469  49.722  1.00  0.00     0.241 C 
HETATM   13  O1  UNL     1      27.185  10.390  49.887  1.00  0.00    -0.269 OA
HETATM   14  H11 UNL     1      28.057   7.432  49.752  1.00  0.00     0.163 HD
BRANCH  12  15
HETATM   15  C5  UNL     1      29.480   9.585  49.429  1.00  0.00     0.072 C 
HETATM   16  C4  UNL     1      30.569   8.894  49.022  1.00  0.00     0.008 C 
BRANCH  16  17
HETATM   17  C3  UNL     1      30.927   7.526  48.617  1.00  0.00     0.299 C 
BRANCH  17  18
HETATM   18  N1  UNL     1      32.143   7.126  49.317  1.00  0.00     0.083 N 
HETATM   19  C1  UNL     1      33.230   7.854  48.650  1.00  0.00     0.309 C 
HETATM   20  C2  UNL     1      32.380   5.698  49.136  1.00  0.00     0.309 C 
ENDBRANCH  17  18
ENDBRANCH  16  17
ENDBRANCH  12  15
ENDBRANCH  10  11
ENDBRANCH   9  10
ENDBRANCH   1   8
BRANCH   5  21
HETATM   21  N5  UNL     1      25.414   1.379  51.807  1.00  0.00    -0.340 N 
HETATM   22  H17 UNL     1      24.884   0.568  51.389  1.00  0.00     0.167 HD
BRANCH  21  23
HETATM   23  C13 UNL     1      26.654   1.151  52.509  1.00  0.00     0.030 A 
HETATM   24  C14 UNL     1      27.393   2.082  53.085  1.00  0.00     0.007 A 
HETATM   25  C15 UNL     1      28.583   1.429  53.693  1.00  0.00     0.066 A 
HETATM   26  C16 UNL     1      28.410  -0.009  53.377  1.00  0.00    -0.046 A 
HETATM   27  C18 UNL     1      27.284  -0.149  52.690  1.00  0.00     0.034 A 
BRANCH  26  28
HETATM   28  C17 UNL     1      29.457  -0.973  53.847  1.00  0.00     0.257 C 
HETATM   29  F1  UNL     1      30.696  -0.481  53.488  1.00  0.00    -0.251 F 
ENDBRANCH  26  28
ENDBRANCH  21  23
ENDBRANCH   5  21
TORSDOF 9
ENDMDL
MODEL 4
REMARK VINA RESULT:      -7.0      3.012      5.683
REMARK  9 active torsions:
REMARK  status: ('A' for Active; 'I' for Inactive)
REMARK    1  A    between atoms: N1_2  and  C3_4 
REMARK    2  A    between atoms: C3_4  and  C4_5 
REMARK    3  A    between atoms: C5_6  and  C6_7 
REMARK       I    between atoms: C6_7  and  N2_9 
REMARK    4  A    between atoms: N2_9  and  C7_10 
REMARK    5  A    between atoms: C7_10  and  C8_11 
REMARK    6  A    between atoms: C9_12  and  C10_13 
REMARK    7  A    between atoms: C12_17  and  N5_18 
REMARK    8  A    between atoms: N5_18  and  C13_19 
REMARK    9  A    between atoms: C16_22  and  C17_23 
ROOT
HETATM    1  C10 UNL     1      21.027   2.218  51.584  1.00  0.00     0.083 A 
HETATM    2  N3  UNL     1      20.849   3.155  52.519  1.00  0.00    -0.240 NA
HETATM    3  C11 UNL     1      21.335   4.424  52.393  1.00  0.00     0.236 A 
HETATM    4  N4  UNL     1      22.028   4.817  51.312  1.00  0.00    -0.223 NA
HETATM    5  C12 UNL     1      22.278   3.937  50.274  1.00  0.00     0.153 A 
HETATM    6  C19 UNL     1      21.743   2.696  50.510  1.00  0.00     0.108 A 
HETATM    7 CL1  UNL     1      22.072   1.586  49.183  1.00  0.00    -0.078 Cl
ENDROOT
BRANCH   1   8
HETATM    8  C9  UNL     1      20.627   0.824  51.590  1.00  0.00     0.031 C 
HETATM    9  C8  UNL     1      20.986  -0.031  52.530  1.00  0.00    -0.005 C 
BRANCH   9  10
HETATM   10  C7  UNL     1      21.795  -0.012  53.781  1.00  0.00     0.150 C 
BRANCH  10  11
HETATM   11  N2  UNL     1      23.191  -0.139  53.487  1.00  0.00    -0.354 N 
HETATM   12  C6  UNL     1      24.347   0.651  53.240  1.00  0.00     0.241 C 
HETATM   13  O1  UNL     1      23.976   1.869  53.310  1.00  0.00    -0.269 OA
HETATM   14  H11 UNL     1      23.461  -1.172  53.441  1.00  0.00     0.163 HD
BRANCH  12  15
HETATM   15  C5  UNL     1      25.677   0.104  52.966  1.00  0.00     0.072 C 
HETATM   16  C4  UNL     1      26.908  -0.084  53.493  1.00  0.00     0.008 C 
BRANCH  16  17
HETATM   17  C3  UNL     1      27.630   0.184  54.746  1.00  0.00     0.299 C 
BRANCH  17  18
HETATM   18  N1  UNL     1      28.982   0.632  54.429  1.00  0.00     0.083 N 
HETATM   19  C1  UNL     1      28.809   1.874  53.664  1.00  0.00     0.309 C 
HETATM   20  C2  UNL     1      29.643  -0.340  53.563  1.00  0.00     0.309 C 
ENDBRANCH  17  18
ENDBRANCH  16  17
ENDBRANCH  12  15
ENDBRANCH  10  11
ENDBRANCH   9  10
ENDBRANCH   1   8
BRANCH   5  21
HETATM   21  N5  UNL     1      23.019   4.313  49.126  1.00  0.00    -0.340 N 
HETATM   22  H17 UNL     1      22.481   4.538  48.247  1.00  0.00     0.167 HD
BRANCH  21  23
HETATM   23  C13 UNL     1      24.460   4.398  49.137  1.00  0.00     0.030 A 
HETATM   24  C14 UNL     1      25.282   3.441  49.529  1.00  0.00     0.007 A 
HETATM   25  C15 UNL     1      26.679   3.933  49.384  1.00  0.00     0.066 A 
HETATM   26  C16 UNL     1      26.527   5.309  48.853  1.00  0.00    -0.046 A 
HETATM   27  C18 UNL     1      25.231   5.559  48.716  1.00  0.00     0.034 A 
BRANCH  26  28
HETATM   28  C17 UNL     1      27.764   6.113  48.591  1.00  0.00     0.257 C 
HETATM   29  F1  UNL     1      28.819   5.242  48.407  1.00  0.00    -0.251 F 
ENDBRANCH  26  28
ENDBRANCH  21  23
ENDBRANCH   5  21
TORSDOF 9
ENDMDL
MODEL 5
REMARK VINA RESULT:      -6.9      1.854      2.327
REMARK  9 active torsions:
REMARK  status: ('A' for Active; 'I' for Inactive)
REMARK    1  A    between atoms: N1_2  and  C3_4 
REMARK    2  A    between atoms: C3_4  and  C4_5 
REMARK    3  A    between atoms: C5_6  and  C6_7 
REMARK       I    between atoms: C6_7  and  N2_9 
REMARK    4  A    between atoms: N2_9  and  C7_10 
REMARK    5  A    between atoms: C7_10  and  C8_11 
REMARK    6  A    between atoms: C9_12  and  C10_13 
REMARK    7  A    between atoms: C12_17  and  N5_18 
REMARK    8  A    between atoms: N5_18  and  C13_19 
REMARK    9  A    between atoms: C16_22  and  C17_23 
ROOT
HETATM    1  C10 UNL     1      21.257   3.322  49.883  1.00  0.00     0.083 A 
HETATM    2  N3  UNL     1      20.858   4.311  50.687  1.00  0.00    -0.240 NA
HETATM    3  C11 UNL     1      20.328   4.086  51.924  1.00  0.00     0.236 A 
HETATM    4  N4  UNL     1      20.170   2.848  52.418  1.00  0.00    -0.223 NA
HETATM    5  C12 UNL     1      20.547   1.739  51.680  1.00  0.00     0.153 A 
HETATM    6  C19 UNL     1      21.066   2.086  50.458  1.00  0.00     0.108 A 
HETATM    7 CL1  UNL     1      21.537   0.665  49.529  1.00  0.00    -0.078 Cl
ENDROOT
BRANCH   1   8
HETATM    8  C9  UNL     1      21.785   3.389  48.534  1.00  0.00     0.031 C 
HETATM    9  C8  UNL     1      22.927   3.976  48.228  1.00  0.00    -0.005 C 
BRANCH   9  10
HETATM   10  C7  UNL     1      24.015   4.702  48.944  1.00  0.00     0.150 C 
BRANCH  10  11
HETATM   11  N2  UNL     1      24.880   3.783  49.621  1.00  0.00    -0.354 N 
HETATM   12  C6  UNL     1      25.100   3.210  50.903  1.00  0.00     0.241 C 
HETATM   13  O1  UNL     1      24.217   3.702  51.678  1.00  0.00    -0.269 OA
HETATM   14  H11 UNL     1      25.603   3.391  48.938  1.00  0.00     0.163 HD
BRANCH  12  15
HETATM   15  C5  UNL     1      26.158   2.242  51.204  1.00  0.00     0.072 C 
HETATM   16  C4  UNL     1      26.891   1.704  52.205  1.00  0.00     0.008 C 
BRANCH  16  17
HETATM   17  C3  UNL     1      27.023   1.816  53.666  1.00  0.00     0.299 C 
BRANCH  17  18
HETATM   18  N1  UNL     1      27.930   0.777  54.141  1.00  0.00     0.083 N 
HETATM   19  C1  UNL     1      29.240   1.432  54.257  1.00  0.00     0.309 C 
HETATM   20  C2  UNL     1      28.045  -0.285  53.147  1.00  0.00     0.309 C 
ENDBRANCH  17  18
ENDBRANCH  16  17
ENDBRANCH  12  15
ENDBRANCH  10  11
ENDBRANCH   9  10
ENDBRANCH   1   8
BRANCH   5  21
HETATM   21  N5  UNL     1      20.382   0.418  52.164  1.00  0.00    -0.340 N 
HETATM   22  H17 UNL     1      19.559  -0.137  51.803  1.00  0.00     0.167 HD
BRANCH  21  23
HETATM   23  C13 UNL     1      21.295  -0.172  53.112  1.00  0.00     0.030 A 
HETATM   24  C14 UNL     1      20.954  -0.944  54.129  1.00  0.00     0.007 A 
HETATM   25  C15 UNL     1      22.191  -1.338  54.856  1.00  0.00     0.066 A 
HETATM   26  C16 UNL     1      23.282  -0.676  54.102  1.00  0.00    -0.046 A 
HETATM   27  C18 UNL     1      22.741  -0.005  53.094  1.00  0.00     0.034 A 
BRANCH  26  28
HETATM   28  C17 UNL     1      24.691  -0.861  54.578  1.00  0.00     0.257 C 
HETATM   29  F1  UNL     1      24.657  -1.460  55.821  1.00  0.00    -0.251 F 
ENDBRANCH  26  28
ENDBRANCH  21  23
ENDBRANCH   5  21
TORSDOF 9
ENDMDL
MODEL 6
REMARK VINA RESULT:      -6.8      3.680      6.424
REMARK  9 active torsions:
REMARK  status: ('A' for Active; 'I' for Inactive)
REMARK    1  A    between atoms: N1_2  and  C3_4 
REMARK    2  A    between atoms: C3_4  and  C4_5 
REMARK    3  A    between atoms: C5_6  and  C6_7 
REMARK       I    between atoms: C6_7  and  N2_9 
REMARK    4  A    between atoms: N2_9  and  C7_10 
REMARK    5  A    between atoms: C7_10  and  C8_11 
REMARK    6  A    between atoms: C9_12  and  C10_13 
REMARK    7  A    between atoms: C12_17  and  N5_18 
REMARK    8  A    between atoms: N5_18  and  C13_19 
REMARK    9  A    between atoms: C16_22  and  C17_23 
ROOT
HETATM    1  C10 UNL     1      21.843   2.872  50.904  1.00  0.00     0.083 A 
HETATM    2  N3  UNL     1      21.314   2.814  49.679  1.00  0.00    -0.240 NA
HETATM    3  C11 UNL     1      22.067   2.916  48.546  1.00  0.00     0.236 A 
HETATM    4  N4  UNL     1      23.399   3.081  48.587  1.00  0.00    -0.223 NA
HETATM    5  C12 UNL     1      24.065   3.155  49.799  1.00  0.00     0.153 A 
HETATM    6  C19 UNL     1      23.209   3.040  50.865  1.00  0.00     0.108 A 
HETATM    7 CL1  UNL     1      24.069   3.140  52.399  1.00  0.00    -0.078 Cl
ENDROOT
BRANCH   1   8
HETATM    8  C9  UNL     1      21.183   2.836  52.195  1.00  0.00     0.031 C 
HETATM    9  C8  UNL     1      20.982   1.724  52.878  1.00  0.00    -0.005 C 
BRANCH   9  10
HETATM   10  C7  UNL     1      21.267   0.270  52.718  1.00  0.00     0.150 C 
BRANCH  10  11
HETATM   11  N2  UNL     1      22.676   0.020  52.754  1.00  0.00    -0.354 N 
HETATM   12  C6  UNL     1      23.682  -0.528  53.595  1.00  0.00     0.241 C 
HETATM   13  O1  UNL     1      23.096  -0.910  54.660  1.00  0.00    -0.269 OA
HETATM   14  H11 UNL     1      23.129   0.351  51.844  1.00  0.00     0.163 HD
BRANCH  12  15
HETATM   15  C5  UNL     1      25.101  -0.607  53.241  1.00  0.00     0.072 C 
HETATM   16  C4  UNL     1      26.352  -0.347  53.685  1.00  0.00     0.008 C 
BRANCH  16  17
HETATM   17  C3  UNL     1      27.012   0.204  54.878  1.00  0.00     0.299 C 
BRANCH  17  18
HETATM   18  N1  UNL     1      28.362   0.628  54.520  1.00  0.00     0.083 N 
HETATM   19  C1  UNL     1      28.188   1.571  53.406  1.00  0.00     0.309 C 
HETATM   20  C2  UNL     1      29.133  -0.509  54.029  1.00  0.00     0.309 C 
ENDBRANCH  17  18
ENDBRANCH  16  17
ENDBRANCH  12  15
ENDBRANCH  10  11
ENDBRANCH   9  10
ENDBRANCH   1   8
BRANCH   5  21
HETATM   21  N5  UNL     1      25.466   3.344  49.880  1.00  0.00    -0.340 N 
HETATM   22  H17 UNL     1      26.038   2.583  50.334  1.00  0.00     0.167 HD
BRANCH  21  23
HETATM   23  C13 UNL     1      26.112   4.526  49.362  1.00  0.00     0.030 A 
HETATM   24  C14 UNL     1      25.579   5.733  49.311  1.00  0.00     0.007 A 
HETATM   25  C15 UNL     1      26.572   6.662  48.707  1.00  0.00     0.066 A 
HETATM   26  C16 UNL     1      27.746   5.803  48.423  1.00  0.00    -0.046 A 
HETATM   27  C18 UNL     1      27.459   4.567  48.811  1.00  0.00     0.034 A 
BRANCH  26  28
HETATM   28  C17 UNL     1      28.952   6.431  47.793  1.00  0.00     0.257 C 
HETATM   29  F1  UNL     1      28.527   7.301  46.809  1.00  0.00    -0.251 F 
ENDBRANCH  26  28
ENDBRANCH  21  23
ENDBRANCH   5  21
TORSDOF 9
ENDMDL
MODEL 7
REMARK VINA RESULT:      -6.7      3.193      6.128
REMARK  9 active torsions:
REMARK  status: ('A' for Active; 'I' for Inactive)
REMARK    1  A    between atoms: N1_2  and  C3_4 
REMARK    2  A    between atoms: C3_4  and  C4_5 
REMARK    3  A    between atoms: C5_6  and  C6_7 
REMARK       I    between atoms: C6_7  and  N2_9 
REMARK    4  A    between atoms: N2_9  and  C7_10 
REMARK    5  A    between atoms: C7_10  and  C8_11 
REMARK    6  A    between atoms: C9_12  and  C10_13 
REMARK    7  A    between atoms: C12_17  and  N5_18 
REMARK    8  A    between atoms: N5_18  and  C13_19 
REMARK    9  A    between atoms: C16_22  and  C17_23 
ROOT
HETATM    1  C10 UNL     1      24.175   2.776  50.511  1.00  0.00     0.083 A 
HETATM    2  N3  UNL     1      24.970   3.191  49.521  1.00  0.00    -0.240 NA
HETATM    3  C11 UNL     1      26.322   3.310  49.662  1.00  0.00     0.236 A 
HETATM    4  N4  UNL     1      26.947   3.017  50.814  1.00  0.00    -0.223 NA
HETATM    5  C12 UNL     1      26.231   2.576  51.914  1.00  0.00     0.153 A 
HETATM    6  C19 UNL     1      24.886   2.494  51.655  1.00  0.00     0.108 A 
HETATM    7 CL1  UNL     1      23.989   1.936  53.064  1.00  0.00    -0.078 Cl
ENDROOT
BRANCH   1   8
HETATM    8  C9  UNL     1      22.731   2.649  50.539  1.00  0.00     0.031 C 
HETATM    9  C8  UNL     1      21.919   3.429  49.848  1.00  0.00    -0.005 C 
BRANCH   9  10
HETATM   10  C7  UNL     1      22.037   4.572  48.900  1.00  0.00     0.150 C 
BRANCH  10  11
HETATM   11  N2  UNL     1      22.793   5.640  49.481  1.00  0.00    -0.354 N 
HETATM   12  C6  UNL     1      22.673   6.694  50.428  1.00  0.00     0.241 C 
HETATM   13  O1  UNL     1      21.486   6.636  50.887  1.00  0.00    -0.269 OA
HETATM   14  H11 UNL     1      23.781   5.652  49.073  1.00  0.00     0.163 HD
BRANCH  12  15
HETATM   15  C5  UNL     1      23.750   7.628  50.764  1.00  0.00     0.072 C 
HETATM   16  C4  UNL     1      24.724   8.403  50.236  1.00  0.00     0.008 C 
BRANCH  16  17
HETATM   17  C3  UNL     1      25.268   8.756  48.916  1.00  0.00     0.299 C 
BRANCH  17  18
HETATM   18  N1  UNL     1      26.719   8.611  48.946  1.00  0.00     0.083 N 
HETATM   19  C1  UNL     1      26.963   7.163  48.911  1.00  0.00     0.309 C 
HETATM   20  C2  UNL     1      27.250   9.126  50.203  1.00  0.00     0.309 C 
ENDBRANCH  17  18
ENDBRANCH  16  17
ENDBRANCH  12  15
ENDBRANCH  10  11
ENDBRANCH   9  10
ENDBRANCH   1   8
BRANCH   5  21
HETATM   21  N5  UNL     1      26.855   2.272  53.149  1.00  0.00    -0.340 N 
HETATM   22  H17 UNL     1      26.589   2.853  53.989  1.00  0.00     0.167 HD
BRANCH  21  23
HETATM   23  C13 UNL     1      27.821   1.207  53.280  1.00  0.00     0.030 A 
HETATM   24  C14 UNL     1      29.086   1.356  53.629  1.00  0.00     0.007 A 
HETATM   25  C15 UNL     1      29.731   0.016  53.642  1.00  0.00     0.066 A 
HETATM   26  C16 UNL     1      28.646  -0.914  53.248  1.00  0.00    -0.046 A 
HETATM   27  C18 UNL     1      27.545  -0.203  53.043  1.00  0.00     0.034 A 
BRANCH  26  28
HETATM   28  C17 UNL     1      28.960  -2.376  53.153  1.00  0.00     0.257 C 
HETATM   29  F1  UNL     1      27.850  -3.029  52.657  1.00  0.00    -0.251 F 
ENDBRANCH  26  28
ENDBRANCH  21  23
ENDBRANCH   5  21
TORSDOF 9
ENDMDL
MODEL 8
REMARK VINA RESULT:      -6.6      4.036      5.951
REMARK  9 active torsions:
REMARK  status: ('A' for Active; 'I' for Inactive)
REMARK    1  A    between atoms: N1_2  and  C3_4 
REMARK    2  A    between atoms: C3_4  and  C4_5 
REMARK    3  A    between atoms: C5_6  and  C6_7 
REMARK       I    between atoms: C6_7  and  N2_9 
REMARK    4  A    between atoms: N2_9  and  C7_10 
REMARK    5  A    between atoms: C7_10  and  C8_11 
REMARK    6  A    between atoms: C9_12  and  C10_13 
REMARK    7  A    between atoms: C12_17  and  N5_18 
REMARK    8  A    between atoms: N5_18  and  C13_19 
REMARK    9  A    between atoms: C16_22  and  C17_23 
ROOT
HETATM    1  C10 UNL     1      25.704   6.041  49.446  1.00  0.00     0.083 A 
HETATM    2  N3  UNL     1      26.718   5.632  48.680  1.00  0.00    -0.240 NA
HETATM    3  C11 UNL     1      27.309   4.411  48.830  1.00  0.00     0.236 A 
HETATM    4  N4  UNL     1      26.906   3.534  49.764  1.00  0.00    -0.223 NA
HETATM    5  C12 UNL     1      25.863   3.842  50.619  1.00  0.00     0.153 A 
HETATM    6  C19 UNL     1      25.347   5.090  50.375  1.00  0.00     0.108 A 
HETATM    7 CL1  UNL     1      24.023   5.469  51.473  1.00  0.00    -0.078 Cl
ENDROOT
BRANCH   1   8
HETATM    8  C9  UNL     1      25.010   7.314  49.451  1.00  0.00     0.031 C 
HETATM    9  C8  UNL     1      25.574   8.448  49.827  1.00  0.00    -0.005 C 
BRANCH   9  10
HETATM   10  C7  UNL     1      26.905   8.902  50.320  1.00  0.00     0.150 C 
BRANCH  10  11
HETATM   11  N2  UNL     1      27.937   8.561  49.388  1.00  0.00    -0.354 N 
HETATM   12  C6  UNL     1      29.086   9.113  48.757  1.00  0.00     0.241 C 
HETATM   13  O1  UNL     1      29.200  10.306  49.190  1.00  0.00    -0.269 OA
HETATM   14  H11 UNL     1      27.808   7.554  49.052  1.00  0.00     0.163 HD
BRANCH  12  15
HETATM   15  C5  UNL     1      29.931   8.390  47.805  1.00  0.00     0.072 C 
HETATM   16  C4  UNL     1      30.444   7.175  47.506  1.00  0.00     0.008 C 
BRANCH  16  17
HETATM   17  C3  UNL     1      30.417   5.801  48.031  1.00  0.00     0.299 C 
BRANCH  17  18
HETATM   18  N1  UNL     1      31.765   5.422  48.440  1.00  0.00     0.083 N 
HETATM   19  C1  UNL     1      31.929   5.979  49.789  1.00  0.00     0.309 C 
HETATM   20  C2  UNL     1      32.751   6.053  47.570  1.00  0.00     0.309 C 
ENDBRANCH  17  18
ENDBRANCH  16  17
ENDBRANCH  12  15
ENDBRANCH  10  11
ENDBRANCH   9  10
ENDBRANCH   1   8
BRANCH   5  21
HETATM   21  N5  UNL     1      25.422   2.947  51.625  1.00  0.00    -0.340 N 
HETATM   22  H17 UNL     1      24.439   3.067  51.991  1.00  0.00     0.167 HD
BRANCH  21  23
HETATM   23  C13 UNL     1      26.266   1.898  52.143  1.00  0.00     0.030 A 
HETATM   24  C14 UNL     1      26.093   0.604  51.943  1.00  0.00     0.007 A 
HETATM   25  C15 UNL     1      27.178  -0.131  52.648  1.00  0.00     0.066 A 
HETATM   26  C16 UNL     1      27.990   0.938  53.278  1.00  0.00    -0.046 A 
HETATM   27  C18 UNL     1      27.444   2.108  52.972  1.00  0.00     0.034 A 
BRANCH  26  28
HETATM   28  C17 UNL     1      29.186   0.540  54.089  1.00  0.00     0.257 C 
HETATM   29  F1  UNL     1      30.166   0.086  53.229  1.00  0.00    -0.251 F 
ENDBRANCH  26  28
ENDBRANCH  21  23
ENDBRANCH   5  21
TORSDOF 9
ENDMDL
MODEL 9
REMARK VINA RESULT:      -6.6      1.807      2.375
REMARK  9 active torsions:
REMARK  status: ('A' for Active; 'I' for Inactive)
REMARK    1  A    between atoms: N1_2  and  C3_4 
REMARK    2  A    between atoms: C3_4  and  C4_5 
REMARK    3  A    between atoms: C5_6  and  C6_7 
REMARK       I    between atoms: C6_7  and  N2_9 
REMARK    4  A    between atoms: N2_9  and  C7_10 
REMARK    5  A    between atoms: C7_10  and  C8_11 
REMARK    6  A    between atoms: C9_12  and  C10_13 
REMARK    7  A    between atoms: C12_17  and  N5_18 
REMARK    8  A    between atoms: N5_18  and  C13_19 
REMARK    9  A    between atoms: C16_22  and  C17_23 
ROOT
HETATM    1  C10 UNL     1      22.216   4.338  50.754  1.00  0.00     0.083 A 
HETATM    2  N3  UNL     1      21.606   4.146  49.582  1.00  0.00    -0.240 NA
HETATM    3  C11 UNL     1      21.292   2.905  49.110  1.00  0.00     0.236 A 
HETATM    4  N4  UNL     1      21.578   1.787  49.797  1.00  0.00    -0.223 NA
HETATM    5  C12 UNL     1      22.210   1.856  51.026  1.00  0.00     0.153 A 
HETATM    6  C19 UNL     1      22.474   3.150  51.399  1.00  0.00     0.108 A 
HETATM    7 CL1  UNL     1      23.281   3.222  52.962  1.00  0.00    -0.078 Cl
ENDROOT
BRANCH   1   8
HETATM    8  C9  UNL     1      22.663   5.575  51.367  1.00  0.00     0.031 C 
HETATM    9  C8  UNL     1      23.831   6.134  51.108  1.00  0.00    -0.005 C 
BRANCH   9  10
HETATM   10  C7  UNL     1      25.017   5.852  50.251  1.00  0.00     0.150 C 
BRANCH  10  11
HETATM   11  N2  UNL     1      25.715   4.690  50.712  1.00  0.00    -0.354 N 
HETATM   12  C6  UNL     1      25.911   3.318  50.395  1.00  0.00     0.241 C 
HETATM   13  O1  UNL     1      25.219   3.084  49.351  1.00  0.00    -0.269 OA
HETATM   14  H11 UNL     1      26.284   4.928  51.585  1.00  0.00     0.163 HD
BRANCH  12  15
HETATM   15  C5  UNL     1      26.761   2.407  51.164  1.00  0.00     0.072 C 
HETATM   16  C4  UNL     1      26.756   1.485  52.153  1.00  0.00     0.008 C 
BRANCH  16  17
HETATM   17  C3  UNL     1      25.797   0.845  53.067  1.00  0.00     0.299 C 
BRANCH  17  18
HETATM   18  N1  UNL     1      26.432  -0.315  53.685  1.00  0.00     0.083 N 
HETATM   19  C1  UNL     1      27.505   0.234  54.524  1.00  0.00     0.309 C 
HETATM   20  C2  UNL     1      27.045  -1.156  52.663  1.00  0.00     0.309 C 
ENDBRANCH  17  18
ENDBRANCH  16  17
ENDBRANCH  12  15
ENDBRANCH  10  11
ENDBRANCH   9  10
ENDBRANCH   1   8
BRANCH   5  21
HETATM   21  N5  UNL     1      22.541   0.697  51.772  1.00  0.00    -0.340 N 
HETATM   22  H17 UNL     1      23.544   0.371  51.751  1.00  0.00     0.167 HD
BRANCH  21  23
HETATM   23  C13 UNL     1      21.559  -0.025  52.544  1.00  0.00     0.030 A 
HETATM   24  C14 UNL     1      21.814  -0.781  53.596  1.00  0.00     0.007 A 
HETATM   25  C15 UNL     1      20.530  -1.342  54.095  1.00  0.00     0.066 A 
HETATM   26  C16 UNL     1      19.510  -0.793  53.171  1.00  0.00    -0.046 A 
HETATM   27  C18 UNL     1      20.128  -0.031  52.278  1.00  0.00     0.034 A 
BRANCH  26  28
HETATM   28  C17 UNL     1      18.076  -1.171  53.386  1.00  0.00     0.257 C 
HETATM   29  F1  UNL     1      18.037  -2.420  53.972  1.00  0.00    -0.251 F 
ENDBRANCH  26  28
ENDBRANCH  21  23
ENDBRANCH   5  21
TORSDOF 9
ENDMDL
