MODEL 1
REMARK VINA RESULT:      -8.3      0.000      0.000
REMARK  6 active torsions:
REMARK  status: ('A' for Active; 'I' for Inactive)
REMARK    1  A    between atoms: C3_3  and  N1_4 
REMARK    2  A    between atoms: N1_4  and  C4_5 
REMARK    3  A    between atoms: C12_15  and  C13_16 
REMARK    4  A    between atoms: C13_16  and  N4_17 
REMARK    5  A    between atoms: C18_24  and  O2_25 
REMARK    6  A    between atoms: O2_25  and  C19_26 
ROOT
HETATM    1  C4  UNL     1      24.657   1.022  52.610  1.00  0.00     0.063 A 
HETATM    2  C5  UNL     1      25.710   0.596  53.378  1.00  0.00     0.089 A 
HETATM    3  C6  UNL     1      25.627  -0.278  54.511  1.00  0.00     0.103 C 
HETATM    4  N2  UNL     1      25.564  -0.988  55.437  1.00  0.00    -0.191 NA
HETATM    5  C7  UNL     1      26.999   0.991  53.108  1.00  0.00     0.142 A 
HETATM    6  N3  UNL     1      27.058   1.810  52.040  1.00  0.00    -0.259 NA
HETATM    7  C8  UNL     1      26.034   2.233  51.284  1.00  0.00     0.067 A 
HETATM    8  C9  UNL     1      24.733   1.860  51.521  1.00  0.00     0.003 A 
HETATM    9  C10 UNL     1      23.414   2.098  50.933  1.00  0.00     0.087 C 
HETATM   10  C11 UNL     1      22.755   3.312  51.366  1.00  0.00     0.012 C 
HETATM   11  C12 UNL     1      21.728   3.830  51.960  1.00  0.00     0.016 C 
HETATM   12  C16 UNL     1      23.465   4.514  50.883  1.00  0.00     0.247 C 
HETATM   13  O1  UNL     1      23.197   5.742  50.930  1.00  0.00    -0.268 OA
HETATM   14  N5  UNL     1      24.648   4.911  50.204  1.00  0.00    -0.351 N 
HETATM   15  C17 UNL     1      25.819   5.334  49.526  1.00  0.00     0.187 C 
HETATM   16  C18 UNL     1      26.791   4.176  49.518  1.00  0.00     0.066 C 
HETATM   17  C21 UNL     1      26.590   3.130  50.315  1.00  0.00     0.066 C 
HETATM   18  H19 UNL     1      24.730   3.887  50.213  1.00  0.00     0.163 HD
ENDROOT
BRANCH   1  19
HETATM   19  N1  UNL     1      23.414   0.496  53.059  1.00  0.00    -0.364 N 
HETATM   20  H6  UNL     1      22.597   0.831  53.602  1.00  0.00     0.165 HD
BRANCH  19  21
HETATM   21  C3  UNL     1      22.792  -0.750  52.923  1.00  0.00     0.084 C 
HETATM   22  C2  UNL     1      21.854  -1.292  53.731  1.00  0.00    -0.014 C 
HETATM   23  C1  UNL     1      21.424  -0.469  54.909  1.00  0.00     0.037 C 
ENDBRANCH  19  21
ENDBRANCH   1  19
BRANCH  16  24
HETATM   24  O2  UNL     1      27.742   4.499  48.615  1.00  0.00    -0.354 OA
BRANCH  24  25
HETATM   25  C19 UNL     1      28.245   5.762  48.281  1.00  0.00     0.171 C 
HETATM   26  C20 UNL     1      29.766   5.616  48.197  1.00  0.00     0.034 C 
ENDBRANCH  24  25
ENDBRANCH  16  24
BRANCH  11  27
HETATM   27  C13 UNL     1      20.588   3.091  52.545  1.00  0.00     0.299 C 
BRANCH  27  28
HETATM   28  N4  UNL     1      19.764   2.482  51.510  1.00  0.00     0.083 N 
HETATM   29  C14 UNL     1      19.657   1.045  51.742  1.00  0.00     0.309 C 
HETATM   30  C15 UNL     1      18.423   3.007  51.509  1.00  0.00     0.309 C 
ENDBRANCH  27  28
ENDBRANCH  11  27
TORSDOF 6
ENDMDL
MODEL 2
REMARK VINA RESULT:      -7.8      2.878      7.970
REMARK  6 active torsions:
REMARK  status: ('A' for Active; 'I' for Inactive)
REMARK    1  A    between atoms: C3_3  and  N1_4 
REMARK    2  A    between atoms: N1_4  and  C4_5 
REMARK    3  A    between atoms: C12_15  and  C13_16 
REMARK    4  A    between atoms: C13_16  and  N4_17 
REMARK    5  A    between atoms: C18_24  and  O2_25 
REMARK    6  A    between atoms: O2_25  and  C19_26 
ROOT
HETATM    1  C4  UNL     1      22.676   2.919  51.730  1.00  0.00     0.063 A 
HETATM    2  C5  UNL     1      21.717   3.888  51.879  1.00  0.00     0.089 A 
HETATM    3  C6  UNL     1      21.866   5.277  51.556  1.00  0.00     0.103 C 
HETATM    4  N2  UNL     1      21.983   6.411  51.297  1.00  0.00    -0.191 NA
HETATM    5  C7  UNL     1      20.470   3.591  52.374  1.00  0.00     0.142 A 
HETATM    6  N3  UNL     1      20.348   2.282  52.670  1.00  0.00    -0.259 NA
HETATM    7  C8  UNL     1      21.280   1.328  52.529  1.00  0.00     0.067 A 
HETATM    8  C9  UNL     1      22.537   1.586  52.037  1.00  0.00     0.003 A 
HETATM    9  C10 UNL     1      23.759   0.836  51.742  1.00  0.00     0.087 C 
HETATM   10  C11 UNL     1      24.645   0.631  52.869  1.00  0.00     0.012 C 
HETATM   11  C12 UNL     1      25.819   0.843  53.371  1.00  0.00     0.016 C 
HETATM   12  C16 UNL     1      24.039  -0.263  53.877  1.00  0.00     0.247 C 
HETATM   13  O1  UNL     1      24.481  -0.783  54.934  1.00  0.00    -0.268 OA
HETATM   14  N5  UNL     1      22.826  -0.937  54.182  1.00  0.00    -0.351 N 
HETATM   15  C17 UNL     1      21.630  -1.622  54.510  1.00  0.00     0.187 C 
HETATM   16  C18 UNL     1      20.517  -1.034  53.672  1.00  0.00     0.066 C 
HETATM   17  C21 UNL     1      20.701   0.119  53.033  1.00  0.00     0.066 C 
HETATM   18  H19 UNL     1      22.604  -0.473  53.293  1.00  0.00     0.163 HD
ENDROOT
BRANCH   1  19
HETATM   19  N1  UNL     1      23.891   3.438  51.201  1.00  0.00    -0.364 N 
HETATM   20  H6  UNL     1      24.874   3.544  51.515  1.00  0.00     0.165 HD
BRANCH  19  21
HETATM   21  C3  UNL     1      24.232   4.036  49.983  1.00  0.00     0.084 C 
HETATM   22  C2  UNL     1      25.398   3.919  49.310  1.00  0.00    -0.014 C 
HETATM   23  C1  UNL     1      26.451   3.051  49.932  1.00  0.00     0.037 C 
ENDBRANCH  19  21
ENDBRANCH   1  19
BRANCH  16  24
HETATM   24  O2  UNL     1      19.483  -1.897  53.773  1.00  0.00    -0.354 OA
BRANCH  24  25
HETATM   25  C19 UNL     1      18.136  -1.697  53.449  1.00  0.00     0.171 C 
HETATM   26  C20 UNL     1      17.447  -3.055  53.598  1.00  0.00     0.034 C 
ENDBRANCH  24  25
ENDBRANCH  16  24
BRANCH  11  27
HETATM   27  C13 UNL     1      26.926   1.586  52.731  1.00  0.00     0.299 C 
BRANCH  27  28
HETATM   28  N4  UNL     1      28.211   1.232  53.321  1.00  0.00     0.083 N 
HETATM   29  C14 UNL     1      28.897   2.438  53.775  1.00  0.00     0.309 C 
HETATM   30  C15 UNL     1      28.059   0.378  54.470  1.00  0.00     0.309 C 
ENDBRANCH  27  28
ENDBRANCH  11  27
TORSDOF 6
ENDMDL
MODEL 3
REMARK VINA RESULT:      -7.7      3.092      5.136
REMARK  6 active torsions:
REMARK  status: ('A' for Active; 'I' for Inactive)
REMARK    1  A    between atoms: C3_3  and  N1_4 
REMARK    2  A    between atoms: N1_4  and  C4_5 
REMARK    3  A    between atoms: C12_15  and  C13_16 
REMARK    4  A    between atoms: C13_16  and  N4_17 
REMARK    5  A    between atoms: C18_24  and  O2_25 
REMARK    6  A    between atoms: O2_25  and  C19_26 
ROOT
HETATM    1  C4  UNL     1      21.214  -0.025  52.617  1.00  0.00     0.063 A 
HETATM    2  C5  UNL     1      20.637  -0.901  53.500  1.00  0.00     0.089 A 
HETATM    3  C6  UNL     1      19.247  -1.248  53.556  1.00  0.00     0.103 C 
HETATM    4  N2  UNL     1      18.114  -1.532  53.606  1.00  0.00    -0.191 NA
HETATM    5  C7  UNL     1      21.383  -1.555  54.452  1.00  0.00     0.142 A 
HETATM    6  N3  UNL     1      22.686  -1.218  54.383  1.00  0.00    -0.259 NA
HETATM    7  C8  UNL     1      23.260  -0.362  53.525  1.00  0.00     0.067 A 
HETATM    8  C9  UNL     1      22.547   0.309  52.560  1.00  0.00     0.003 A 
HETATM    9  C10 UNL     1      22.816   1.268  51.487  1.00  0.00     0.087 C 
HETATM   10  C11 UNL     1      22.858   2.656  51.896  1.00  0.00     0.012 C 
HETATM   11  C12 UNL     1      22.338   3.835  51.769  1.00  0.00     0.016 C 
HETATM   12  C16 UNL     1      24.016   2.928  52.770  1.00  0.00     0.247 C 
HETATM   13  O1  UNL     1      24.490   3.986  53.259  1.00  0.00    -0.268 OA
HETATM   14  N5  UNL     1      25.081   2.271  53.444  1.00  0.00    -0.351 N 
HETATM   15  C17 UNL     1      26.154   1.642  54.124  1.00  0.00     0.187 C 
HETATM   16  C18 UNL     1      25.862   0.158  54.173  1.00  0.00     0.066 C 
HETATM   17  C21 UNL     1      24.644  -0.291  53.887  1.00  0.00     0.066 C 
HETATM   18  H19 UNL     1      24.609   1.494  52.965  1.00  0.00     0.163 HD
ENDROOT
BRANCH   1  19
HETATM   19  N1  UNL     1      20.267   0.538  51.718  1.00  0.00    -0.364 N 
HETATM   20  H6  UNL     1      20.026   0.452  50.713  1.00  0.00     0.165 HD
BRANCH  19  21
HETATM   21  C3  UNL     1      19.239   1.477  51.867  1.00  0.00     0.084 C 
HETATM   22  C2  UNL     1      18.015   1.451  51.295  1.00  0.00    -0.014 C 
HETATM   23  C1  UNL     1      17.715   0.287  50.399  1.00  0.00     0.037 C 
ENDBRANCH  19  21
ENDBRANCH   1  19
BRANCH  16  24
HETATM   24  O2  UNL     1      27.020  -0.433  54.536  1.00  0.00    -0.354 OA
BRANCH  24  25
HETATM   25  C19 UNL     1      28.290   0.137  54.689  1.00  0.00     0.171 C 
HETATM   26  C20 UNL     1      29.259  -0.737  53.890  1.00  0.00     0.034 C 
ENDBRANCH  24  25
ENDBRANCH  16  24
BRANCH  11  27
HETATM   27  C13 UNL     1      21.201   4.204  50.897  1.00  0.00     0.299 C 
BRANCH  27  28
HETATM   28  N4  UNL     1      21.663   4.752  49.629  1.00  0.00     0.083 N 
HETATM   29  C14 UNL     1      21.519   3.753  48.574  1.00  0.00     0.309 C 
HETATM   30  C15 UNL     1      20.894   5.901  49.226  1.00  0.00     0.309 C 
ENDBRANCH  27  28
ENDBRANCH  11  27
TORSDOF 6
ENDMDL
MODEL 4
REMARK VINA RESULT:      -7.7      2.497      5.454
REMARK  6 active torsions:
REMARK  status: ('A' for Active; 'I' for Inactive)
REMARK    1  A    between atoms: C3_3  and  N1_4 
REMARK    2  A    between atoms: N1_4  and  C4_5 
REMARK    3  A    between atoms: C12_15  and  C13_16 
REMARK    4  A    between atoms: C13_16  and  N4_17 
REMARK    5  A    between atoms: C18_24  and  O2_25 
REMARK    6  A    between atoms: O2_25  and  C19_26 
ROOT
HETATM    1  C4  UNL     1      24.556   4.035  51.013  1.00  0.00     0.063 A 
HETATM    2  C5  UNL     1      25.305   4.391  49.921  1.00  0.00     0.089 A 
HETATM    3  C6  UNL     1      25.004   5.450  49.003  1.00  0.00     0.103 C 
HETATM    4  N2  UNL     1      24.762   6.311  48.250  1.00  0.00    -0.191 NA
HETATM    5  C7  UNL     1      26.467   3.730  49.602  1.00  0.00     0.142 A 
HETATM    6  N3  UNL     1      26.735   2.739  50.476  1.00  0.00    -0.259 NA
HETATM    7  C8  UNL     1      26.008   2.383  51.545  1.00  0.00     0.067 A 
HETATM    8  C9  UNL     1      24.843   3.020  51.897  1.00  0.00     0.003 A 
HETATM    9  C10 UNL     1      23.832   2.926  52.951  1.00  0.00     0.087 C 
HETATM   10  C11 UNL     1      22.792   1.944  52.723  1.00  0.00     0.012 C 
HETATM   11  C12 UNL     1      21.526   1.733  52.560  1.00  0.00     0.016 C 
HETATM   12  C16 UNL     1      23.327   0.569  52.765  1.00  0.00     0.247 C 
HETATM   13  O1  UNL     1      22.781  -0.564  52.725  1.00  0.00    -0.268 OA
HETATM   14  N5  UNL     1      24.551  -0.147  52.862  1.00  0.00    -0.351 N 
HETATM   15  C17 UNL     1      25.756  -0.887  52.959  1.00  0.00     0.187 C 
HETATM   16  C18 UNL     1      26.901   0.057  52.668  1.00  0.00     0.066 C 
HETATM   17  C21 UNL     1      26.663   1.245  52.119  1.00  0.00     0.066 C 
HETATM   18  H19 UNL     1      24.862   0.831  52.909  1.00  0.00     0.163 HD
ENDROOT
BRANCH   1  19
HETATM   19  N1  UNL     1      23.398   4.847  51.162  1.00  0.00    -0.364 N 
HETATM   20  H6  UNL     1      23.082   5.618  51.780  1.00  0.00     0.165 HD
BRANCH  19  21
HETATM   21  C3  UNL     1      22.175   4.912  50.484  1.00  0.00     0.084 C 
HETATM   22  C2  UNL     1      21.447   6.017  50.210  1.00  0.00    -0.014 C 
HETATM   23  C1  UNL     1      22.006   7.326  50.682  1.00  0.00     0.037 C 
ENDBRANCH  19  21
ENDBRANCH   1  19
BRANCH  16  24
HETATM   24  O2  UNL     1      28.020  -0.585  53.069  1.00  0.00    -0.354 OA
BRANCH  24  25
HETATM   25  C19 UNL     1      28.888  -0.266  54.120  1.00  0.00     0.171 C 
HETATM   26  C20 UNL     1      30.219  -0.953  53.809  1.00  0.00     0.034 C 
ENDBRANCH  24  25
ENDBRANCH  16  24
BRANCH  11  27
HETATM   27  C13 UNL     1      20.457   2.755  52.562  1.00  0.00     0.299 C 
BRANCH  27  28
HETATM   28  N4  UNL     1      19.243   2.254  51.931  1.00  0.00     0.083 N 
HETATM   29  C14 UNL     1      19.202   2.670  50.533  1.00  0.00     0.309 C 
HETATM   30  C15 UNL     1      19.185   0.815  51.942  1.00  0.00     0.309 C 
ENDBRANCH  27  28
ENDBRANCH  11  27
TORSDOF 6
ENDMDL
MODEL 5
REMARK VINA RESULT:      -7.4      3.455      8.493
REMARK  6 active torsions:
REMARK  status: ('A' for Active; 'I' for Inactive)
REMARK    1  A    between atoms: C3_3  and  N1_4 
REMARK    2  A    between atoms: N1_4  and  C4_5 
REMARK    3  A    between atoms: C12_15  and  C13_16 
REMARK    4  A    between atoms: C13_16  and  N4_17 
REMARK    5  A    between atoms: C18_24  and  O2_25 
REMARK    6  A    between atoms: O2_25  and  C19_26 
ROOT
HETATM    1  C4  UNL     1      21.008   2.241  51.399  1.00  0.00     0.063 A 
HETATM    2  C5  UNL     1      20.251   3.380  51.311  1.00  0.00     0.089 A 
HETATM    3  C6  UNL     1      20.742   4.699  51.036  1.00  0.00     0.103 C 
HETATM    4  N2  UNL     1      21.138   5.776  50.815  1.00  0.00    -0.191 NA
HETATM    5  C7  UNL     1      18.887   3.350  51.485  1.00  0.00     0.142 A 
HETATM    6  N3  UNL     1      18.444   2.104  51.740  1.00  0.00    -0.259 NA
HETATM    7  C8  UNL     1      19.176   0.984  51.830  1.00  0.00     0.067 A 
HETATM    8  C9  UNL     1      20.540   0.974  51.661  1.00  0.00     0.003 A 
HETATM    9  C10 UNL     1      21.625  -0.008  51.673  1.00  0.00     0.087 C 
HETATM   10  C11 UNL     1      22.157  -0.325  52.982  1.00  0.00     0.012 C 
HETATM   11  C12 UNL     1      23.194  -0.318  53.756  1.00  0.00     0.016 C 
HETATM   12  C16 UNL     1      21.164  -1.039  53.810  1.00  0.00     0.247 C 
HETATM   13  O1  UNL     1      21.228  -1.584  54.942  1.00  0.00    -0.268 OA
HETATM   14  N5  UNL     1      19.805  -1.454  53.809  1.00  0.00    -0.351 N 
HETATM   15  C17 UNL     1      18.454  -1.883  53.833  1.00  0.00     0.187 C 
HETATM   16  C18 UNL     1      17.713  -1.133  52.749  1.00  0.00     0.066 C 
HETATM   17  C21 UNL     1      18.267  -0.068  52.176  1.00  0.00     0.066 C 
HETATM   18  H19 UNL     1      19.898  -0.998  52.893  1.00  0.00     0.163 HD
ENDROOT
BRANCH   1  19
HETATM   19  N1  UNL     1      22.391   2.494  51.184  1.00  0.00    -0.364 N 
HETATM   20  H6  UNL     1      23.213   2.768  51.755  1.00  0.00     0.165 HD
BRANCH  19  21
HETATM   21  C3  UNL     1      23.210   2.462  50.050  1.00  0.00     0.084 C 
HETATM   22  C2  UNL     1      24.233   3.294  49.753  1.00  0.00    -0.014 C 
HETATM   23  C1  UNL     1      24.531   4.376  50.748  1.00  0.00     0.037 C 
ENDBRANCH  19  21
ENDBRANCH   1  19
BRANCH  16  24
HETATM   24  O2  UNL     1      16.537  -1.777  52.593  1.00  0.00    -0.354 OA
BRANCH  24  25
HETATM   25  C19 UNL     1      15.460  -1.453  51.759  1.00  0.00     0.171 C 
HETATM   26  C20 UNL     1      14.566  -0.499  52.553  1.00  0.00     0.034 C 
ENDBRANCH  24  25
ENDBRANCH  16  24
BRANCH  11  27
HETATM   27  C13 UNL     1      24.546   0.170  53.408  1.00  0.00     0.299 C 
BRANCH  27  28
HETATM   28  N4  UNL     1      25.580  -0.649  54.025  1.00  0.00     0.083 N 
HETATM   29  C14 UNL     1      26.451  -1.209  52.996  1.00  0.00     0.309 C 
HETATM   30  C15 UNL     1      26.417   0.117  54.911  1.00  0.00     0.309 C 
ENDBRANCH  27  28
ENDBRANCH  11  27
TORSDOF 6
ENDMDL
MODEL 6
REMARK VINA RESULT:      -7.1      1.929      2.538
REMARK  6 active torsions:
REMARK  status: ('A' for Active; 'I' for Inactive)
REMARK    1  A    between atoms: C3_3  and  N1_4 
REMARK    2  A    between atoms: N1_4  and  C4_5 
REMARK    3  A    between atoms: C12_15  and  C13_16 
REMARK    4  A    between atoms: C13_16  and  N4_17 
REMARK    5  A    between atoms: C18_24  and  O2_25 
REMARK    6  A    between atoms: O2_25  and  C19_26 
ROOT
HETATM    1  C4  UNL     1      24.226   2.191  51.006  1.00  0.00     0.063 A 
HETATM    2  C5  UNL     1      25.010   1.474  51.872  1.00  0.00     0.089 A 
HETATM    3  C6  UNL     1      24.544   0.541  52.857  1.00  0.00     0.103 C 
HETATM    4  N2  UNL     1      24.168  -0.218  53.662  1.00  0.00    -0.191 NA
HETATM    5  C7  UNL     1      26.380   1.594  51.866  1.00  0.00     0.142 A 
HETATM    6  N3  UNL     1      26.800   2.472  50.934  1.00  0.00    -0.259 NA
HETATM    7  C8  UNL     1      26.041   3.179  50.084  1.00  0.00     0.067 A 
HETATM    8  C9  UNL     1      24.670   3.085  50.060  1.00  0.00     0.003 A 
HETATM    9  C10 UNL     1      23.559   3.663  49.303  1.00  0.00     0.087 C 
HETATM   10  C11 UNL     1      23.092   4.949  49.775  1.00  0.00     0.012 C 
HETATM   11  C12 UNL     1      22.101   5.627  50.258  1.00  0.00     0.016 C 
HETATM   12  C16 UNL     1      24.108   6.001  49.570  1.00  0.00     0.247 C 
HETATM   13  O1  UNL     1      24.092   7.249  49.730  1.00  0.00    -0.268 OA
HETATM   14  N5  UNL     1      25.452   6.184  49.146  1.00  0.00    -0.351 N 
HETATM   15  C17 UNL     1      26.789   6.395  48.725  1.00  0.00     0.187 C 
HETATM   16  C18 UNL     1      27.490   5.055  48.726  1.00  0.00     0.066 C 
HETATM   17  C21 UNL     1      26.936   4.013  49.339  1.00  0.00     0.066 C 
HETATM   18  H19 UNL     1      25.321   5.171  49.037  1.00  0.00     0.163 HD
ENDROOT
BRANCH   1  19
HETATM   19  N1  UNL     1      22.841   1.916  51.179  1.00  0.00    -0.364 N 
HETATM   20  H6  UNL     1      22.060   2.275  51.759  1.00  0.00     0.165 HD
BRANCH  19  21
HETATM   21  C3  UNL     1      21.961   1.001  50.589  1.00  0.00     0.084 C 
HETATM   22  C2  UNL     1      20.956   0.326  51.190  1.00  0.00    -0.014 C 
HETATM   23  C1  UNL     1      20.754   0.581  52.654  1.00  0.00     0.037 C 
ENDBRANCH  19  21
ENDBRANCH   1  19
BRANCH  16  24
HETATM   24  O2  UNL     1      28.636   5.238  48.035  1.00  0.00    -0.354 OA
BRANCH  24  25
HETATM   25  C19 UNL     1      29.447   6.377  47.964  1.00  0.00     0.171 C 
HETATM   26  C20 UNL     1      30.827   5.961  48.480  1.00  0.00     0.034 C 
ENDBRANCH  24  25
ENDBRANCH  16  24
BRANCH  11  27
HETATM   27  C13 UNL     1      20.746   5.111  50.553  1.00  0.00     0.299 C 
BRANCH  27  28
HETATM   28  N4  UNL     1      19.732   5.813  49.778  1.00  0.00     0.083 N 
HETATM   29  C14 UNL     1      20.130   7.204  49.583  1.00  0.00     0.309 C 
HETATM   30  C15 UNL     1      19.561   5.238  48.469  1.00  0.00     0.309 C 
ENDBRANCH  27  28
ENDBRANCH  11  27
TORSDOF 6
ENDMDL
MODEL 7
REMARK VINA RESULT:      -7.0      5.657      9.072
REMARK  6 active torsions:
REMARK  status: ('A' for Active; 'I' for Inactive)
REMARK    1  A    between atoms: C3_3  and  N1_4 
REMARK    2  A    between atoms: N1_4  and  C4_5 
REMARK    3  A    between atoms: C12_15  and  C13_16 
REMARK    4  A    between atoms: C13_16  and  N4_17 
REMARK    5  A    between atoms: C18_24  and  O2_25 
REMARK    6  A    between atoms: O2_25  and  C19_26 
ROOT
HETATM    1  C4  UNL     1      26.917   6.799  48.230  1.00  0.00     0.063 A 
HETATM    2  C5  UNL     1      26.269   5.708  48.750  1.00  0.00     0.089 A 
HETATM    3  C6  UNL     1      24.876   5.635  49.081  1.00  0.00     0.103 C 
HETATM    4  N2  UNL     1      23.742   5.570  49.355  1.00  0.00    -0.191 NA
HETATM    5  C7  UNL     1      26.936   4.534  49.007  1.00  0.00     0.142 A 
HETATM    6  N3  UNL     1      28.243   4.621  48.688  1.00  0.00    -0.259 NA
HETATM    7  C8  UNL     1      28.885   5.684  48.181  1.00  0.00     0.067 A 
HETATM    8  C9  UNL     1      28.253   6.873  47.910  1.00  0.00     0.003 A 
HETATM    9  C10 UNL     1      28.603   8.187  47.369  1.00  0.00     0.087 C 
HETATM   10  C11 UNL     1      29.153   9.123  48.327  1.00  0.00     0.012 C 
HETATM   11  C12 UNL     1      29.014  10.264  48.922  1.00  0.00     0.016 C 
HETATM   12  C16 UNL     1      30.479   8.689  48.808  1.00  0.00     0.247 C 
HETATM   13  O1  UNL     1      31.343   9.232  49.545  1.00  0.00    -0.268 OA
HETATM   14  N5  UNL     1      31.391   7.601  48.731  1.00  0.00    -0.351 N 
HETATM   15  C17 UNL     1      32.319   6.532  48.668  1.00  0.00     0.187 C 
HETATM   16  C18 UNL     1      31.592   5.321  48.128  1.00  0.00     0.066 C 
HETATM   17  C21 UNL     1      30.264   5.309  48.074  1.00  0.00     0.066 C 
HETATM   18  H19 UNL     1      30.619   7.287  48.129  1.00  0.00     0.163 HD
ENDROOT
BRANCH   1  19
HETATM   19  N1  UNL     1      26.044   7.906  48.040  1.00  0.00    -0.364 N 
HETATM   20  H6  UNL     1      25.761   8.753  48.568  1.00  0.00     0.165 HD
BRANCH  19  21
HETATM   21  C3  UNL     1      25.187   8.288  47.001  1.00  0.00     0.084 C 
HETATM   22  C2  UNL     1      23.974   8.874  47.111  1.00  0.00    -0.014 C 
HETATM   23  C1  UNL     1      23.484   9.152  48.502  1.00  0.00     0.037 C 
ENDBRANCH  19  21
ENDBRANCH   1  19
BRANCH  16  24
HETATM   24  O2  UNL     1      32.553   4.434  47.792  1.00  0.00    -0.354 OA
BRANCH  24  25
HETATM   25  C19 UNL     1      33.944   4.560  47.898  1.00  0.00     0.171 C 
HETATM   26  C20 UNL     1      34.521   3.150  47.759  1.00  0.00     0.034 C 
ENDBRANCH  24  25
ENDBRANCH  16  24
BRANCH  11  27
HETATM   27  C13 UNL     1      27.909  11.228  48.727  1.00  0.00     0.299 C 
BRANCH  27  28
HETATM   28  N4  UNL     1      28.314  12.579  49.090  1.00  0.00     0.083 N 
HETATM   29  C14 UNL     1      29.757  12.727  48.924  1.00  0.00     0.309 C 
HETATM   30  C15 UNL     1      27.692  13.572  48.253  1.00  0.00     0.309 C 
ENDBRANCH  27  28
ENDBRANCH  11  27
TORSDOF 6
ENDMDL
MODEL 8
REMARK VINA RESULT:      -6.9      1.925      4.964
REMARK  6 active torsions:
REMARK  status: ('A' for Active; 'I' for Inactive)
REMARK    1  A    between atoms: C3_3  and  N1_4 
REMARK    2  A    between atoms: N1_4  and  C4_5 
REMARK    3  A    between atoms: C12_15  and  C13_16 
REMARK    4  A    between atoms: C13_16  and  N4_17 
REMARK    5  A    between atoms: C18_24  and  O2_25 
REMARK    6  A    between atoms: O2_25  and  C19_26 
ROOT
HETATM    1  C4  UNL     1      21.767   2.425  51.108  1.00  0.00     0.063 A 
HETATM    2  C5  UNL     1      20.795   2.355  50.143  1.00  0.00     0.089 A 
HETATM    3  C6  UNL     1      19.698   1.432  50.118  1.00  0.00     0.103 C 
HETATM    4  N2  UNL     1      18.803   0.681  50.091  1.00  0.00    -0.191 NA
HETATM    5  C7  UNL     1      20.792   3.210  49.066  1.00  0.00     0.142 A 
HETATM    6  N3  UNL     1      21.828   4.070  49.107  1.00  0.00    -0.259 NA
HETATM    7  C8  UNL     1      22.784   4.145  50.045  1.00  0.00     0.067 A 
HETATM    8  C9  UNL     1      22.820   3.309  51.135  1.00  0.00     0.003 A 
HETATM    9  C10 UNL     1      23.659   3.108  52.317  1.00  0.00     0.087 C 
HETATM   10  C11 UNL     1      24.830   2.281  52.110  1.00  0.00     0.012 C 
HETATM   11  C12 UNL     1      25.456   1.196  52.434  1.00  0.00     0.016 C 
HETATM   12  C16 UNL     1      25.806   2.940  51.219  1.00  0.00     0.247 C 
HETATM   13  O1  UNL     1      26.975   2.642  50.861  1.00  0.00    -0.268 OA
HETATM   14  N5  UNL     1      25.966   4.089  50.398  1.00  0.00    -0.351 N 
HETATM   15  C17 UNL     1      26.154   5.228  49.575  1.00  0.00     0.187 C 
HETATM   16  C18 UNL     1      24.796   5.848  49.330  1.00  0.00     0.066 C 
HETATM   17  C21 UNL     1      23.690   5.168  49.618  1.00  0.00     0.066 C 
HETATM   18  H19 UNL     1      25.025   4.224  50.787  1.00  0.00     0.163 HD
ENDROOT
BRANCH   1  19
HETATM   19  N1  UNL     1      21.583   1.454  52.131  1.00  0.00    -0.364 N 
HETATM   20  H6  UNL     1      21.972   0.526  52.379  1.00  0.00     0.165 HD
BRANCH  19  21
HETATM   21  C3  UNL     1      20.754   1.389  53.257  1.00  0.00     0.084 C 
HETATM   22  C2  UNL     1      20.652   0.374  54.143  1.00  0.00    -0.014 C 
HETATM   23  C1  UNL     1      21.525  -0.821  53.900  1.00  0.00     0.037 C 
ENDBRANCH  19  21
ENDBRANCH   1  19
BRANCH  16  24
HETATM   24  O2  UNL     1      25.038   7.075  48.821  1.00  0.00    -0.354 OA
BRANCH  24  25
HETATM   25  C19 UNL     1      26.247   7.617  48.369  1.00  0.00     0.171 C 
HETATM   26  C20 UNL     1      26.004   8.087  46.933  1.00  0.00     0.034 C 
ENDBRANCH  24  25
ENDBRANCH  16  24
BRANCH  11  27
HETATM   27  C13 UNL     1      25.007   0.183  53.414  1.00  0.00     0.299 C 
BRANCH  27  28
HETATM   28  N4  UNL     1      26.130  -0.581  53.939  1.00  0.00     0.083 N 
HETATM   29  C14 UNL     1      27.022  -0.965  52.849  1.00  0.00     0.309 C 
HETATM   30  C15 UNL     1      26.914   0.186  54.872  1.00  0.00     0.309 C 
ENDBRANCH  27  28
ENDBRANCH  11  27
TORSDOF 6
ENDMDL
MODEL 9
REMARK VINA RESULT:      -6.7      2.670      3.426
REMARK  6 active torsions:
REMARK  status: ('A' for Active; 'I' for Inactive)
REMARK    1  A    between atoms: C3_3  and  N1_4 
REMARK    2  A    between atoms: N1_4  and  C4_5 
REMARK    3  A    between atoms: C12_15  and  C13_16 
REMARK    4  A    between atoms: C13_16  and  N4_17 
REMARK    5  A    between atoms: C18_24  and  O2_25 
REMARK    6  A    between atoms: O2_25  and  C19_26 
ROOT
HETATM    1  C4  UNL     1      23.349   0.681  52.565  1.00  0.00     0.063 A 
HETATM    2  C5  UNL     1      24.437   0.746  53.398  1.00  0.00     0.089 A 
HETATM    3  C6  UNL     1      24.957  -0.331  54.189  1.00  0.00     0.103 C 
HETATM    4  N2  UNL     1      25.383  -1.204  54.838  1.00  0.00    -0.191 NA
HETATM    5  C7  UNL     1      25.157   1.907  53.546  1.00  0.00     0.142 A 
HETATM    6  N3  UNL     1      24.655   2.906  52.794  1.00  0.00    -0.259 NA
HETATM    7  C8  UNL     1      23.591   2.853  51.979  1.00  0.00     0.067 A 
HETATM    8  C9  UNL     1      22.848   1.711  51.804  1.00  0.00     0.003 A 
HETATM    9  C10 UNL     1      21.682   1.286  51.026  1.00  0.00     0.087 C 
HETATM   10  C11 UNL     1      20.398   1.586  51.625  1.00  0.00     0.012 C 
HETATM   11  C12 UNL     1      19.290   1.111  52.095  1.00  0.00     0.016 C 
HETATM   12  C16 UNL     1      20.151   3.041  51.673  1.00  0.00     0.247 C 
HETATM   13  O1  UNL     1      19.150   3.728  52.003  1.00  0.00    -0.268 OA
HETATM   14  N5  UNL     1      20.784   4.288  51.416  1.00  0.00    -0.351 N 
HETATM   15  C17 UNL     1      21.389   5.544  51.166  1.00  0.00     0.187 C 
HETATM   16  C18 UNL     1      22.881   5.322  51.050  1.00  0.00     0.066 C 
HETATM   17  C21 UNL     1      23.418   4.174  51.453  1.00  0.00     0.066 C 
HETATM   18  H19 UNL     1      21.511   3.611  51.154  1.00  0.00     0.163 HD
ENDROOT
BRANCH   1  19
HETATM   19  N1  UNL     1      22.752  -0.610  52.557  1.00  0.00    -0.364 N 
HETATM   20  H6  UNL     1      22.441  -1.301  51.848  1.00  0.00     0.165 HD
BRANCH  19  21
HETATM   21  C3  UNL     1      22.337  -1.485  53.568  1.00  0.00     0.084 C 
HETATM   22  C2  UNL     1      21.589  -1.189  54.653  1.00  0.00    -0.014 C 
HETATM   23  C1  UNL     1      21.146   0.237  54.796  1.00  0.00     0.037 C 
ENDBRANCH  19  21
ENDBRANCH   1  19
BRANCH  16  24
HETATM   24  O2  UNL     1      23.382   6.455  50.512  1.00  0.00    -0.354 OA
BRANCH  24  25
HETATM   25  C19 UNL     1      22.832   7.743  50.504  1.00  0.00     0.171 C 
HETATM   26  C20 UNL     1      23.394   8.448  49.268  1.00  0.00     0.034 C 
ENDBRANCH  24  25
ENDBRANCH  16  24
BRANCH  11  27
HETATM   27  C13 UNL     1      18.911  -0.316  52.176  1.00  0.00     0.299 C 
BRANCH  27  28
HETATM   28  N4  UNL     1      17.532  -0.522  51.755  1.00  0.00     0.083 N 
HETATM   29  C14 UNL     1      16.833  -1.352  52.732  1.00  0.00     0.309 C 
HETATM   30  C15 UNL     1      16.805   0.718  51.664  1.00  0.00     0.309 C 
ENDBRANCH  27  28
ENDBRANCH  11  27
TORSDOF 6
ENDMDL
