MODEL 1
REMARK VINA RESULT:      -8.2      0.000      0.000
REMARK  6 active torsions:
REMARK  status: ('A' for Active; 'I' for Inactive)
REMARK    1  A    between atoms: C2_2  and  C3_3 
REMARK    2  A    between atoms: C3_3  and  O1_4 
REMARK    3  A    between atoms: C3_3  and  N1_5 
REMARK    4  A    between atoms: N1_5  and  C4_6 
REMARK    5  A    between atoms: C7_9  and  N2_10 
REMARK    6  A    between atoms: N2_10  and  C8_11 
ROOT
HETATM    1  C4  UNL     1      26.518   0.419  54.447  1.00  0.00     0.126 A 
HETATM    2  C5  UNL     1      25.675   0.822  53.435  1.00  0.00     0.068 A 
HETATM    3  C6  UNL     1      24.386   0.380  53.248  1.00  0.00     0.044 A 
HETATM    4  C7  UNL     1      23.556   0.792  52.232  1.00  0.00     0.142 A 
HETATM    5  N3  UNL     1      22.349   0.223  52.256  1.00  0.00    -0.224 NA
HETATM    6  C14 UNL     1      21.892  -0.668  53.133  1.00  0.00     0.236 A 
HETATM    7  N4  UNL     1      22.727  -1.047  54.110  1.00  0.00    -0.240 NA
HETATM    8  C15 UNL     1      23.969  -0.538  54.183  1.00  0.00     0.089 A 
HETATM    9  C16 UNL     1      24.799  -0.953  55.204  1.00  0.00     0.151 A 
HETATM   10  N5  UNL     1      26.045  -0.495  55.344  1.00  0.00    -0.241 NA
ENDROOT
BRANCH   4  11
HETATM   11  N2  UNL     1      24.023   1.738  51.290  1.00  0.00    -0.340 N 
HETATM   12  H10 UNL     1      24.468   1.437  50.404  1.00  0.00     0.167 HD
BRANCH  11  13
HETATM   13  C8  UNL     1      23.996   3.146  51.328  1.00  0.00     0.035 A 
HETATM   14  C9  UNL     1      23.313   3.921  52.242  1.00  0.00     0.032 A 
HETATM   15  C10 UNL     1      23.313   5.294  52.243  1.00  0.00     0.046 A 
HETATM   16  C11 UNL     1      24.021   5.995  51.299  1.00  0.00     0.138 A 
HETATM   17  F1  UNL     1      23.949   7.337  51.397  1.00  0.00    -0.204 F 
HETATM   18  C12 UNL     1      24.716   5.265  50.369  1.00  0.00     0.074 A 
HETATM   19 CL1  UNL     1      25.603   6.207  49.185  1.00  0.00    -0.081 Cl
HETATM   20  C13 UNL     1      24.692   3.887  50.400  1.00  0.00     0.056 A 
ENDBRANCH  11  13
ENDBRANCH   4  11
BRANCH   1  21
HETATM   21  N1  UNL     1      27.844   0.908  54.594  1.00  0.00    -0.349 N 
HETATM   22  H8  UNL     1      28.110   1.263  55.559  1.00  0.00     0.163 HD
BRANCH  21  23
HETATM   23  C3  UNL     1      28.760   0.917  53.498  1.00  0.00     0.218 C 
BRANCH  23  24
HETATM   24  C2  UNL     1      29.906  -0.056  53.631  1.00  0.00     0.049 C 
HETATM   25  C1  UNL     1      29.477  -1.482  53.415  1.00  0.00     0.009 C 
ENDBRANCH  23  24
BRANCH  23  26
HETATM   26  O1  UNL     1      29.250   2.214  53.348  1.00  0.00    -0.377 OA
HETATM   27  H7  UNL     1      30.087   2.315  53.890  1.00  0.00     0.212 HD
ENDBRANCH  23  26
ENDBRANCH  21  23
ENDBRANCH   1  21
TORSDOF 6
ENDMDL
MODEL 2
REMARK VINA RESULT:      -8.2      2.489      4.620
REMARK  6 active torsions:
REMARK  status: ('A' for Active; 'I' for Inactive)
REMARK    1  A    between atoms: C2_2  and  C3_3 
REMARK    2  A    between atoms: C3_3  and  O1_4 
REMARK    3  A    between atoms: C3_3  and  N1_5 
REMARK    4  A    between atoms: N1_5  and  C4_6 
REMARK    5  A    between atoms: C7_9  and  N2_10 
REMARK    6  A    between atoms: N2_10  and  C8_11 
ROOT
HETATM    1  C4  UNL     1      24.394  -0.529  53.567  1.00  0.00     0.126 A 
HETATM    2  C5  UNL     1      25.036   0.316  52.688  1.00  0.00     0.068 A 
HETATM    3  C6  UNL     1      26.215   0.980  52.937  1.00  0.00     0.044 A 
HETATM    4  C7  UNL     1      26.842   1.820  52.049  1.00  0.00     0.142 A 
HETATM    5  N3  UNL     1      27.975   2.350  52.515  1.00  0.00    -0.224 NA
HETATM    6  C14 UNL     1      28.531   2.150  53.708  1.00  0.00     0.236 A 
HETATM    7  N4  UNL     1      27.892   1.325  54.548  1.00  0.00    -0.240 NA
HETATM    8  C15 UNL     1      26.741   0.735  54.183  1.00  0.00     0.089 A 
HETATM    9  C16 UNL     1      26.113  -0.108  55.078  1.00  0.00     0.151 A 
HETATM   10  N5  UNL     1      24.967  -0.731  54.789  1.00  0.00    -0.241 NA
ENDROOT
BRANCH   4  11
HETATM   11  N2  UNL     1      26.268   2.045  50.776  1.00  0.00    -0.340 N 
HETATM   12  H10 UNL     1      26.038   1.255  50.145  1.00  0.00     0.167 HD
BRANCH  11  13
HETATM   13  C8  UNL     1      25.915   3.251  50.140  1.00  0.00     0.035 A 
HETATM   14  C9  UNL     1      24.645   3.780  50.051  1.00  0.00     0.032 A 
HETATM   15  C10 UNL     1      24.343   4.962  49.420  1.00  0.00     0.046 A 
HETATM   16  C11 UNL     1      25.327   5.708  48.822  1.00  0.00     0.138 A 
HETATM   17  F1  UNL     1      24.916   6.848  48.234  1.00  0.00    -0.204 F 
HETATM   18  C12 UNL     1      26.607   5.220  48.886  1.00  0.00     0.074 A 
HETATM   19 CL1  UNL     1      27.828   6.209  48.107  1.00  0.00    -0.081 Cl
HETATM   20  C13 UNL     1      26.872   4.029  49.528  1.00  0.00     0.056 A 
ENDBRANCH  11  13
ENDBRANCH   4  11
BRANCH   1  21
HETATM   21  N1  UNL     1      23.175  -1.191  53.259  1.00  0.00    -0.349 N 
HETATM   22  H8  UNL     1      23.163  -1.761  52.363  1.00  0.00     0.163 HD
BRANCH  21  23
HETATM   23  C3  UNL     1      22.036  -1.090  54.115  1.00  0.00     0.218 C 
BRANCH  23  24
HETATM   24  C2  UNL     1      21.500   0.310  54.282  1.00  0.00     0.049 C 
HETATM   25  C1  UNL     1      21.031   0.906  52.983  1.00  0.00     0.009 C 
ENDBRANCH  23  24
BRANCH  23  26
HETATM   26  O1  UNL     1      22.375  -1.624  55.358  1.00  0.00    -0.377 OA
HETATM   27  H7  UNL     1      22.479  -2.617  55.272  1.00  0.00     0.212 HD
ENDBRANCH  23  26
ENDBRANCH  21  23
ENDBRANCH   1  21
TORSDOF 6
ENDMDL
MODEL 3
REMARK VINA RESULT:      -8.2      1.132      1.254
REMARK  6 active torsions:
REMARK  status: ('A' for Active; 'I' for Inactive)
REMARK    1  A    between atoms: C2_2  and  C3_3 
REMARK    2  A    between atoms: C3_3  and  O1_4 
REMARK    3  A    between atoms: C3_3  and  N1_5 
REMARK    4  A    between atoms: N1_5  and  C4_6 
REMARK    5  A    between atoms: C7_9  and  N2_10 
REMARK    6  A    between atoms: N2_10  and  C8_11 
ROOT
HETATM    1  C4  UNL     1      25.617  -0.514  54.774  1.00  0.00     0.126 A 
HETATM    2  C5  UNL     1      24.770  -0.073  53.781  1.00  0.00     0.068 A 
HETATM    3  C6  UNL     1      23.415  -0.299  53.729  1.00  0.00     0.044 A 
HETATM    4  C7  UNL     1      22.584   0.148  52.730  1.00  0.00     0.142 A 
HETATM    5  N3  UNL     1      21.305  -0.196  52.897  1.00  0.00    -0.224 NA
HETATM    6  C14 UNL     1      20.780  -0.901  53.896  1.00  0.00     0.236 A 
HETATM    7  N4  UNL     1      21.619  -1.321  54.853  1.00  0.00    -0.240 NA
HETATM    8  C15 UNL     1      22.931  -1.032  54.787  1.00  0.00     0.089 A 
HETATM    9  C16 UNL     1      23.762  -1.482  55.792  1.00  0.00     0.151 A 
HETATM   10  N5  UNL     1      25.075  -1.237  55.798  1.00  0.00    -0.241 NA
ENDROOT
BRANCH   4  11
HETATM   11  N2  UNL     1      23.121   0.900  51.659  1.00  0.00    -0.340 N 
HETATM   12  H10 UNL     1      23.380   0.446  50.763  1.00  0.00     0.167 HD
BRANCH  11  13
HETATM   13  C8  UNL     1      23.399   2.277  51.567  1.00  0.00     0.035 A 
HETATM   14  C9  UNL     1      22.823   3.274  52.326  1.00  0.00     0.032 A 
HETATM   15  C10 UNL     1      23.123   4.609  52.203  1.00  0.00     0.046 A 
HETATM   16  C11 UNL     1      24.046   5.038  51.284  1.00  0.00     0.138 A 
HETATM   17  F1  UNL     1      24.260   6.367  51.251  1.00  0.00    -0.204 F 
HETATM   18  C12 UNL     1      24.645   4.080  50.505  1.00  0.00     0.074 A 
HETATM   19 CL1  UNL     1      25.817   4.678  49.346  1.00  0.00    -0.081 Cl
HETATM   20  C13 UNL     1      24.319   2.749  50.657  1.00  0.00     0.056 A 
ENDBRANCH  11  13
ENDBRANCH   4  11
BRANCH   1  21
HETATM   21  N1  UNL     1      27.014  -0.251  54.779  1.00  0.00    -0.349 N 
HETATM   22  H8  UNL     1      27.590  -0.786  55.492  1.00  0.00     0.163 HD
BRANCH  21  23
HETATM   23  C3  UNL     1      27.598   0.681  53.868  1.00  0.00     0.218 C 
BRANCH  23  24
HETATM   24  C2  UNL     1      29.048   0.417  53.545  1.00  0.00     0.049 C 
HETATM   25  C1  UNL     1      29.376  -1.051  53.532  1.00  0.00     0.009 C 
ENDBRANCH  23  24
BRANCH  23  26
HETATM   26  O1  UNL     1      27.454   1.962  54.401  1.00  0.00    -0.377 OA
HETATM   27  H7  UNL     1      26.529   2.296  54.209  1.00  0.00     0.212 HD
ENDBRANCH  23  26
ENDBRANCH  21  23
ENDBRANCH   1  21
TORSDOF 6
ENDMDL
MODEL 4
REMARK VINA RESULT:      -8.2      3.936      6.477
REMARK  6 active torsions:
REMARK  status: ('A' for Active; 'I' for Inactive)
REMARK    1  A    between atoms: C2_2  and  C3_3 
REMARK    2  A    between atoms: C3_3  and  O1_4 
REMARK    3  A    between atoms: C3_3  and  N1_5 
REMARK    4  A    between atoms: N1_5  and  C4_6 
REMARK    5  A    between atoms: C7_9  and  N2_10 
REMARK    6  A    between atoms: N2_10  and  C8_11 
ROOT
HETATM    1  C4  UNL     1      22.222   0.696  51.987  1.00  0.00     0.126 A 
HETATM    2  C5  UNL     1      23.451   1.270  52.226  1.00  0.00     0.068 A 
HETATM    3  C6  UNL     1      24.108   2.129  51.377  1.00  0.00     0.044 A 
HETATM    4  C7  UNL     1      25.335   2.694  51.631  1.00  0.00     0.142 A 
HETATM    5  N3  UNL     1      25.772   3.496  50.657  1.00  0.00    -0.224 NA
HETATM    6  C14 UNL     1      25.159   3.788  49.513  1.00  0.00     0.236 A 
HETATM    7  N4  UNL     1      23.965   3.219  49.298  1.00  0.00    -0.240 NA
HETATM    8  C15 UNL     1      23.427   2.393  50.212  1.00  0.00     0.089 A 
HETATM    9  C16 UNL     1      22.195   1.828  49.954  1.00  0.00     0.151 A 
HETATM   10  N5  UNL     1      21.596   0.997  50.812  1.00  0.00    -0.241 NA
ENDROOT
BRANCH   4  11
HETATM   11  N2  UNL     1      26.004   2.398  52.841  1.00  0.00    -0.340 N 
HETATM   12  H10 UNL     1      25.751   2.879  53.725  1.00  0.00     0.167 HD
BRANCH  11  13
HETATM   13  C8  UNL     1      27.046   1.488  53.103  1.00  0.00     0.035 A 
HETATM   14  C9  UNL     1      28.282   1.799  53.631  1.00  0.00     0.032 A 
HETATM   15  C10 UNL     1      29.273   0.879  53.871  1.00  0.00     0.046 A 
HETATM   16  C11 UNL     1      29.078  -0.450  53.589  1.00  0.00     0.138 A 
HETATM   17  F1  UNL     1      30.118  -1.261  53.865  1.00  0.00    -0.204 F 
HETATM   18  C12 UNL     1      27.862  -0.806  53.063  1.00  0.00     0.074 A 
HETATM   19 CL1  UNL     1      27.663  -2.514  52.720  1.00  0.00    -0.081 Cl
HETATM   20  C13 UNL     1      26.892   0.146  52.835  1.00  0.00     0.056 A 
ENDBRANCH  11  13
ENDBRANCH   4  11
BRANCH   1  21
HETATM   21  N1  UNL     1      21.586  -0.188  52.901  1.00  0.00    -0.349 N 
HETATM   22  H8  UNL     1      20.959  -0.932  52.476  1.00  0.00     0.163 HD
BRANCH  21  23
HETATM   23  C3  UNL     1      21.787  -0.072  54.310  1.00  0.00     0.218 C 
BRANCH  23  24
HETATM   24  C2  UNL     1      22.451  -1.267  54.949  1.00  0.00     0.049 C 
HETATM   25  C1  UNL     1      23.939  -1.094  55.083  1.00  0.00     0.009 C 
ENDBRANCH  23  24
BRANCH  23  26
HETATM   26  O1  UNL     1      20.550   0.165  54.910  1.00  0.00    -0.377 OA
HETATM   27  H7  UNL     1      19.821  -0.118  54.284  1.00  0.00     0.212 HD
ENDBRANCH  23  26
ENDBRANCH  21  23
ENDBRANCH   1  21
TORSDOF 6
ENDMDL
MODEL 5
REMARK VINA RESULT:      -7.8      2.791      5.088
REMARK  6 active torsions:
REMARK  status: ('A' for Active; 'I' for Inactive)
REMARK    1  A    between atoms: C2_2  and  C3_3 
REMARK    2  A    between atoms: C3_3  and  O1_4 
REMARK    3  A    between atoms: C3_3  and  N1_5 
REMARK    4  A    between atoms: N1_5  and  C4_6 
REMARK    5  A    between atoms: C7_9  and  N2_10 
REMARK    6  A    between atoms: N2_10  and  C8_11 
ROOT
HETATM    1  C4  UNL     1      21.579  -0.466  54.387  1.00  0.00     0.126 A 
HETATM    2  C5  UNL     1      22.442   0.135  53.497  1.00  0.00     0.068 A 
HETATM    3  C6  UNL     1      23.812   0.012  53.508  1.00  0.00     0.044 A 
HETATM    4  C7  UNL     1      24.660   0.618  52.612  1.00  0.00     0.142 A 
HETATM    5  N3  UNL     1      25.950   0.351  52.823  1.00  0.00    -0.224 NA
HETATM    6  C14 UNL     1      26.472  -0.413  53.779  1.00  0.00     0.236 A 
HETATM    7  N4  UNL     1      25.617  -0.989  54.636  1.00  0.00    -0.240 NA
HETATM    8  C15 UNL     1      24.293  -0.789  54.517  1.00  0.00     0.089 A 
HETATM    9  C16 UNL     1      23.445  -1.400  55.418  1.00  0.00     0.151 A 
HETATM   10  N5  UNL     1      22.118  -1.250  55.366  1.00  0.00    -0.241 NA
ENDROOT
BRANCH   4  11
HETATM   11  N2  UNL     1      24.125   1.435  51.588  1.00  0.00    -0.340 N 
HETATM   12  H10 UNL     1      23.657   1.020  50.762  1.00  0.00     0.167 HD
BRANCH  11  13
HETATM   13  C8  UNL     1      24.105   2.838  51.463  1.00  0.00     0.035 A 
HETATM   14  C9  UNL     1      23.456   3.718  52.303  1.00  0.00     0.032 A 
HETATM   15  C10 UNL     1      23.461   5.083  52.145  1.00  0.00     0.046 A 
HETATM   16  C11 UNL     1      24.140   5.664  51.104  1.00  0.00     0.138 A 
HETATM   17  F1  UNL     1      24.077   7.009  51.048  1.00  0.00    -0.204 F 
HETATM   18  C12 UNL     1      24.801   4.826  50.243  1.00  0.00     0.074 A 
HETATM   19 CL1  UNL     1      25.652   5.618  48.929  1.00  0.00    -0.081 Cl
HETATM   20  C13 UNL     1      24.773   3.461  50.433  1.00  0.00     0.056 A 
ENDBRANCH  11  13
ENDBRANCH   4  11
BRANCH   1  21
HETATM   21  N1  UNL     1      20.168  -0.305  54.330  1.00  0.00    -0.349 N 
HETATM   22  H8  UNL     1      19.741   0.351  55.047  1.00  0.00     0.163 HD
BRANCH  21  23
HETATM   23  C3  UNL     1      19.380  -0.993  53.358  1.00  0.00     0.218 C 
BRANCH  23  24
HETATM   24  C2  UNL     1      18.661  -0.093  52.383  1.00  0.00     0.049 C 
HETATM   25  C1  UNL     1      19.544   0.346  51.247  1.00  0.00     0.009 C 
ENDBRANCH  23  24
BRANCH  23  26
HETATM   26  O1  UNL     1      18.462  -1.799  54.030  1.00  0.00    -0.377 OA
HETATM   27  H7  UNL     1      18.511  -1.606  55.012  1.00  0.00     0.212 HD
ENDBRANCH  23  26
ENDBRANCH  21  23
ENDBRANCH   1  21
TORSDOF 6
ENDMDL
MODEL 6
REMARK VINA RESULT:      -7.7      3.715      5.328
REMARK  6 active torsions:
REMARK  status: ('A' for Active; 'I' for Inactive)
REMARK    1  A    between atoms: C2_2  and  C3_3 
REMARK    2  A    between atoms: C3_3  and  O1_4 
REMARK    3  A    between atoms: C3_3  and  N1_5 
REMARK    4  A    between atoms: N1_5  and  C4_6 
REMARK    5  A    between atoms: C7_9  and  N2_10 
REMARK    6  A    between atoms: N2_10  and  C8_11 
ROOT
HETATM    1  C4  UNL     1      26.349   1.977  53.053  1.00  0.00     0.126 A 
HETATM    2  C5  UNL     1      24.994   2.150  52.875  1.00  0.00     0.068 A 
HETATM    3  C6  UNL     1      24.388   2.563  51.711  1.00  0.00     0.044 A 
HETATM    4  C7  UNL     1      23.034   2.731  51.550  1.00  0.00     0.142 A 
HETATM    5  N3  UNL     1      22.682   3.140  50.329  1.00  0.00    -0.224 NA
HETATM    6  C14 UNL     1      23.484   3.391  49.297  1.00  0.00     0.236 A 
HETATM    7  N4  UNL     1      24.799   3.217  49.489  1.00  0.00    -0.240 NA
HETATM    8  C15 UNL     1      25.267   2.807  50.681  1.00  0.00     0.089 A 
HETATM    9  C16 UNL     1      26.627   2.639  50.839  1.00  0.00     0.151 A 
HETATM   10  N5  UNL     1      27.168   2.235  51.992  1.00  0.00    -0.241 NA
ENDROOT
BRANCH   4  11
HETATM   11  N2  UNL     1      22.164   2.470  52.634  1.00  0.00    -0.340 N 
HETATM   12  H10 UNL     1      21.967   3.194  53.349  1.00  0.00     0.167 HD
BRANCH  11  13
HETATM   13  C8  UNL     1      21.444   1.304  52.959  1.00  0.00     0.035 A 
HETATM   14  C9  UNL     1      21.836   0.333  53.857  1.00  0.00     0.032 A 
HETATM   15  C10 UNL     1      21.102  -0.792  54.146  1.00  0.00     0.046 A 
HETATM   16  C11 UNL     1      19.895  -1.017  53.535  1.00  0.00     0.138 A 
HETATM   17  F1  UNL     1      19.263  -2.151  53.894  1.00  0.00    -0.204 F 
HETATM   18  C12 UNL     1      19.465  -0.076  52.633  1.00  0.00     0.074 A 
HETATM   19 CL1  UNL     1      17.918  -0.410  51.879  1.00  0.00    -0.081 Cl
HETATM   20  C13 UNL     1      20.229   1.040  52.369  1.00  0.00     0.056 A 
ENDBRANCH  11  13
ENDBRANCH   4  11
BRANCH   1  21
HETATM   21  N1  UNL     1      26.923   1.547  54.279  1.00  0.00    -0.349 N 
HETATM   22  H8  UNL     1      26.849   2.223  55.095  1.00  0.00     0.163 HD
BRANCH  21  23
HETATM   23  C3  UNL     1      27.560   0.274  54.397  1.00  0.00     0.218 C 
BRANCH  23  24
HETATM   24  C2  UNL     1      29.068   0.324  54.378  1.00  0.00     0.049 C 
HETATM   25  C1  UNL     1      29.673  -0.864  53.681  1.00  0.00     0.009 C 
ENDBRANCH  23  24
BRANCH  23  26
HETATM   26  O1  UNL     1      27.096  -0.544  53.368  1.00  0.00    -0.377 OA
HETATM   27  H7  UNL     1      27.869  -0.824  52.795  1.00  0.00     0.212 HD
ENDBRANCH  23  26
ENDBRANCH  21  23
ENDBRANCH   1  21
TORSDOF 6
ENDMDL
MODEL 7
REMARK VINA RESULT:      -7.7      3.454      5.633
REMARK  6 active torsions:
REMARK  status: ('A' for Active; 'I' for Inactive)
REMARK    1  A    between atoms: C2_2  and  C3_3 
REMARK    2  A    between atoms: C3_3  and  O1_4 
REMARK    3  A    between atoms: C3_3  and  N1_5 
REMARK    4  A    between atoms: N1_5  and  C4_6 
REMARK    5  A    between atoms: C7_9  and  N2_10 
REMARK    6  A    between atoms: N2_10  and  C8_11 
ROOT
HETATM    1  C4  UNL     1      23.000   2.444  50.775  1.00  0.00     0.126 A 
HETATM    2  C5  UNL     1      23.424   1.385  51.548  1.00  0.00     0.068 A 
HETATM    3  C6  UNL     1      22.721   0.827  52.590  1.00  0.00     0.044 A 
HETATM    4  C7  UNL     1      23.157  -0.229  53.352  1.00  0.00     0.142 A 
HETATM    5  N3  UNL     1      22.301  -0.596  54.308  1.00  0.00    -0.224 NA
HETATM    6  C14 UNL     1      21.115  -0.059  54.582  1.00  0.00     0.236 A 
HETATM    7  N4  UNL     1      20.720   0.970  53.819  1.00  0.00    -0.240 NA
HETATM    8  C15 UNL     1      21.504   1.424  52.825  1.00  0.00     0.089 A 
HETATM    9  C16 UNL     1      21.062   2.485  52.062  1.00  0.00     0.151 A 
HETATM   10  N5  UNL     1      21.783   2.993  51.058  1.00  0.00    -0.241 NA
ENDROOT
BRANCH   4  11
HETATM   11  N2  UNL     1      24.415  -0.815  53.078  1.00  0.00    -0.340 N 
HETATM   12  H10 UNL     1      24.490  -1.687  52.523  1.00  0.00     0.167 HD
BRANCH  11  13
HETATM   13  C8  UNL     1      25.710  -0.402  53.449  1.00  0.00     0.035 A 
HETATM   14  C9  UNL     1      26.029   0.758  54.122  1.00  0.00     0.032 A 
HETATM   15  C10 UNL     1      27.308   1.125  54.466  1.00  0.00     0.046 A 
HETATM   16  C11 UNL     1      28.375   0.324  54.146  1.00  0.00     0.138 A 
HETATM   17  F1  UNL     1      29.582   0.782  54.532  1.00  0.00    -0.204 F 
HETATM   18  C12 UNL     1      28.104  -0.842  53.476  1.00  0.00     0.074 A 
HETATM   19 CL1  UNL     1      29.501  -1.829  53.090  1.00  0.00    -0.081 Cl
HETATM   20  C13 UNL     1      26.808  -1.176  53.148  1.00  0.00     0.056 A 
ENDBRANCH  11  13
ENDBRANCH   4  11
BRANCH   1  21
HETATM   21  N1  UNL     1      23.768   2.983  49.707  1.00  0.00    -0.349 N 
HETATM   22  H8  UNL     1      23.481   2.691  48.728  1.00  0.00     0.163 HD
BRANCH  21  23
HETATM   23  C3  UNL     1      24.862   3.868  49.951  1.00  0.00     0.218 C 
BRANCH  23  24
HETATM   24  C2  UNL     1      26.224   3.235  49.811  1.00  0.00     0.049 C 
HETATM   25  C1  UNL     1      26.757   2.722  51.122  1.00  0.00     0.009 C 
ENDBRANCH  23  24
BRANCH  23  26
HETATM   26  O1  UNL     1      24.714   4.405  51.230  1.00  0.00    -0.377 OA
HETATM   27  H7  UNL     1      23.738   4.491  51.440  1.00  0.00     0.212 HD
ENDBRANCH  23  26
ENDBRANCH  21  23
ENDBRANCH   1  21
TORSDOF 6
ENDMDL
MODEL 8
REMARK VINA RESULT:      -7.7      4.163      6.735
REMARK  6 active torsions:
REMARK  status: ('A' for Active; 'I' for Inactive)
REMARK    1  A    between atoms: C2_2  and  C3_3 
REMARK    2  A    between atoms: C3_3  and  O1_4 
REMARK    3  A    between atoms: C3_3  and  N1_5 
REMARK    4  A    between atoms: N1_5  and  C4_6 
REMARK    5  A    between atoms: C7_9  and  N2_10 
REMARK    6  A    between atoms: N2_10  and  C8_11 
ROOT
HETATM    1  C4  UNL     1      26.166   4.369  49.537  1.00  0.00     0.126 A 
HETATM    2  C5  UNL     1      25.992   3.641  50.694  1.00  0.00     0.068 A 
HETATM    3  C6  UNL     1      24.782   3.353  51.281  1.00  0.00     0.044 A 
HETATM    4  C7  UNL     1      24.626   2.625  52.436  1.00  0.00     0.142 A 
HETATM    5  N3  UNL     1      23.354   2.476  52.813  1.00  0.00    -0.224 NA
HETATM    6  C14 UNL     1      22.269   2.945  52.203  1.00  0.00     0.236 A 
HETATM    7  N4  UNL     1      22.458   3.651  51.079  1.00  0.00    -0.240 NA
HETATM    8  C15 UNL     1      23.699   3.863  50.606  1.00  0.00     0.089 A 
HETATM    9  C16 UNL     1      23.852   4.594  49.445  1.00  0.00     0.151 A 
HETATM   10  N5  UNL     1      25.050   4.848  48.914  1.00  0.00    -0.241 NA
ENDROOT
BRANCH   4  11
HETATM   11  N2  UNL     1      25.767   2.117  53.101  1.00  0.00    -0.340 N 
HETATM   12  H10 UNL     1      26.298   2.699  53.774  1.00  0.00     0.167 HD
BRANCH  11  13
HETATM   13  C8  UNL     1      26.377   0.850  53.017  1.00  0.00     0.035 A 
HETATM   14  C9  UNL     1      25.749  -0.333  52.690  1.00  0.00     0.032 A 
HETATM   15  C10 UNL     1      26.383  -1.550  52.620  1.00  0.00     0.046 A 
HETATM   16  C11 UNL     1      27.726  -1.656  52.879  1.00  0.00     0.138 A 
HETATM   17  F1  UNL     1      28.241  -2.897  52.780  1.00  0.00    -0.204 F 
HETATM   18  C12 UNL     1      28.392  -0.503  53.208  1.00  0.00     0.074 A 
HETATM   19 CL1  UNL     1      30.106  -0.691  53.530  1.00  0.00    -0.081 Cl
HETATM   20  C13 UNL     1      27.722   0.700  53.269  1.00  0.00     0.056 A 
ENDBRANCH  11  13
ENDBRANCH   4  11
BRANCH   1  21
HETATM   21  N1  UNL     1      27.442   4.638  48.973  1.00  0.00    -0.349 N 
HETATM   22  H8  UNL     1      28.149   3.847  49.011  1.00  0.00     0.163 HD
BRANCH  21  23
HETATM   23  C3  UNL     1      27.744   5.906  48.388  1.00  0.00     0.218 C 
BRANCH  23  24
HETATM   24  C2  UNL     1      29.159   6.043  47.885  1.00  0.00     0.049 C 
HETATM   25  C1  UNL     1      29.425   7.393  47.276  1.00  0.00     0.009 C 
ENDBRANCH  23  24
BRANCH  23  26
HETATM   26  O1  UNL     1      27.473   6.898  49.330  1.00  0.00    -0.377 OA
HETATM   27  H7  UNL     1      27.381   6.476  50.235  1.00  0.00     0.212 HD
ENDBRANCH  23  26
ENDBRANCH  21  23
ENDBRANCH   1  21
TORSDOF 6
ENDMDL
MODEL 9
REMARK VINA RESULT:      -7.5      3.563      6.268
REMARK  6 active torsions:
REMARK  status: ('A' for Active; 'I' for Inactive)
REMARK    1  A    between atoms: C2_2  and  C3_3 
REMARK    2  A    between atoms: C3_3  and  O1_4 
REMARK    3  A    between atoms: C3_3  and  N1_5 
REMARK    4  A    between atoms: N1_5  and  C4_6 
REMARK    5  A    between atoms: C7_9  and  N2_10 
REMARK    6  A    between atoms: N2_10  and  C8_11 
ROOT
HETATM    1  C4  UNL     1      23.967   4.970  50.890  1.00  0.00     0.126 A 
HETATM    2  C5  UNL     1      24.038   3.810  51.630  1.00  0.00     0.068 A 
HETATM    3  C6  UNL     1      23.228   2.710  51.470  1.00  0.00     0.044 A 
HETATM    4  C7  UNL     1      23.313   1.560  52.217  1.00  0.00     0.142 A 
HETATM    5  N3  UNL     1      22.419   0.629  51.877  1.00  0.00    -0.224 NA
HETATM    6  C14 UNL     1      21.493   0.705  50.925  1.00  0.00     0.236 A 
HETATM    7  N4  UNL     1      21.439   1.841  50.216  1.00  0.00    -0.240 NA
HETATM    8  C15 UNL     1      22.292   2.848  50.472  1.00  0.00     0.089 A 
HETATM    9  C16 UNL     1      22.205   4.002  49.720  1.00  0.00     0.151 A 
HETATM   10  N5  UNL     1      23.016   5.045  49.914  1.00  0.00    -0.241 NA
ENDROOT
BRANCH   4  11
HETATM   11  N2  UNL     1      24.290   1.458  53.234  1.00  0.00    -0.340 N 
HETATM   12  H10 UNL     1      24.141   1.889  54.165  1.00  0.00     0.167 HD
BRANCH  11  13
HETATM   13  C8  UNL     1      25.547   0.823  53.225  1.00  0.00     0.035 A 
HETATM   14  C9  UNL     1      25.815  -0.438  52.736  1.00  0.00     0.032 A 
HETATM   15  C10 UNL     1      27.059  -1.022  52.746  1.00  0.00     0.046 A 
HETATM   16  C11 UNL     1      28.141  -0.355  53.262  1.00  0.00     0.138 A 
HETATM   17  F1  UNL     1      29.310  -1.024  53.220  1.00  0.00    -0.204 F 
HETATM   18  C12 UNL     1      27.921   0.904  53.760  1.00  0.00     0.074 A 
HETATM   19 CL1  UNL     1      29.335   1.713  54.409  1.00  0.00    -0.081 Cl
HETATM   20  C13 UNL     1      26.659   1.457  53.733  1.00  0.00     0.056 A 
ENDBRANCH  11  13
ENDBRANCH   4  11
BRANCH   1  21
HETATM   21  N1  UNL     1      24.831   6.079  51.098  1.00  0.00    -0.349 N 
HETATM   22  H8  UNL     1      24.898   6.442  52.094  1.00  0.00     0.163 HD
BRANCH  21  23
HETATM   23  C3  UNL     1      25.563   6.665  50.021  1.00  0.00     0.218 C 
BRANCH  23  24
HETATM   24  C2  UNL     1      26.370   5.685  49.206  1.00  0.00     0.049 C 
HETATM   25  C1  UNL     1      27.426   6.361  48.374  1.00  0.00     0.009 C 
ENDBRANCH  23  24
BRANCH  23  26
HETATM   26  O1  UNL     1      26.398   7.652  50.545  1.00  0.00    -0.377 OA
HETATM   27  H7  UNL     1      25.927   8.114  51.299  1.00  0.00     0.212 HD
ENDBRANCH  23  26
ENDBRANCH  21  23
ENDBRANCH   1  21
TORSDOF 6
ENDMDL
