MODEL 1
REMARK VINA RESULT:      -7.9      0.000      0.000
REMARK  8 active torsions:
REMARK  status: ('A' for Active; 'I' for Inactive)
REMARK    1  A    between atoms: C2_2  and  C3_3 
REMARK    2  A    between atoms: C3_3  and  N1_4 
REMARK    3  A    between atoms: C3_3  and  C11_15 
REMARK    4  A    between atoms: N1_4  and  C4_5 
REMARK    5  A    between atoms: C5_6  and  C6_7 
REMARK       I    between atoms: C6_7  and  N2_9 
REMARK    6  A    between atoms: N2_9  and  C7_10 
REMARK    7  A    between atoms: C7_10  and  C8_11 
REMARK    8  A    between atoms: C8_11  and  N3_12 
ROOT
HETATM    1  C3  UNL     1      24.737   1.590  51.964  1.00  0.00     0.114 C 
ENDROOT
BRANCH   1   2
HETATM    2  C2  UNL     1      23.531   1.207  52.763  1.00  0.00     0.025 C 
HETATM    3  C1  UNL     1      22.396   0.599  51.988  1.00  0.00     0.007 C 
ENDBRANCH   1   2
BRANCH   1   4
HETATM    4  N1  UNL     1      25.003   3.014  52.099  1.00  0.00    -0.390 N 
HETATM    5  H7  UNL     1      25.467   3.915  51.971  1.00  0.00     0.159 HD
BRANCH   4   6
HETATM    6  C4  UNL     1      24.030   3.605  52.949  1.00  0.00     0.089 C 
HETATM    7  C5  UNL     1      23.397   4.753  52.778  1.00  0.00     0.090 C 
BRANCH   7   8
HETATM    8  C6  UNL     1      23.639   5.603  51.621  1.00  0.00     0.242 C 
HETATM    9  O1  UNL     1      23.275   5.224  50.476  1.00  0.00    -0.269 OA
HETATM   10  N2  UNL     1      24.277   6.854  51.750  1.00  0.00    -0.356 N 
HETATM   11  H10 UNL     1      24.556   7.111  52.743  1.00  0.00     0.162 HD
BRANCH  10  12
HETATM   12  C7  UNL     1      24.570   7.781  50.676  1.00  0.00     0.142 C 
BRANCH  12  13
HETATM   13  C8  UNL     1      25.972   7.580  50.151  1.00  0.00     0.135 C 
BRANCH  13  14
HETATM   14  N3  UNL     1      26.048   6.876  48.915  1.00  0.00    -0.419 N 
HETATM   15  C9  UNL     1      26.493   5.523  48.996  1.00  0.00     0.142 C 
HETATM   16  C10 UNL     1      24.999   7.129  47.978  1.00  0.00     0.142 C 
ENDBRANCH  13  14
ENDBRANCH  12  13
ENDBRANCH  10  12
ENDBRANCH   7   8
ENDBRANCH   4   6
ENDBRANCH   1   4
BRANCH   1  17
HETATM   17  C11 UNL     1      25.941   0.842  52.363  1.00  0.00    -0.030 A 
HETATM   18  C12 UNL     1      26.961   1.525  52.907  1.00  0.00     0.085 A 
HETATM   19  C13 UNL     1      28.188   1.986  53.505  1.00  0.00     0.267 A 
HETATM   20  O2  UNL     1      29.075   2.762  53.999  1.00  0.00    -0.266 OA
HETATM   21  N4  UNL     1      28.529   0.587  53.461  1.00  0.00    -0.223 NA
HETATM   22  C14 UNL     1      29.658   0.158  53.905  1.00  0.00     0.123 A 
HETATM   23  C15 UNL     1      29.374  -1.221  53.587  1.00  0.00     0.061 A 
HETATM   24  C16 UNL     1      28.335  -1.789  53.050  1.00  0.00     0.117 A 
HETATM   25  F1  UNL     1      28.772  -3.082  53.062  1.00  0.00    -0.206 F 
HETATM   26  C17 UNL     1      27.019  -1.528  52.505  1.00  0.00     0.043 A 
HETATM   27  C18 UNL     1      26.145  -0.589  52.251  1.00  0.00     0.012 A 
ENDBRANCH   1  17
TORSDOF 8
ENDMDL
MODEL 2
REMARK VINA RESULT:      -7.8      2.112      2.701
REMARK  8 active torsions:
REMARK  status: ('A' for Active; 'I' for Inactive)
REMARK    1  A    between atoms: C2_2  and  C3_3 
REMARK    2  A    between atoms: C3_3  and  N1_4 
REMARK    3  A    between atoms: C3_3  and  C11_15 
REMARK    4  A    between atoms: N1_4  and  C4_5 
REMARK    5  A    between atoms: C5_6  and  C6_7 
REMARK       I    between atoms: C6_7  and  N2_9 
REMARK    6  A    between atoms: N2_9  and  C7_10 
REMARK    7  A    between atoms: C7_10  and  C8_11 
REMARK    8  A    between atoms: C8_11  and  N3_12 
ROOT
HETATM    1  C3  UNL     1      24.874   1.836  52.025  1.00  0.00     0.114 C 
ENDROOT
BRANCH   1   2
HETATM    2  C2  UNL     1      23.701   1.629  52.932  1.00  0.00     0.025 C 
HETATM    3  C1  UNL     1      22.505   0.961  52.314  1.00  0.00     0.007 C 
ENDBRANCH   1   2
BRANCH   1   4
HETATM    4  N1  UNL     1      25.275   3.235  52.026  1.00  0.00    -0.390 N 
HETATM    5  H7  UNL     1      25.772   4.085  52.296  1.00  0.00     0.159 HD
BRANCH   4   6
HETATM    6  C4  UNL     1      24.538   3.945  51.041  1.00  0.00     0.089 C 
HETATM    7  C5  UNL     1      24.975   4.406  49.881  1.00  0.00     0.090 C 
BRANCH   7   8
HETATM    8  C6  UNL     1      26.354   4.227  49.450  1.00  0.00     0.242 C 
HETATM    9  O1  UNL     1      26.908   3.102  49.567  1.00  0.00    -0.269 OA
HETATM   10  N2  UNL     1      27.094   5.293  48.897  1.00  0.00    -0.356 N 
HETATM   11  H10 UNL     1      26.564   6.212  48.826  1.00  0.00     0.162 HD
BRANCH  10  12
HETATM   12  C7  UNL     1      28.465   5.235  48.434  1.00  0.00     0.142 C 
BRANCH  12  13
HETATM   13  C8  UNL     1      28.983   6.611  48.092  1.00  0.00     0.135 C 
BRANCH  13  14
HETATM   14  N3  UNL     1      30.235   6.939  48.685  1.00  0.00    -0.419 N 
HETATM   15  C9  UNL     1      31.214   5.902  48.687  1.00  0.00     0.142 C 
HETATM   16  C10 UNL     1      30.729   8.257  48.434  1.00  0.00     0.142 C 
ENDBRANCH  13  14
ENDBRANCH  12  13
ENDBRANCH  10  12
ENDBRANCH   7   8
ENDBRANCH   4   6
ENDBRANCH   1   4
BRANCH   1  17
HETATM   17  C11 UNL     1      26.034   1.010  52.404  1.00  0.00    -0.030 A 
HETATM   18  C12 UNL     1      27.078   1.614  52.992  1.00  0.00     0.085 A 
HETATM   19  C13 UNL     1      28.318   1.985  53.625  1.00  0.00     0.267 A 
HETATM   20  O2  UNL     1      29.236   2.691  54.165  1.00  0.00    -0.266 OA
HETATM   21  N4  UNL     1      28.589   0.574  53.520  1.00  0.00    -0.223 NA
HETATM   22  C14 UNL     1      29.688   0.068  53.957  1.00  0.00     0.123 A 
HETATM   23  C15 UNL     1      29.340  -1.279  53.572  1.00  0.00     0.061 A 
HETATM   24  C16 UNL     1      28.282  -1.768  52.996  1.00  0.00     0.117 A 
HETATM   25  F1  UNL     1      28.654  -3.081  52.954  1.00  0.00    -0.206 F 
HETATM   26  C17 UNL     1      26.990  -1.416  52.448  1.00  0.00     0.043 A 
HETATM   27  C18 UNL     1      26.167  -0.423  52.228  1.00  0.00     0.012 A 
ENDBRANCH   1  17
TORSDOF 8
ENDMDL
MODEL 3
REMARK VINA RESULT:      -7.7      2.470      3.213
REMARK  8 active torsions:
REMARK  status: ('A' for Active; 'I' for Inactive)
REMARK    1  A    between atoms: C2_2  and  C3_3 
REMARK    2  A    between atoms: C3_3  and  N1_4 
REMARK    3  A    between atoms: C3_3  and  C11_15 
REMARK    4  A    between atoms: N1_4  and  C4_5 
REMARK    5  A    between atoms: C5_6  and  C6_7 
REMARK       I    between atoms: C6_7  and  N2_9 
REMARK    6  A    between atoms: N2_9  and  C7_10 
REMARK    7  A    between atoms: C7_10  and  C8_11 
REMARK    8  A    between atoms: C8_11  and  N3_12 
ROOT
HETATM    1  C3  UNL     1      23.489   0.077  53.052  1.00  0.00     0.114 C 
ENDROOT
BRANCH   1   2
HETATM    2  C2  UNL     1      22.882  -0.541  54.272  1.00  0.00     0.025 C 
HETATM    3  C1  UNL     1      21.816  -1.572  54.024  1.00  0.00     0.007 C 
ENDBRANCH   1   2
BRANCH   1   4
HETATM    4  N1  UNL     1      22.838   1.342  52.748  1.00  0.00    -0.390 N 
HETATM    5  H7  UNL     1      22.469   2.284  52.889  1.00  0.00     0.159 HD
BRANCH   4   6
HETATM    6  C4  UNL     1      22.405   1.345  51.394  1.00  0.00     0.089 C 
HETATM    7  C5  UNL     1      22.836   2.115  50.410  1.00  0.00     0.090 C 
BRANCH   7   8
HETATM    8  C6  UNL     1      23.875   3.115  50.610  1.00  0.00     0.242 C 
HETATM    9  O1  UNL     1      23.786   3.930  51.566  1.00  0.00    -0.269 OA
HETATM   10  N2  UNL     1      24.991   3.195  49.752  1.00  0.00    -0.356 N 
HETATM   11  H10 UNL     1      25.003   2.476  48.969  1.00  0.00     0.162 HD
BRANCH  10  12
HETATM   12  C7  UNL     1      26.082   4.142  49.852  1.00  0.00     0.142 C 
BRANCH  12  13
HETATM   13  C8  UNL     1      25.811   5.373  49.020  1.00  0.00     0.135 C 
BRANCH  13  14
HETATM   14  N3  UNL     1      26.977   6.024  48.525  1.00  0.00    -0.419 N 
HETATM   15  C9  UNL     1      27.160   7.376  48.942  1.00  0.00     0.142 C 
HETATM   16  C10 UNL     1      28.164   5.230  48.457  1.00  0.00     0.142 C 
ENDBRANCH  13  14
ENDBRANCH  12  13
ENDBRANCH  10  12
ENDBRANCH   7   8
ENDBRANCH   4   6
ENDBRANCH   1   4
BRANCH   1  17
HETATM   17  C11 UNL     1      24.937   0.310  53.198  1.00  0.00    -0.030 A 
HETATM   18  C12 UNL     1      25.765  -0.737  53.063  1.00  0.00     0.085 A 
HETATM   19  C13 UNL     1      26.870  -1.657  52.971  1.00  0.00     0.267 A 
HETATM   20  O2  UNL     1      27.533  -2.740  52.825  1.00  0.00    -0.266 OA
HETATM   21  N4  UNL     1      27.649  -0.471  53.220  1.00  0.00    -0.223 NA
HETATM   22  C14 UNL     1      28.933  -0.513  53.279  1.00  0.00     0.123 A 
HETATM   23  C15 UNL     1      29.068   0.902  53.533  1.00  0.00     0.061 A 
HETATM   24  C16 UNL     1      28.185   1.849  53.649  1.00  0.00     0.117 A 
HETATM   25  F1  UNL     1      29.029   2.897  53.878  1.00  0.00    -0.206 F 
HETATM   26  C17 UNL     1      26.764   2.122  53.618  1.00  0.00     0.043 A 
HETATM   27  C18 UNL     1      25.584   1.581  53.458  1.00  0.00     0.012 A 
ENDBRANCH   1  17
TORSDOF 8
ENDMDL
MODEL 4
REMARK VINA RESULT:      -7.6      3.943      6.505
REMARK  8 active torsions:
REMARK  status: ('A' for Active; 'I' for Inactive)
REMARK    1  A    between atoms: C2_2  and  C3_3 
REMARK    2  A    between atoms: C3_3  and  N1_4 
REMARK    3  A    between atoms: C3_3  and  C11_15 
REMARK    4  A    between atoms: N1_4  and  C4_5 
REMARK    5  A    between atoms: C5_6  and  C6_7 
REMARK       I    between atoms: C6_7  and  N2_9 
REMARK    6  A    between atoms: N2_9  and  C7_10 
REMARK    7  A    between atoms: C7_10  and  C8_11 
REMARK    8  A    between atoms: C8_11  and  N3_12 
ROOT
HETATM    1  C3  UNL     1      24.082   0.557  53.087  1.00  0.00     0.114 C 
ENDROOT
BRANCH   1   2
HETATM    2  C2  UNL     1      23.764   1.341  51.852  1.00  0.00     0.025 C 
HETATM    3  C1  UNL     1      23.390   2.781  52.068  1.00  0.00     0.007 C 
ENDBRANCH   1   2
BRANCH   1   4
HETATM    4  N1  UNL     1      23.249  -0.634  53.159  1.00  0.00    -0.390 N 
HETATM    5  H7  UNL     1      22.776  -1.488  52.859  1.00  0.00     0.159 HD
BRANCH   4   6
HETATM    6  C4  UNL     1      22.700  -0.756  54.464  1.00  0.00     0.089 C 
HETATM    7  C5  UNL     1      21.459  -0.508  54.845  1.00  0.00     0.090 C 
BRANCH   7   8
HETATM    8  C6  UNL     1      20.440  -0.052  53.909  1.00  0.00     0.242 C 
HETATM    9  O1  UNL     1      20.520   1.101  53.408  1.00  0.00    -0.269 OA
HETATM   10  N2  UNL     1      19.357  -0.878  53.544  1.00  0.00    -0.356 N 
HETATM   11  H10 UNL     1      19.355  -1.837  54.003  1.00  0.00     0.162 HD
BRANCH  10  12
HETATM   12  C7  UNL     1      18.290  -0.535  52.627  1.00  0.00     0.142 C 
BRANCH  12  13
HETATM   13  C8  UNL     1      17.013  -1.258  52.985  1.00  0.00     0.135 C 
BRANCH  13  14
HETATM   14  N3  UNL     1      16.113  -1.447  51.897  1.00  0.00    -0.419 N 
HETATM   15  C9  UNL     1      14.754  -1.695  52.249  1.00  0.00     0.142 C 
HETATM   16  C10 UNL     1      16.315  -0.610  50.756  1.00  0.00     0.142 C 
ENDBRANCH  13  14
ENDBRANCH  12  13
ENDBRANCH  10  12
ENDBRANCH   7   8
ENDBRANCH   4   6
ENDBRANCH   1   4
BRANCH   1  17
HETATM   17  C11 UNL     1      25.497   0.151  53.149  1.00  0.00    -0.030 A 
HETATM   18  C12 UNL     1      26.408   1.078  53.485  1.00  0.00     0.085 A 
HETATM   19  C13 UNL     1      27.583   1.846  53.812  1.00  0.00     0.267 A 
HETATM   20  O2  UNL     1      28.334   2.827  54.136  1.00  0.00    -0.266 OA
HETATM   21  N4  UNL     1      28.249   0.586  53.601  1.00  0.00    -0.223 NA
HETATM   22  C14 UNL     1      29.522   0.469  53.744  1.00  0.00     0.123 A 
HETATM   23  C15 UNL     1      29.532  -0.936  53.412  1.00  0.00     0.061 A 
HETATM   24  C16 UNL     1      28.576  -1.757  53.094  1.00  0.00     0.117 A 
HETATM   25  F1  UNL     1      29.319  -2.889  52.923  1.00  0.00    -0.206 F 
HETATM   26  C17 UNL     1      27.146  -1.851  52.886  1.00  0.00     0.043 A 
HETATM   27  C18 UNL     1      26.027  -1.176  52.901  1.00  0.00     0.012 A 
ENDBRANCH   1  17
TORSDOF 8
ENDMDL
MODEL 5
REMARK VINA RESULT:      -7.4      4.355      7.036
REMARK  8 active torsions:
REMARK  status: ('A' for Active; 'I' for Inactive)
REMARK    1  A    between atoms: C2_2  and  C3_3 
REMARK    2  A    between atoms: C3_3  and  N1_4 
REMARK    3  A    between atoms: C3_3  and  C11_15 
REMARK    4  A    between atoms: N1_4  and  C4_5 
REMARK    5  A    between atoms: C5_6  and  C6_7 
REMARK       I    between atoms: C6_7  and  N2_9 
REMARK    6  A    between atoms: N2_9  and  C7_10 
REMARK    7  A    between atoms: C7_10  and  C8_11 
REMARK    8  A    between atoms: C8_11  and  N3_12 
ROOT
HETATM    1  C3  UNL     1      23.887   0.844  53.002  1.00  0.00     0.114 C 
ENDROOT
BRANCH   1   2
HETATM    2  C2  UNL     1      23.564   1.530  51.711  1.00  0.00     0.025 C 
HETATM    3  C1  UNL     1      22.369   1.001  50.969  1.00  0.00     0.007 C 
ENDBRANCH   1   2
BRANCH   1   4
HETATM    4  N1  UNL     1      23.297  -0.485  53.031  1.00  0.00    -0.390 N 
HETATM    5  H7  UNL     1      22.965  -1.390  52.692  1.00  0.00     0.159 HD
BRANCH   4   6
HETATM    6  C4  UNL     1      22.895  -0.803  54.356  1.00  0.00     0.089 C 
HETATM    7  C5  UNL     1      21.683  -0.717  54.875  1.00  0.00     0.090 C 
BRANCH   7   8
HETATM    8  C6  UNL     1      20.540  -0.259  54.098  1.00  0.00     0.242 C 
HETATM    9  O1  UNL     1      20.483   0.940  53.714  1.00  0.00    -0.269 OA
HETATM   10  N2  UNL     1      19.486  -1.131  53.758  1.00  0.00    -0.356 N 
HETATM   11  H10 UNL     1      19.601  -2.127  54.113  1.00  0.00     0.162 HD
BRANCH  10  12
HETATM   12  C7  UNL     1      18.305  -0.790  52.992  1.00  0.00     0.142 C 
BRANCH  12  13
HETATM   13  C8  UNL     1      17.238  -1.848  53.139  1.00  0.00     0.135 C 
BRANCH  13  14
HETATM   14  N3  UNL     1      16.066  -1.622  52.361  1.00  0.00    -0.419 N 
HETATM   15  C9  UNL     1      15.217  -2.752  52.171  1.00  0.00     0.142 C 
HETATM   16  C10 UNL     1      15.401  -0.374  52.569  1.00  0.00     0.142 C 
ENDBRANCH  13  14
ENDBRANCH  12  13
ENDBRANCH  10  12
ENDBRANCH   7   8
ENDBRANCH   4   6
ENDBRANCH   1   4
BRANCH   1  17
HETATM   17  C11 UNL     1      25.337   0.726  53.231  1.00  0.00    -0.030 A 
HETATM   18  C12 UNL     1      25.936  -0.435  52.921  1.00  0.00     0.085 A 
HETATM   19  C13 UNL     1      26.828  -1.541  52.685  1.00  0.00     0.267 A 
HETATM   20  O2  UNL     1      27.258  -2.698  52.353  1.00  0.00    -0.266 OA
HETATM   21  N4  UNL     1      27.818  -0.620  53.180  1.00  0.00    -0.223 NA
HETATM   22  C14 UNL     1      29.058  -0.950  53.266  1.00  0.00     0.123 A 
HETATM   23  C15 UNL     1      29.468   0.331  53.791  1.00  0.00     0.061 A 
HETATM   24  C16 UNL     1      28.797   1.410  54.061  1.00  0.00     0.117 A 
HETATM   25  F1  UNL     1      29.823   2.189  54.512  1.00  0.00    -0.206 F 
HETATM   26  C17 UNL     1      27.470   1.988  54.044  1.00  0.00     0.043 A 
HETATM   27  C18 UNL     1      26.217   1.756  53.749  1.00  0.00     0.012 A 
ENDBRANCH   1  17
TORSDOF 8
ENDMDL
MODEL 6
REMARK VINA RESULT:      -7.4      2.374      3.051
REMARK  8 active torsions:
REMARK  status: ('A' for Active; 'I' for Inactive)
REMARK    1  A    between atoms: C2_2  and  C3_3 
REMARK    2  A    between atoms: C3_3  and  N1_4 
REMARK    3  A    between atoms: C3_3  and  C11_15 
REMARK    4  A    between atoms: N1_4  and  C4_5 
REMARK    5  A    between atoms: C5_6  and  C6_7 
REMARK       I    between atoms: C6_7  and  N2_9 
REMARK    6  A    between atoms: N2_9  and  C7_10 
REMARK    7  A    between atoms: C7_10  and  C8_11 
REMARK    8  A    between atoms: C8_11  and  N3_12 
ROOT
HETATM    1  C3  UNL     1      23.843  -0.176  53.175  1.00  0.00     0.114 C 
ENDROOT
BRANCH   1   2
HETATM    2  C2  UNL     1      23.207  -0.762  54.397  1.00  0.00     0.025 C 
HETATM    3  C1  UNL     1      21.921  -1.507  54.174  1.00  0.00     0.007 C 
ENDBRANCH   1   2
BRANCH   1   4
HETATM    4  N1  UNL     1      23.214   1.091  52.834  1.00  0.00    -0.390 N 
HETATM    5  H7  UNL     1      22.909   2.061  52.928  1.00  0.00     0.159 HD
BRANCH   4   6
HETATM    6  C4  UNL     1      22.602   0.993  51.556  1.00  0.00     0.089 C 
HETATM    7  C5  UNL     1      22.721   1.827  50.537  1.00  0.00     0.090 C 
BRANCH   7   8
HETATM    8  C6  UNL     1      23.551   3.021  50.609  1.00  0.00     0.242 C 
HETATM    9  O1  UNL     1      24.651   2.984  51.222  1.00  0.00    -0.269 OA
HETATM   10  N2  UNL     1      23.152   4.230  50.004  1.00  0.00    -0.356 N 
HETATM   11  H10 UNL     1      22.215   4.188  49.503  1.00  0.00     0.162 HD
BRANCH  10  12
HETATM   12  C7  UNL     1      23.891   5.475  50.009  1.00  0.00     0.142 C 
BRANCH  12  13
HETATM   13  C8  UNL     1      24.836   5.553  48.834  1.00  0.00     0.135 C 
BRANCH  13  14
HETATM   14  N3  UNL     1      26.210   5.687  49.184  1.00  0.00    -0.419 N 
HETATM   15  C9  UNL     1      27.007   4.514  49.039  1.00  0.00     0.142 C 
HETATM   16  C10 UNL     1      26.839   6.916  48.812  1.00  0.00     0.142 C 
ENDBRANCH  13  14
ENDBRANCH  12  13
ENDBRANCH  10  12
ENDBRANCH   7   8
ENDBRANCH   4   6
ENDBRANCH   1   4
BRANCH   1  17
HETATM   17  C11 UNL     1      25.290   0.042  53.341  1.00  0.00    -0.030 A 
HETATM   18  C12 UNL     1      26.118  -0.988  53.105  1.00  0.00     0.085 A 
HETATM   19  C13 UNL     1      27.223  -1.895  52.924  1.00  0.00     0.267 A 
HETATM   20  O2  UNL     1      27.885  -2.958  52.674  1.00  0.00    -0.266 OA
HETATM   21  N4  UNL     1      28.002  -0.738  53.285  1.00  0.00    -0.223 NA
HETATM   22  C14 UNL     1      29.287  -0.785  53.338  1.00  0.00     0.123 A 
HETATM   23  C15 UNL     1      29.423   0.598  53.727  1.00  0.00     0.061 A 
HETATM   24  C16 UNL     1      28.540   1.530  53.934  1.00  0.00     0.117 A 
HETATM   25  F1  UNL     1      29.385   2.551  54.261  1.00  0.00    -0.206 F 
HETATM   26  C17 UNL     1      27.119   1.805  53.931  1.00  0.00     0.043 A 
HETATM   27  C18 UNL     1      25.938   1.282  53.721  1.00  0.00     0.012 A 
ENDBRANCH   1  17
TORSDOF 8
ENDMDL
MODEL 7
REMARK VINA RESULT:      -7.3      3.365      5.464
REMARK  8 active torsions:
REMARK  status: ('A' for Active; 'I' for Inactive)
REMARK    1  A    between atoms: C2_2  and  C3_3 
REMARK    2  A    between atoms: C3_3  and  N1_4 
REMARK    3  A    between atoms: C3_3  and  C11_15 
REMARK    4  A    between atoms: N1_4  and  C4_5 
REMARK    5  A    between atoms: C5_6  and  C6_7 
REMARK       I    between atoms: C6_7  and  N2_9 
REMARK    6  A    between atoms: N2_9  and  C7_10 
REMARK    7  A    between atoms: C7_10  and  C8_11 
REMARK    8  A    between atoms: C8_11  and  N3_12 
ROOT
HETATM    1  C3  UNL     1      25.680   1.129  52.801  1.00  0.00     0.114 C 
ENDROOT
BRANCH   1   2
HETATM    2  C2  UNL     1      26.542   0.190  52.017  1.00  0.00     0.025 C 
HETATM    3  C1  UNL     1      27.356  -0.782  52.824  1.00  0.00     0.007 C 
ENDBRANCH   1   2
BRANCH   1   4
HETATM    4  N1  UNL     1      25.800   2.482  52.280  1.00  0.00    -0.390 N 
HETATM    5  H7  UNL     1      25.688   3.495  52.221  1.00  0.00     0.159 HD
BRANCH   4   6
HETATM    6  C4  UNL     1      26.541   2.465  51.068  1.00  0.00     0.089 C 
HETATM    7  C5  UNL     1      26.318   3.173  49.975  1.00  0.00     0.090 C 
BRANCH   7   8
HETATM    8  C6  UNL     1      25.215   4.119  49.879  1.00  0.00     0.242 C 
HETATM    9  O1  UNL     1      25.295   5.237  50.453  1.00  0.00    -0.269 OA
HETATM   10  N2  UNL     1      24.047   3.812  49.150  1.00  0.00    -0.356 N 
HETATM   11  H10 UNL     1      24.049   2.853  48.691  1.00  0.00     0.162 HD
BRANCH  10  12
HETATM   12  C7  UNL     1      22.892   4.669  48.985  1.00  0.00     0.142 C 
BRANCH  12  13
HETATM   13  C8  UNL     1      21.827   4.349  50.007  1.00  0.00     0.135 C 
BRANCH  13  14
HETATM   14  N3  UNL     1      21.775   5.248  51.111  1.00  0.00    -0.419 N 
HETATM   15  C9  UNL     1      22.334   4.767  52.332  1.00  0.00     0.142 C 
HETATM   16  C10 UNL     1      22.017   6.625  50.817  1.00  0.00     0.142 C 
ENDBRANCH  13  14
ENDBRANCH  12  13
ENDBRANCH  10  12
ENDBRANCH   7   8
ENDBRANCH   4   6
ENDBRANCH   1   4
BRANCH   1  17
HETATM   17  C11 UNL     1      24.259   0.738  52.785  1.00  0.00    -0.030 A 
HETATM   18  C12 UNL     1      23.816  -0.080  53.752  1.00  0.00     0.085 A 
HETATM   19  C13 UNL     1      23.074  -0.932  54.647  1.00  0.00     0.267 A 
HETATM   20  O2  UNL     1      22.796  -1.715  55.618  1.00  0.00    -0.266 OA
HETATM   21  N4  UNL     1      21.976  -0.590  53.780  1.00  0.00    -0.223 NA
HETATM   22  C14 UNL     1      20.791  -1.044  53.989  1.00  0.00     0.123 A 
HETATM   23  C15 UNL     1      20.221  -0.366  52.848  1.00  0.00     0.061 A 
HETATM   24  C16 UNL     1      20.747   0.419  51.956  1.00  0.00     0.117 A 
HETATM   25  F1  UNL     1      19.632   0.668  51.210  1.00  0.00    -0.206 F 
HETATM   26  C17 UNL     1      21.987   1.041  51.542  1.00  0.00     0.043 A 
HETATM   27  C18 UNL     1      23.257   1.167  51.829  1.00  0.00     0.012 A 
ENDBRANCH   1  17
TORSDOF 8
ENDMDL
MODEL 8
REMARK VINA RESULT:      -7.2      3.501      4.545
REMARK  8 active torsions:
REMARK  status: ('A' for Active; 'I' for Inactive)
REMARK    1  A    between atoms: C2_2  and  C3_3 
REMARK    2  A    between atoms: C3_3  and  N1_4 
REMARK    3  A    between atoms: C3_3  and  C11_15 
REMARK    4  A    between atoms: N1_4  and  C4_5 
REMARK    5  A    between atoms: C5_6  and  C6_7 
REMARK       I    between atoms: C6_7  and  N2_9 
REMARK    6  A    between atoms: N2_9  and  C7_10 
REMARK    7  A    between atoms: C7_10  and  C8_11 
REMARK    8  A    between atoms: C8_11  and  N3_12 
ROOT
HETATM    1  C3  UNL     1      25.305   3.354  50.040  1.00  0.00     0.114 C 
ENDROOT
BRANCH   1   2
HETATM    2  C2  UNL     1      23.902   3.831  49.832  1.00  0.00     0.025 C 
HETATM    3  C1  UNL     1      23.169   3.223  48.668  1.00  0.00     0.007 C 
ENDBRANCH   1   2
BRANCH   1   4
HETATM    4  N1  UNL     1      26.193   4.482  50.279  1.00  0.00    -0.390 N 
HETATM    5  H7  UNL     1      26.928   5.043  50.712  1.00  0.00     0.159 HD
BRANCH   4   6
HETATM    6  C4  UNL     1      25.917   5.515  49.343  1.00  0.00     0.089 C 
HETATM    7  C5  UNL     1      26.774   6.137  48.551  1.00  0.00     0.090 C 
BRANCH   7   8
HETATM    8  C6  UNL     1      28.193   5.813  48.542  1.00  0.00     0.242 C 
HETATM    9  O1  UNL     1      28.566   4.630  48.324  1.00  0.00    -0.269 OA
HETATM   10  N2  UNL     1      29.172   6.801  48.774  1.00  0.00    -0.356 N 
HETATM   11  H10 UNL     1      28.787   7.776  48.950  1.00  0.00     0.162 HD
BRANCH  10  12
HETATM   12  C7  UNL     1      30.606   6.599  48.790  1.00  0.00     0.142 C 
BRANCH  12  13
HETATM   13  C8  UNL     1      31.204   6.835  47.423  1.00  0.00     0.135 C 
BRANCH  13  14
HETATM   14  N3  UNL     1      32.287   5.972  47.091  1.00  0.00    -0.419 N 
HETATM   15  C9  UNL     1      32.375   4.765  47.845  1.00  0.00     0.142 C 
HETATM   16  C10 UNL     1      32.603   5.860  45.702  1.00  0.00     0.142 C 
ENDBRANCH  13  14
ENDBRANCH  12  13
ENDBRANCH  10  12
ENDBRANCH   7   8
ENDBRANCH   4   6
ENDBRANCH   1   4
BRANCH   1  17
HETATM   17  C11 UNL     1      25.420   2.412  51.167  1.00  0.00    -0.030 A 
HETATM   18  C12 UNL     1      26.589   2.349  51.824  1.00  0.00     0.085 A 
HETATM   19  C13 UNL     1      27.702   2.073  52.696  1.00  0.00     0.267 A 
HETATM   20  O2  UNL     1      28.867   2.116  53.221  1.00  0.00    -0.266 OA
HETATM   21  N4  UNL     1      26.771   1.159  53.306  1.00  0.00    -0.223 NA
HETATM   22  C14 UNL     1      27.101   0.443  54.322  1.00  0.00     0.123 A 
HETATM   23  C15 UNL     1      25.809  -0.193  54.422  1.00  0.00     0.061 A 
HETATM   24  C16 UNL     1      24.722  -0.060  53.722  1.00  0.00     0.117 A 
HETATM   25  F1  UNL     1      23.934  -0.957  54.383  1.00  0.00    -0.206 F 
HETATM   26  C17 UNL     1      24.142   0.647  52.599  1.00  0.00     0.043 A 
HETATM   27  C18 UNL     1      24.380   1.537  51.671  1.00  0.00     0.012 A 
ENDBRANCH   1  17
TORSDOF 8
ENDMDL
MODEL 9
REMARK VINA RESULT:      -7.1      2.574      3.546
REMARK  8 active torsions:
REMARK  status: ('A' for Active; 'I' for Inactive)
REMARK    1  A    between atoms: C2_2  and  C3_3 
REMARK    2  A    between atoms: C3_3  and  N1_4 
REMARK    3  A    between atoms: C3_3  and  C11_15 
REMARK    4  A    between atoms: N1_4  and  C4_5 
REMARK    5  A    between atoms: C5_6  and  C6_7 
REMARK       I    between atoms: C6_7  and  N2_9 
REMARK    6  A    between atoms: N2_9  and  C7_10 
REMARK    7  A    between atoms: C7_10  and  C8_11 
REMARK    8  A    between atoms: C8_11  and  N3_12 
ROOT
HETATM    1  C3  UNL     1      25.417   3.010  50.343  1.00  0.00     0.114 C 
ENDROOT
BRANCH   1   2
HETATM    2  C2  UNL     1      24.052   3.611  50.220  1.00  0.00     0.025 C 
HETATM    3  C1  UNL     1      23.405   3.498  48.869  1.00  0.00     0.007 C 
ENDBRANCH   1   2
BRANCH   1   4
HETATM    4  N1  UNL     1      26.423   4.055  50.450  1.00  0.00    -0.390 N 
HETATM    5  H7  UNL     1      27.014   4.772  50.875  1.00  0.00     0.159 HD
BRANCH   4   6
HETATM    6  C4  UNL     1      27.007   4.291  49.176  1.00  0.00     0.089 C 
HETATM    7  C5  UNL     1      27.143   5.447  48.551  1.00  0.00     0.090 C 
BRANCH   7   8
HETATM    8  C6  UNL     1      26.682   6.699  49.133  1.00  0.00     0.242 C 
HETATM    9  O1  UNL     1      25.455   6.872  49.360  1.00  0.00    -0.269 OA
HETATM   10  N2  UNL     1      27.584   7.734  49.455  1.00  0.00    -0.356 N 
HETATM   11  H10 UNL     1      28.603   7.520  49.239  1.00  0.00     0.162 HD
BRANCH  10  12
HETATM   12  C7  UNL     1      27.243   9.017  50.036  1.00  0.00     0.142 C 
BRANCH  12  13
HETATM   13  C8  UNL     1      28.027  10.133  49.388  1.00  0.00     0.135 C 
BRANCH  13  14
HETATM   14  N3  UNL     1      27.348  10.797  48.327  1.00  0.00    -0.419 N 
HETATM   15  C9  UNL     1      27.910  10.631  47.027  1.00  0.00     0.142 C 
HETATM   16  C10 UNL     1      25.920  10.793  48.390  1.00  0.00     0.142 C 
ENDBRANCH  13  14
ENDBRANCH  12  13
ENDBRANCH  10  12
ENDBRANCH   7   8
ENDBRANCH   4   6
ENDBRANCH   1   4
BRANCH   1  17
HETATM   17  C11 UNL     1      25.538   2.114  51.506  1.00  0.00    -0.030 A 
HETATM   18  C12 UNL     1      26.684   2.133  52.205  1.00  0.00     0.085 A 
HETATM   19  C13 UNL     1      27.777   1.942  53.124  1.00  0.00     0.267 A 
HETATM   20  O2  UNL     1      28.918   2.061  53.686  1.00  0.00    -0.266 OA
HETATM   21  N4  UNL     1      26.869   1.005  53.734  1.00  0.00    -0.223 NA
HETATM   22  C14 UNL     1      27.197   0.342  54.787  1.00  0.00     0.123 A 
HETATM   23  C15 UNL     1      25.935  -0.354  54.866  1.00  0.00     0.061 A 
HETATM   24  C16 UNL     1      24.868  -0.299  54.124  1.00  0.00     0.117 A 
HETATM   25  F1  UNL     1      24.102  -1.211  54.790  1.00  0.00    -0.206 F 
HETATM   26  C17 UNL     1      24.296   0.338  52.957  1.00  0.00     0.043 A 
HETATM   27  C18 UNL     1      24.523   1.207  52.006  1.00  0.00     0.012 A 
ENDBRANCH   1  17
TORSDOF 8
ENDMDL
