MODEL 1
REMARK VINA RESULT:      -7.7      0.000      0.000
REMARK  3 active torsions:
REMARK  status: ('A' for Active; 'I' for Inactive)
REMARK    1  A    between atoms: C2_2  and  C3_3 
REMARK    2  A    between atoms: C3_3  and  C4_4 
REMARK    3  A    between atoms: C4_4  and  C5_6 
ROOT
HETATM    1  C5  UNL     1      24.433  -0.380  54.010  1.00  0.00     0.070 C 
HETATM    2  C6  UNL     1      25.807   0.009  54.101  1.00  0.00     0.236 C 
HETATM    3  O1  UNL     1      26.640  -0.255  55.199  1.00  0.00    -0.339 OA
HETATM    4  C7  UNL     1      27.944   0.278  54.886  1.00  0.00     0.252 C 
HETATM    5  N1  UNL     1      28.527   0.970  53.898  1.00  0.00    -0.231 NA
HETATM    6  C8  UNL     1      27.733   1.352  52.767  1.00  0.00     0.230 C 
HETATM    7  N2  UNL     1      27.117   1.414  51.654  1.00  0.00    -0.263 NA
HETATM    8  C9  UNL     1      26.298   2.468  51.162  1.00  0.00     0.281 C 
HETATM    9  N3  UNL     1      24.901   2.427  51.567  1.00  0.00    -0.323 N 
HETATM   10  C10 UNL     1      24.447   3.811  51.540  1.00  0.00     0.121 C 
HETATM   11  C11 UNL     1      23.277   4.363  51.149  1.00  0.00     0.088 C 
HETATM   12 CL1  UNL     1      23.029   6.094  51.239  1.00  0.00    -0.080 Cl
HETATM   13  C12 UNL     1      22.128   3.588  50.620  1.00  0.00     0.139 C 
HETATM   14  F2  UNL     1      21.247   4.276  49.875  1.00  0.00    -0.204 F 
HETATM   15  C13 UNL     1      21.876   2.280  50.806  1.00  0.00     0.048 C 
HETATM   16  C14 UNL     1      22.710   1.334  51.591  1.00  0.00     0.052 C 
HETATM   17  C15 UNL     1      24.015   1.358  51.943  1.00  0.00     0.109 C 
HETATM   18  N4  UNL     1      24.064   0.140  52.685  1.00  0.00    -0.342 N 
HETATM   19  H17 UNL     1      23.747  -0.730  52.182  1.00  0.00     0.167 HD
ENDROOT
BRANCH   1  20
HETATM   20  C4  UNL     1      23.509  -1.006  54.707  1.00  0.00     0.118 C 
HETATM   21  F1  UNL     1      23.732  -1.354  55.979  1.00  0.00    -0.209 F 
BRANCH  20  22
HETATM   22  C3  UNL     1      22.223  -1.320  54.061  1.00  0.00     0.072 C 
BRANCH  22  23
HETATM   23  C2  UNL     1      21.106  -0.424  54.576  1.00  0.00     0.002 C 
HETATM   24  C1  UNL     1      20.008  -0.399  53.526  1.00  0.00     0.005 C 
ENDBRANCH  22  23
ENDBRANCH  20  22
ENDBRANCH   1  20
TORSDOF 3
ENDMDL
MODEL 2
REMARK VINA RESULT:      -7.3      2.465      4.809
REMARK  3 active torsions:
REMARK  status: ('A' for Active; 'I' for Inactive)
REMARK    1  A    between atoms: C2_2  and  C3_3 
REMARK    2  A    between atoms: C3_3  and  C4_4 
REMARK    3  A    between atoms: C4_4  and  C5_6 
ROOT
HETATM    1  C5  UNL     1      24.056  -0.077  53.694  1.00  0.00     0.070 C 
HETATM    2  C6  UNL     1      22.688  -0.483  53.795  1.00  0.00     0.236 C 
HETATM    3  O1  UNL     1      22.257  -1.731  54.270  1.00  0.00    -0.339 OA
HETATM    4  C7  UNL     1      20.815  -1.731  54.233  1.00  0.00     0.252 C 
HETATM    5  N1  UNL     1      19.828  -0.917  53.833  1.00  0.00    -0.231 NA
HETATM    6  C8  UNL     1      20.175   0.352  53.262  1.00  0.00     0.230 C 
HETATM    7  N2  UNL     1      20.473   1.571  53.051  1.00  0.00    -0.263 NA
HETATM    8  C9  UNL     1      20.750   2.204  51.807  1.00  0.00     0.281 C 
HETATM    9  N3  UNL     1      22.128   2.122  51.347  1.00  0.00    -0.323 N 
HETATM   10  C10 UNL     1      22.059   2.211  49.895  1.00  0.00     0.121 C 
HETATM   11  C11 UNL     1      22.852   2.837  48.996  1.00  0.00     0.088 C 
HETATM   12 CL1  UNL     1      22.502   2.757  47.283  1.00  0.00    -0.080 Cl
HETATM   13  C12 UNL     1      24.053   3.629  49.358  1.00  0.00     0.139 C 
HETATM   14  F2  UNL     1      24.457   4.532  48.450  1.00  0.00    -0.204 F 
HETATM   15  C13 UNL     1      24.775   3.540  50.490  1.00  0.00     0.048 C 
HETATM   16  C14 UNL     1      24.510   2.616  51.622  1.00  0.00     0.052 C 
HETATM   17  C15 UNL     1      23.388   1.982  52.027  1.00  0.00     0.109 C 
HETATM   18  N4  UNL     1      23.924   1.281  53.149  1.00  0.00    -0.342 N 
HETATM   19  H17 UNL     1      24.404   1.866  53.883  1.00  0.00     0.167 HD
ENDROOT
BRANCH   1  20
HETATM   20  C4  UNL     1      25.267  -0.534  53.930  1.00  0.00     0.118 C 
HETATM   21  F1  UNL     1      25.731  -0.626  55.181  1.00  0.00    -0.209 F 
BRANCH  20  22
HETATM   22  C3  UNL     1      26.107  -0.942  52.791  1.00  0.00     0.072 C 
BRANCH  22  23
HETATM   23  C2  UNL     1      27.337  -0.056  52.657  1.00  0.00     0.002 C 
HETATM   24  C1  UNL     1      28.502  -0.773  53.317  1.00  0.00     0.005 C 
ENDBRANCH  22  23
ENDBRANCH  20  22
ENDBRANCH   1  20
TORSDOF 3
ENDMDL
MODEL 3
REMARK VINA RESULT:      -7.0      3.405      6.910
REMARK  3 active torsions:
REMARK  status: ('A' for Active; 'I' for Inactive)
REMARK    1  A    between atoms: C2_2  and  C3_3 
REMARK    2  A    between atoms: C3_3  and  C4_4 
REMARK    3  A    between atoms: C4_4  and  C5_6 
ROOT
HETATM    1  C5  UNL     1      23.188   3.829  50.915  1.00  0.00     0.070 C 
HETATM    2  C6  UNL     1      21.833   3.541  51.273  1.00  0.00     0.236 C 
HETATM    3  O1  UNL     1      20.831   4.507  51.447  1.00  0.00    -0.339 OA
HETATM    4  C7  UNL     1      19.612   3.808  51.778  1.00  0.00     0.252 C 
HETATM    5  N1  UNL     1      19.217   2.547  52.005  1.00  0.00    -0.231 NA
HETATM    6  C8  UNL     1      20.190   1.498  51.925  1.00  0.00     0.230 C 
HETATM    7  N2  UNL     1      20.973   0.565  51.555  1.00  0.00    -0.263 NA
HETATM    8  C9  UNL     1      21.900  -0.169  52.347  1.00  0.00     0.281 C 
HETATM    9  N3  UNL     1      23.215   0.433  52.506  1.00  0.00    -0.323 N 
HETATM   10  C10 UNL     1      23.722  -0.069  53.776  1.00  0.00     0.121 C 
HETATM   11  C11 UNL     1      24.959  -0.457  54.157  1.00  0.00     0.088 C 
HETATM   12 CL1  UNL     1      25.259  -1.023  55.786  1.00  0.00    -0.080 Cl
HETATM   13  C12 UNL     1      26.145  -0.447  53.265  1.00  0.00     0.139 C 
HETATM   14  F2  UNL     1      27.156  -1.255  53.621  1.00  0.00    -0.204 F 
HETATM   15  C13 UNL     1      26.313   0.279  52.145  1.00  0.00     0.048 C 
HETATM   16  C14 UNL     1      25.331   1.232  51.569  1.00  0.00     0.052 C 
HETATM   17  C15 UNL     1      23.989   1.337  51.698  1.00  0.00     0.109 C 
HETATM   18  N4  UNL     1      23.777   2.483  50.874  1.00  0.00    -0.342 N 
HETATM   19  H17 UNL     1      24.134   2.423  49.884  1.00  0.00     0.167 HD
ENDROOT
BRANCH   1  20
HETATM   20  C4  UNL     1      23.967   4.853  50.641  1.00  0.00     0.118 C 
HETATM   21  F1  UNL     1      24.192   5.804  51.554  1.00  0.00    -0.209 F 
BRANCH  20  22
HETATM   22  C3  UNL     1      24.590   4.935  49.309  1.00  0.00     0.072 C 
BRANCH  22  23
HETATM   23  C2  UNL     1      26.084   5.206  49.407  1.00  0.00     0.002 C 
HETATM   24  C1  UNL     1      26.805   3.871  49.336  1.00  0.00     0.005 C 
ENDBRANCH  22  23
ENDBRANCH  20  22
ENDBRANCH   1  20
TORSDOF 3
ENDMDL
MODEL 4
REMARK VINA RESULT:      -6.9      2.444      4.653
REMARK  3 active torsions:
REMARK  status: ('A' for Active; 'I' for Inactive)
REMARK    1  A    between atoms: C2_2  and  C3_3 
REMARK    2  A    between atoms: C3_3  and  C4_4 
REMARK    3  A    between atoms: C4_4  and  C5_6 
ROOT
HETATM    1  C5  UNL     1      26.112   1.235  53.697  1.00  0.00     0.070 C 
HETATM    2  C6  UNL     1      25.135   0.292  54.145  1.00  0.00     0.236 C 
HETATM    3  O1  UNL     1      25.429  -0.905  54.817  1.00  0.00    -0.339 OA
HETATM    4  C7  UNL     1      24.174  -1.552  55.113  1.00  0.00     0.252 C 
HETATM    5  N1  UNL     1      22.869  -1.350  54.880  1.00  0.00    -0.231 NA
HETATM    6  C8  UNL     1      22.477  -0.190  54.134  1.00  0.00     0.230 C 
HETATM    7  N2  UNL     1      22.125   0.971  53.751  1.00  0.00    -0.263 NA
HETATM    8  C9  UNL     1      21.864   1.418  52.425  1.00  0.00     0.281 C 
HETATM    9  N3  UNL     1      23.022   1.871  51.670  1.00  0.00    -0.323 N 
HETATM   10  C10 UNL     1      22.685   1.649  50.270  1.00  0.00     0.121 C 
HETATM   11  C11 UNL     1      22.930   2.382  49.161  1.00  0.00     0.088 C 
HETATM   12 CL1  UNL     1      22.386   1.837  47.589  1.00  0.00    -0.080 Cl
HETATM   13  C12 UNL     1      23.654   3.677  49.164  1.00  0.00     0.139 C 
HETATM   14  F2  UNL     1      23.430   4.479  48.111  1.00  0.00    -0.204 F 
HETATM   15  C13 UNL     1      24.505   4.129  50.103  1.00  0.00     0.048 C 
HETATM   16  C14 UNL     1      24.896   3.413  51.343  1.00  0.00     0.052 C 
HETATM   17  C15 UNL     1      24.290   2.434  52.052  1.00  0.00     0.109 C 
HETATM   18  N4  UNL     1      25.268   2.266  53.077  1.00  0.00    -0.342 N 
HETATM   19  H17 UNL     1      25.526   3.128  53.626  1.00  0.00     0.167 HD
ENDROOT
BRANCH   1  20
HETATM   20  C4  UNL     1      27.415   1.416  53.687  1.00  0.00     0.118 C 
HETATM   21  F1  UNL     1      27.972   2.335  52.891  1.00  0.00    -0.209 F 
BRANCH  20  22
HETATM   22  C3  UNL     1      28.254   0.588  54.571  1.00  0.00     0.072 C 
BRANCH  22  23
HETATM   23  C2  UNL     1      29.453   0.016  53.828  1.00  0.00     0.002 C 
HETATM   24  C1  UNL     1      29.083  -1.377  53.349  1.00  0.00     0.005 C 
ENDBRANCH  22  23
ENDBRANCH  20  22
ENDBRANCH   1  20
TORSDOF 3
ENDMDL
MODEL 5
REMARK VINA RESULT:      -6.9      3.796      7.322
REMARK  3 active torsions:
REMARK  status: ('A' for Active; 'I' for Inactive)
REMARK    1  A    between atoms: C2_2  and  C3_3 
REMARK    2  A    between atoms: C3_3  and  C4_4 
REMARK    3  A    between atoms: C4_4  and  C5_6 
ROOT
HETATM    1  C5  UNL     1      23.890   4.273  49.549  1.00  0.00     0.070 C 
HETATM    2  C6  UNL     1      22.661   4.153  48.825  1.00  0.00     0.236 C 
HETATM    3  O1  UNL     1      22.014   5.211  48.170  1.00  0.00    -0.339 OA
HETATM    4  C7  UNL     1      20.829   4.671  47.547  1.00  0.00     0.252 C 
HETATM    5  N1  UNL     1      20.187   3.497  47.478  1.00  0.00    -0.231 NA
HETATM    6  C8  UNL     1      20.734   2.374  48.181  1.00  0.00     0.230 C 
HETATM    7  N2  UNL     1      21.376   1.335  48.541  1.00  0.00    -0.263 NA
HETATM    8  C9  UNL     1      21.324   0.661  49.793  1.00  0.00     0.281 C 
HETATM    9  N3  UNL     1      22.210   1.173  50.826  1.00  0.00    -0.323 N 
HETATM   10  C10 UNL     1      21.571   0.835  52.090  1.00  0.00     0.121 C 
HETATM   11  C11 UNL     1      22.081   0.413  53.269  1.00  0.00     0.088 C 
HETATM   12 CL1  UNL     1      21.033   0.083  54.633  1.00  0.00    -0.080 Cl
HETATM   13  C12 UNL     1      23.527   0.190  53.516  1.00  0.00     0.139 C 
HETATM   14  F2  UNL     1      23.830  -0.631  54.535  1.00  0.00    -0.204 F 
HETATM   15  C13 UNL     1      24.558   0.719  52.834  1.00  0.00     0.048 C 
HETATM   16  C14 UNL     1      24.456   1.646  51.679  1.00  0.00     0.052 C 
HETATM   17  C15 UNL     1      23.465   1.876  50.789  1.00  0.00     0.109 C 
HETATM   18  N4  UNL     1      24.096   2.894  50.014  1.00  0.00    -0.342 N 
HETATM   19  H17 UNL     1      25.034   2.654  49.596  1.00  0.00     0.167 HD
ENDROOT
BRANCH   1  20
HETATM   20  C4  UNL     1      24.788   5.177  49.876  1.00  0.00     0.118 C 
HETATM   21  F1  UNL     1      24.753   5.773  51.073  1.00  0.00    -0.209 F 
BRANCH  20  22
HETATM   22  C3  UNL     1      25.835   5.524  48.900  1.00  0.00     0.072 C 
BRANCH  22  23
HETATM   23  C2  UNL     1      27.031   4.589  49.007  1.00  0.00     0.002 C 
HETATM   24  C1  UNL     1      28.238   5.308  48.429  1.00  0.00     0.005 C 
ENDBRANCH  22  23
ENDBRANCH  20  22
ENDBRANCH   1  20
TORSDOF 3
ENDMDL
MODEL 6
REMARK VINA RESULT:      -6.8      3.489      6.004
REMARK  3 active torsions:
REMARK  status: ('A' for Active; 'I' for Inactive)
REMARK    1  A    between atoms: C2_2  and  C3_3 
REMARK    2  A    between atoms: C3_3  and  C4_4 
REMARK    3  A    between atoms: C4_4  and  C5_6 
ROOT
HETATM    1  C5  UNL     1      19.853   2.499  51.456  1.00  0.00     0.070 C 
HETATM    2  C6  UNL     1      20.370   3.770  51.050  1.00  0.00     0.236 C 
HETATM    3  O1  UNL     1      19.825   4.565  50.031  1.00  0.00    -0.339 OA
HETATM    4  C7  UNL     1      20.619   5.767  49.952  1.00  0.00     0.252 C 
HETATM    5  N1  UNL     1      21.716   6.276  50.528  1.00  0.00    -0.231 NA
HETATM    6  C8  UNL     1      22.388   5.500  51.530  1.00  0.00     0.230 C 
HETATM    7  N2  UNL     1      22.787   4.956  52.609  1.00  0.00    -0.263 NA
HETATM    8  C9  UNL     1      23.819   3.991  52.776  1.00  0.00     0.281 C 
HETATM    9  N3  UNL     1      23.423   2.602  52.600  1.00  0.00    -0.323 N 
HETATM   10  C10 UNL     1      24.628   1.906  52.171  1.00  0.00     0.121 C 
HETATM   11  C11 UNL     1      25.114   0.682  52.476  1.00  0.00     0.088 C 
HETATM   12 CL1  UNL     1      26.619   0.116  51.783  1.00  0.00    -0.080 Cl
HETATM   13  C12 UNL     1      24.448  -0.270  53.399  1.00  0.00     0.139 C 
HETATM   14  F2  UNL     1      25.236  -1.212  53.943  1.00  0.00    -0.204 F 
HETATM   15  C13 UNL     1      23.148  -0.290  53.746  1.00  0.00     0.048 C 
HETATM   16  C14 UNL     1      22.104   0.651  53.268  1.00  0.00     0.052 C 
HETATM   17  C15 UNL     1      22.176   1.904  52.766  1.00  0.00     0.109 C 
HETATM   18  N4  UNL     1      20.787   2.127  52.529  1.00  0.00    -0.342 N 
HETATM   19  H17 UNL     1      20.144   2.007  53.356  1.00  0.00     0.167 HD
ENDROOT
BRANCH   1  20
HETATM   20  C4  UNL     1      18.880   1.662  51.167  1.00  0.00     0.118 C 
HETATM   21  F1  UNL     1      17.665   2.115  50.841  1.00  0.00    -0.209 F 
BRANCH  20  22
HETATM   22  C3  UNL     1      19.150   0.215  51.210  1.00  0.00     0.072 C 
BRANCH  22  23
HETATM   23  C2  UNL     1      18.085  -0.530  52.000  1.00  0.00     0.002 C 
HETATM   24  C1  UNL     1      18.719  -1.024  53.288  1.00  0.00     0.005 C 
ENDBRANCH  22  23
ENDBRANCH  20  22
ENDBRANCH   1  20
TORSDOF 3
ENDMDL
MODEL 7
REMARK VINA RESULT:      -6.8      3.052      4.942
REMARK  3 active torsions:
REMARK  status: ('A' for Active; 'I' for Inactive)
REMARK    1  A    between atoms: C2_2  and  C3_3 
REMARK    2  A    between atoms: C3_3  and  C4_4 
REMARK    3  A    between atoms: C4_4  and  C5_6 
ROOT
HETATM    1  C5  UNL     1      25.301   2.420  51.508  1.00  0.00     0.070 C 
HETATM    2  C6  UNL     1      25.712   1.151  52.024  1.00  0.00     0.236 C 
HETATM    3  O1  UNL     1      26.870   0.465  51.628  1.00  0.00    -0.339 OA
HETATM    4  C7  UNL     1      26.932  -0.755  52.397  1.00  0.00     0.252 C 
HETATM    5  N1  UNL     1      26.186  -1.399  53.305  1.00  0.00    -0.231 NA
HETATM    6  C8  UNL     1      24.945  -0.810  53.716  1.00  0.00     0.230 C 
HETATM    7  N2  UNL     1      24.023  -0.147  54.291  1.00  0.00    -0.263 NA
HETATM    8  C9  UNL     1      22.635  -0.124  53.981  1.00  0.00     0.281 C 
HETATM    9  N3  UNL     1      22.231   0.823  52.952  1.00  0.00    -0.323 N 
HETATM   10  C10 UNL     1      21.026   0.260  52.357  1.00  0.00     0.121 C 
HETATM   11  C11 UNL     1      19.884   0.840  51.925  1.00  0.00     0.088 C 
HETATM   12 CL1  UNL     1      18.592  -0.124  51.243  1.00  0.00    -0.080 Cl
HETATM   13  C12 UNL     1      19.618   2.298  51.988  1.00  0.00     0.139 C 
HETATM   14  F2  UNL     1      18.325   2.662  51.955  1.00  0.00    -0.204 F 
HETATM   15  C13 UNL     1      20.526   3.287  52.074  1.00  0.00     0.048 C 
HETATM   16  C14 UNL     1      22.000   3.115  52.123  1.00  0.00     0.052 C 
HETATM   17  C15 UNL     1      22.777   2.072  52.493  1.00  0.00     0.109 C 
HETATM   18  N4  UNL     1      24.057   2.655  52.254  1.00  0.00    -0.342 N 
HETATM   19  H17 UNL     1      24.257   3.566  52.745  1.00  0.00     0.167 HD
ENDROOT
BRANCH   1  20
HETATM   20  C4  UNL     1      25.687   3.336  50.646  1.00  0.00     0.118 C 
HETATM   21  F1  UNL     1      26.785   3.156  49.904  1.00  0.00    -0.209 F 
BRANCH  20  22
HETATM   22  C3  UNL     1      24.887   4.566  50.509  1.00  0.00     0.072 C 
BRANCH  22  23
HETATM   23  C2  UNL     1      24.546   4.852  49.055  1.00  0.00     0.002 C 
HETATM   24  C1  UNL     1      23.149   4.317  48.790  1.00  0.00     0.005 C 
ENDBRANCH  22  23
ENDBRANCH  20  22
ENDBRANCH   1  20
TORSDOF 3
ENDMDL
MODEL 8
REMARK VINA RESULT:      -6.8      7.918     10.206
REMARK  3 active torsions:
REMARK  status: ('A' for Active; 'I' for Inactive)
REMARK    1  A    between atoms: C2_2  and  C3_3 
REMARK    2  A    between atoms: C3_3  and  C4_4 
REMARK    3  A    between atoms: C4_4  and  C5_6 
ROOT
HETATM    1  C5  UNL     1      27.798   6.758  48.707  1.00  0.00     0.070 C 
HETATM    2  C6  UNL     1      27.950   8.179  48.768  1.00  0.00     0.236 C 
HETATM    3  O1  UNL     1      26.889   9.098  48.738  1.00  0.00    -0.339 OA
HETATM    4  C7  UNL     1      27.461  10.418  48.844  1.00  0.00     0.252 C 
HETATM    5  N1  UNL     1      28.678  10.975  48.907  1.00  0.00    -0.231 NA
HETATM    6  C8  UNL     1      29.827  10.119  48.867  1.00  0.00     0.230 C 
HETATM    7  N2  UNL     1      30.807   9.353  49.138  1.00  0.00    -0.263 NA
HETATM    8  C9  UNL     1      31.732   8.757  48.236  1.00  0.00     0.281 C 
HETATM    9  N3  UNL     1      31.321   7.491  47.650  1.00  0.00    -0.323 N 
HETATM   10  C10 UNL     1      32.015   7.409  46.373  1.00  0.00     0.121 C 
HETATM   11  C11 UNL     1      32.595   6.370  45.731  1.00  0.00     0.088 C 
HETATM   12 CL1  UNL     1      33.365   6.594  44.175  1.00  0.00    -0.080 Cl
HETATM   13  C12 UNL     1      32.639   4.986  46.264  1.00  0.00     0.139 C 
HETATM   14  F2  UNL     1      33.601   4.194  45.764  1.00  0.00    -0.204 F 
HETATM   15  C13 UNL     1      31.824   4.444  47.187  1.00  0.00     0.048 C 
HETATM   16  C14 UNL     1      30.699   5.133  47.868  1.00  0.00     0.052 C 
HETATM   17  C15 UNL     1      30.441   6.441  48.090  1.00  0.00     0.109 C 
HETATM   18  N4  UNL     1      29.196   6.307  48.774  1.00  0.00    -0.342 N 
HETATM   19  H17 UNL     1      29.194   5.694  49.631  1.00  0.00     0.167 HD
ENDROOT
BRANCH   1  20
HETATM   20  C4  UNL     1      26.857   5.843  48.619  1.00  0.00     0.118 C 
HETATM   21  F1  UNL     1      25.616   6.173  48.247  1.00  0.00    -0.209 F 
BRANCH  20  22
HETATM   22  C3  UNL     1      27.193   4.445  48.939  1.00  0.00     0.072 C 
BRANCH  22  23
HETATM   23  C2  UNL     1      26.005   3.707  49.538  1.00  0.00     0.002 C 
HETATM   24  C1  UNL     1      26.518   2.848  50.681  1.00  0.00     0.005 C 
ENDBRANCH  22  23
ENDBRANCH  20  22
ENDBRANCH   1  20
TORSDOF 3
ENDMDL
MODEL 9
REMARK VINA RESULT:      -6.6      1.722      2.213
REMARK  3 active torsions:
REMARK  status: ('A' for Active; 'I' for Inactive)
REMARK    1  A    between atoms: C2_2  and  C3_3 
REMARK    2  A    between atoms: C3_3  and  C4_4 
REMARK    3  A    between atoms: C4_4  and  C5_6 
ROOT
HETATM    1  C5  UNL     1      23.543   0.815  52.565  1.00  0.00     0.070 C 
HETATM    2  C6  UNL     1      24.899   1.268  52.486  1.00  0.00     0.236 C 
HETATM    3  O1  UNL     1      25.910   0.922  53.395  1.00  0.00    -0.339 OA
HETATM    4  C7  UNL     1      27.125   1.562  52.949  1.00  0.00     0.252 C 
HETATM    5  N1  UNL     1      27.511   2.400  51.977  1.00  0.00    -0.231 NA
HETATM    6  C8  UNL     1      26.529   2.869  51.045  1.00  0.00     0.230 C 
HETATM    7  N2  UNL     1      25.736   3.029  50.062  1.00  0.00    -0.263 NA
HETATM    8  C9  UNL     1      24.808   4.086  49.846  1.00  0.00     0.281 C 
HETATM    9  N3  UNL     1      23.500   3.917  50.458  1.00  0.00    -0.323 N 
HETATM   10  C10 UNL     1      22.997   5.267  50.681  1.00  0.00     0.121 C 
HETATM   11  C11 UNL     1      21.759   5.795  50.555  1.00  0.00     0.088 C 
HETATM   12 CL1  UNL     1      21.466   7.485  50.904  1.00  0.00    -0.080 Cl
HETATM   13  C12 UNL     1      20.568   5.024  50.121  1.00  0.00     0.139 C 
HETATM   14  F2  UNL     1      19.552   5.745  49.620  1.00  0.00    -0.204 F 
HETATM   15  C13 UNL     1      20.398   3.691  50.176  1.00  0.00     0.048 C 
HETATM   16  C14 UNL     1      21.384   2.707  50.690  1.00  0.00     0.052 C 
HETATM   17  C15 UNL     1      22.727   2.762  50.831  1.00  0.00     0.109 C 
HETATM   18  N4  UNL     1      22.943   1.469  51.394  1.00  0.00    -0.342 N 
HETATM   19  H17 UNL     1      22.579   0.649  50.840  1.00  0.00     0.167 HD
ENDROOT
BRANCH   1  20
HETATM   20  C4  UNL     1      22.771   0.059  53.314  1.00  0.00     0.118 C 
HETATM   21  F1  UNL     1      23.188  -1.142  53.732  1.00  0.00    -0.209 F 
BRANCH  20  22
HETATM   22  C3  UNL     1      21.435   0.555  53.687  1.00  0.00     0.072 C 
BRANCH  22  23
HETATM   23  C2  UNL     1      20.363  -0.500  53.458  1.00  0.00     0.002 C 
HETATM   24  C1  UNL     1      19.438   0.005  52.364  1.00  0.00     0.005 C 
ENDBRANCH  22  23
ENDBRANCH  20  22
ENDBRANCH   1  20
TORSDOF 3
ENDMDL
