MODEL 1
REMARK VINA RESULT:      -7.4      0.000      0.000
REMARK  4 active torsions:
REMARK  status: ('A' for Active; 'I' for Inactive)
REMARK    1  A    between atoms: O1_2  and  C2_3 
REMARK    2  A    between atoms: C2_3  and  C3_4 
REMARK    3  A    between atoms: C7_11  and  O2_12 
REMARK    4  A    between atoms: O2_12  and  C8_13 
ROOT
HETATM    1  C3  UNL     1      23.729   3.309  50.457  1.00  0.00     0.023 C 
HETATM    2  C4  UNL     1      23.258   2.850  49.285  1.00  0.00     0.145 A 
HETATM    3  C5  UNL     1      22.289   1.929  48.699  1.00  0.00     0.098 A 
HETATM    4  N1  UNL     1      22.235   1.800  49.956  1.00  0.00    -0.335 N 
HETATM    5  S1  UNL     1      21.093   0.617  50.656  1.00  0.00    -0.108 SA
HETATM    6  C6  UNL     1      21.859   0.144  52.246  1.00  0.00     0.310 C 
HETATM    7  N2  UNL     1      22.743   0.239  53.180  1.00  0.00    -0.229 NA
HETATM    8  C7  UNL     1      23.766   1.215  53.045  1.00  0.00     0.166 C 
HETATM    9  C14 UNL     1      24.315   2.380  52.634  1.00  0.00     0.032 C 
HETATM   10  C15 UNL     1      23.287   3.099  51.872  1.00  0.00     0.046 C 
ENDROOT
BRANCH   8  11
HETATM   11  O2  UNL     1      24.397   0.224  53.803  1.00  0.00    -0.292 OA
BRANCH  11  12
HETATM   12  C8  UNL     1      25.755  -0.014  53.662  1.00  0.00     0.079 A 
HETATM   13  C9  UNL     1      26.094  -1.143  52.934  1.00  0.00     0.040 A 
HETATM   14  C10 UNL     1      27.419  -1.522  52.702  1.00  0.00     0.047 A 
HETATM   15  C11 UNL     1      28.431  -0.723  53.231  1.00  0.00     0.138 A 
HETATM   16  F1  UNL     1      29.725  -1.078  53.013  1.00  0.00    -0.204 F 
HETATM   17  C12 UNL     1      28.103   0.404  53.958  1.00  0.00     0.075 A 
HETATM   18 CL1  UNL     1      29.331   1.428  54.634  1.00  0.00    -0.081 Cl
HETATM   19  C13 UNL     1      26.790   0.745  54.165  1.00  0.00     0.064 A 
ENDBRANCH  11  12
ENDBRANCH   8  11
BRANCH   1  20
HETATM   20  C2  UNL     1      24.843   4.336  50.503  1.00  0.00     0.180 C 
BRANCH  20  21
HETATM   21  O1  UNL     1      25.452   4.339  49.274  1.00  0.00    -0.395 OA
HETATM   22  C1  UNL     1      26.806   4.022  49.330  1.00  0.00     0.201 C 
ENDBRANCH  20  21
ENDBRANCH   1  20
TORSDOF 4
ENDMDL
MODEL 2
REMARK VINA RESULT:      -7.3      2.235      4.038
REMARK  4 active torsions:
REMARK  status: ('A' for Active; 'I' for Inactive)
REMARK    1  A    between atoms: O1_2  and  C2_3 
REMARK    2  A    between atoms: C2_3  and  C3_4 
REMARK    3  A    between atoms: C7_11  and  O2_12 
REMARK    4  A    between atoms: O2_12  and  C8_13 
ROOT
HETATM    1  C3  UNL     1      21.383   1.472  52.717  1.00  0.00     0.023 C 
HETATM    2  C4  UNL     1      20.575   2.494  52.386  1.00  0.00     0.145 A 
HETATM    3  C5  UNL     1      20.396   3.572  51.418  1.00  0.00     0.098 A 
HETATM    4  N1  UNL     1      21.485   2.987  51.150  1.00  0.00    -0.335 N 
HETATM    5  S1  UNL     1      22.466   3.575  49.776  1.00  0.00    -0.108 SA
HETATM    6  C6  UNL     1      24.176   3.105  50.216  1.00  0.00     0.310 C 
HETATM    7  N2  UNL     1      25.067   2.523  50.945  1.00  0.00    -0.229 NA
HETATM    8  C7  UNL     1      24.636   1.797  52.087  1.00  0.00     0.166 C 
HETATM    9  C14 UNL     1      23.783   1.057  52.831  1.00  0.00     0.032 C 
HETATM   10  C15 UNL     1      22.567   0.863  52.032  1.00  0.00     0.046 C 
ENDROOT
BRANCH   8  11
HETATM   11  O2  UNL     1      25.916   2.216  52.464  1.00  0.00    -0.292 OA
BRANCH  11  12
HETATM   12  C8  UNL     1      26.890   1.289  52.801  1.00  0.00     0.079 A 
HETATM   13  C9  UNL     1      28.033   1.807  53.389  1.00  0.00     0.040 A 
HETATM   14  C10 UNL     1      29.107   1.006  53.787  1.00  0.00     0.047 A 
HETATM   15  C11 UNL     1      29.012  -0.367  53.577  1.00  0.00     0.138 A 
HETATM   16  F1  UNL     1      30.049  -1.160  53.959  1.00  0.00    -0.204 F 
HETATM   17  C12 UNL     1      27.877  -0.894  52.992  1.00  0.00     0.075 A 
HETATM   18 CL1  UNL     1      27.716  -2.599  52.713  1.00  0.00    -0.081 Cl
HETATM   19  C13 UNL     1      26.842  -0.075  52.614  1.00  0.00     0.064 A 
ENDBRANCH  11  12
ENDBRANCH   8  11
BRANCH   1  20
HETATM   20  C2  UNL     1      21.091   0.604  53.925  1.00  0.00     0.180 C 
BRANCH  20  21
HETATM   21  O1  UNL     1      20.848  -0.667  53.469  1.00  0.00    -0.395 OA
HETATM   22  C1  UNL     1      21.312  -1.658  54.329  1.00  0.00     0.201 C 
ENDBRANCH  20  21
ENDBRANCH   1  20
TORSDOF 4
ENDMDL
MODEL 3
REMARK VINA RESULT:      -7.2      1.936      2.371
REMARK  4 active torsions:
REMARK  status: ('A' for Active; 'I' for Inactive)
REMARK    1  A    between atoms: O1_2  and  C2_3 
REMARK    2  A    between atoms: C2_3  and  C3_4 
REMARK    3  A    between atoms: C7_11  and  O2_12 
REMARK    4  A    between atoms: O2_12  and  C8_13 
ROOT
HETATM    1  C3  UNL     1      22.497   1.654  51.221  1.00  0.00     0.023 C 
HETATM    2  C4  UNL     1      21.272   1.157  50.979  1.00  0.00     0.145 A 
HETATM    3  C5  UNL     1      20.185   0.391  51.582  1.00  0.00     0.098 A 
HETATM    4  N1  UNL     1      21.135   0.437  52.416  1.00  0.00    -0.335 N 
HETATM    5  S1  UNL     1      20.944  -0.384  53.991  1.00  0.00    -0.108 SA
HETATM    6  C6  UNL     1      22.653  -0.799  54.489  1.00  0.00     0.310 C 
HETATM    7  N2  UNL     1      23.936  -0.772  54.362  1.00  0.00    -0.229 NA
HETATM    8  C7  UNL     1      24.490  -0.055  53.268  1.00  0.00     0.166 C 
HETATM    9  C14 UNL     1      24.542   0.909  52.321  1.00  0.00     0.032 C 
HETATM   10  C15 UNL     1      23.328   1.723  52.465  1.00  0.00     0.046 C 
ENDROOT
BRANCH   8  11
HETATM   11  O2  UNL     1      25.447  -1.051  53.490  1.00  0.00    -0.292 OA
BRANCH  11  12
HETATM   12  C8  UNL     1      26.797  -0.736  53.530  1.00  0.00     0.079 A 
HETATM   13  C9  UNL     1      27.660  -1.745  53.138  1.00  0.00     0.040 A 
HETATM   14  C10 UNL     1      29.049  -1.588  53.123  1.00  0.00     0.047 A 
HETATM   15  C11 UNL     1      29.573  -0.360  53.521  1.00  0.00     0.138 A 
HETATM   16  F1  UNL     1      30.922  -0.190  53.511  1.00  0.00    -0.204 F 
HETATM   17  C12 UNL     1      28.720   0.654  53.912  1.00  0.00     0.075 A 
HETATM   18 CL1  UNL     1      29.329   2.199  54.415  1.00  0.00    -0.081 Cl
HETATM   19  C13 UNL     1      27.361   0.462  53.915  1.00  0.00     0.064 A 
ENDBRANCH  11  12
ENDBRANCH   8  11
BRANCH   1  20
HETATM   20  C2  UNL     1      23.252   2.425  50.156  1.00  0.00     0.180 C 
BRANCH  20  21
HETATM   21  O1  UNL     1      22.353   2.757  49.174  1.00  0.00    -0.395 OA
HETATM   22  C1  UNL     1      22.182   4.130  49.026  1.00  0.00     0.201 C 
ENDBRANCH  20  21
ENDBRANCH   1  20
TORSDOF 4
ENDMDL
MODEL 4
REMARK VINA RESULT:      -7.2      3.954      6.453
REMARK  4 active torsions:
REMARK  status: ('A' for Active; 'I' for Inactive)
REMARK    1  A    between atoms: O1_2  and  C2_3 
REMARK    2  A    between atoms: C2_3  and  C3_4 
REMARK    3  A    between atoms: C7_11  and  O2_12 
REMARK    4  A    between atoms: O2_12  and  C8_13 
ROOT
HETATM    1  C3  UNL     1      23.574   1.019  53.079  1.00  0.00     0.023 C 
HETATM    2  C4  UNL     1      23.968  -0.108  53.697  1.00  0.00     0.145 A 
HETATM    3  C5  UNL     1      25.124  -0.758  54.308  1.00  0.00     0.098 A 
HETATM    4  N1  UNL     1      25.509   0.349  53.834  1.00  0.00    -0.335 N 
HETATM    5  S1  UNL     1      27.227   0.810  54.000  1.00  0.00    -0.108 SA
HETATM    6  C6  UNL     1      27.531   1.920  52.580  1.00  0.00     0.310 C 
HETATM    7  N2  UNL     1      27.172   2.610  51.551  1.00  0.00    -0.229 NA
HETATM    8  C7  UNL     1      25.800   2.614  51.186  1.00  0.00     0.166 C 
HETATM    9  C14 UNL     1      24.466   2.538  51.393  1.00  0.00     0.032 C 
HETATM   10  C15 UNL     1      24.262   2.325  52.831  1.00  0.00     0.046 C 
ENDROOT
BRANCH   8  11
HETATM   11  O2  UNL     1      26.438   2.812  49.957  1.00  0.00    -0.292 OA
BRANCH  11  12
HETATM   12  C8  UNL     1      26.520   4.080  49.402  1.00  0.00     0.079 A 
HETATM   13  C9  UNL     1      25.356   4.829  49.442  1.00  0.00     0.040 A 
HETATM   14  C10 UNL     1      25.274   6.125  48.925  1.00  0.00     0.047 A 
HETATM   15  C11 UNL     1      26.416   6.673  48.346  1.00  0.00     0.138 A 
HETATM   16  F1  UNL     1      26.353   7.933  47.838  1.00  0.00    -0.204 F 
HETATM   17  C12 UNL     1      27.582   5.933  48.301  1.00  0.00     0.075 A 
HETATM   18 CL1  UNL     1      29.029   6.577  47.591  1.00  0.00    -0.081 Cl
HETATM   19  C13 UNL     1      27.625   4.663  48.820  1.00  0.00     0.064 A 
ENDBRANCH  11  12
ENDBRANCH   8  11
BRANCH   1  20
HETATM   20  C2  UNL     1      22.147   1.186  52.594  1.00  0.00     0.180 C 
BRANCH  20  21
HETATM   21  O1  UNL     1      21.873   0.137  51.753  1.00  0.00    -0.395 OA
HETATM   22  C1  UNL     1      21.278   0.532  50.558  1.00  0.00     0.201 C 
ENDBRANCH  20  21
ENDBRANCH   1  20
TORSDOF 4
ENDMDL
MODEL 5
REMARK VINA RESULT:      -7.1      3.243      5.849
REMARK  4 active torsions:
REMARK  status: ('A' for Active; 'I' for Inactive)
REMARK    1  A    between atoms: O1_2  and  C2_3 
REMARK    2  A    between atoms: C2_3  and  C3_4 
REMARK    3  A    between atoms: C7_11  and  O2_12 
REMARK    4  A    between atoms: O2_12  and  C8_13 
ROOT
HETATM    1  C3  UNL     1      25.739  -0.238  54.278  1.00  0.00     0.023 C 
HETATM    2  C4  UNL     1      24.877  -0.789  55.149  1.00  0.00     0.145 A 
HETATM    3  C5  UNL     1      23.500  -1.251  55.292  1.00  0.00     0.098 A 
HETATM    4  N1  UNL     1      23.623  -0.751  54.137  1.00  0.00    -0.335 N 
HETATM    5  S1  UNL     1      22.203  -0.721  53.052  1.00  0.00    -0.108 SA
HETATM    6  C6  UNL     1      22.510   0.709  51.956  1.00  0.00     0.310 C 
HETATM    7  N2  UNL     1      23.219   1.679  51.486  1.00  0.00    -0.229 NA
HETATM    8  C7  UNL     1      24.521   1.880  52.016  1.00  0.00     0.166 C 
HETATM    9  C14 UNL     1      25.693   1.519  52.588  1.00  0.00     0.032 C 
HETATM   10  C15 UNL     1      25.635   0.070  52.816  1.00  0.00     0.046 C 
ENDROOT
BRANCH   8  11
HETATM   11  O2  UNL     1      24.152   3.173  51.630  1.00  0.00    -0.292 OA
BRANCH  11  12
HETATM   12  C8  UNL     1      24.949   3.904  50.763  1.00  0.00     0.079 A 
HETATM   13  C9  UNL     1      25.957   3.195  50.132  1.00  0.00     0.040 A 
HETATM   14  C10 UNL     1      26.846   3.786  49.230  1.00  0.00     0.047 A 
HETATM   15  C11 UNL     1      26.700   5.146  48.964  1.00  0.00     0.138 A 
HETATM   16  F1  UNL     1      27.557   5.736  48.088  1.00  0.00    -0.204 F 
HETATM   17  C12 UNL     1      25.698   5.862  49.588  1.00  0.00     0.075 A 
HETATM   18 CL1  UNL     1      25.480   7.558  49.285  1.00  0.00    -0.081 Cl
HETATM   19  C13 UNL     1      24.844   5.247  50.468  1.00  0.00     0.064 A 
ENDBRANCH  11  12
ENDBRANCH   8  11
BRANCH   1  20
HETATM   20  C2  UNL     1      27.167   0.073  54.681  1.00  0.00     0.180 C 
BRANCH  20  21
HETATM   21  O1  UNL     1      27.961  -0.936  54.197  1.00  0.00    -0.395 OA
HETATM   22  C1  UNL     1      29.219  -0.500  53.791  1.00  0.00     0.201 C 
ENDBRANCH  20  21
ENDBRANCH   1  20
TORSDOF 4
ENDMDL
MODEL 6
REMARK VINA RESULT:      -6.8      4.039      6.457
REMARK  4 active torsions:
REMARK  status: ('A' for Active; 'I' for Inactive)
REMARK    1  A    between atoms: O1_2  and  C2_3 
REMARK    2  A    between atoms: C2_3  and  C3_4 
REMARK    3  A    between atoms: C7_11  and  O2_12 
REMARK    4  A    between atoms: O2_12  and  C8_13 
ROOT
HETATM    1  C3  UNL     1      23.140   1.404  52.446  1.00  0.00     0.023 C 
HETATM    2  C4  UNL     1      23.422   0.211  52.998  1.00  0.00     0.145 A 
HETATM    3  C5  UNL     1      24.489  -0.557  53.633  1.00  0.00     0.098 A 
HETATM    4  N1  UNL     1      24.972   0.556  53.275  1.00  0.00    -0.335 N 
HETATM    5  S1  UNL     1      26.698   0.891  53.594  1.00  0.00    -0.108 SA
HETATM    6  C6  UNL     1      27.170   2.082  52.290  1.00  0.00     0.310 C 
HETATM    7  N2  UNL     1      26.929   2.869  51.297  1.00  0.00    -0.229 NA
HETATM    8  C7  UNL     1      25.589   2.989  50.841  1.00  0.00     0.166 C 
HETATM    9  C14 UNL     1      24.241   2.984  50.950  1.00  0.00     0.032 C 
HETATM   10  C15 UNL     1      23.921   2.678  52.349  1.00  0.00     0.046 C 
ENDROOT
BRANCH   8  11
HETATM   11  O2  UNL     1      26.325   3.236  49.678  1.00  0.00    -0.292 OA
BRANCH  11  12
HETATM   12  C8  UNL     1      26.582   4.536  49.269  1.00  0.00     0.079 A 
HETATM   13  C9  UNL     1      27.803   4.739  48.646  1.00  0.00     0.040 A 
HETATM   14  C10 UNL     1      28.212   5.990  48.176  1.00  0.00     0.047 A 
HETATM   15  C11 UNL     1      27.348   7.068  48.348  1.00  0.00     0.138 A 
HETATM   16  F1  UNL     1      27.731   8.292  47.895  1.00  0.00    -0.204 F 
HETATM   17  C12 UNL     1      26.128   6.877  48.968  1.00  0.00     0.075 A 
HETATM   18 CL1  UNL     1      25.021   8.192  49.202  1.00  0.00    -0.081 Cl
HETATM   19  C13 UNL     1      25.761   5.633  49.417  1.00  0.00     0.064 A 
ENDBRANCH  11  12
ENDBRANCH   8  11
BRANCH   1  20
HETATM   20  C2  UNL     1      21.765   1.698  51.880  1.00  0.00     0.180 C 
BRANCH  20  21
HETATM   21  O1  UNL     1      21.272   2.792  52.545  1.00  0.00    -0.395 OA
HETATM   22  C1  UNL     1      20.280   3.465  51.839  1.00  0.00     0.201 C 
ENDBRANCH  20  21
ENDBRANCH   1  20
TORSDOF 4
ENDMDL
MODEL 7
REMARK VINA RESULT:      -6.6      4.060      5.901
REMARK  4 active torsions:
REMARK  status: ('A' for Active; 'I' for Inactive)
REMARK    1  A    between atoms: O1_2  and  C2_3 
REMARK    2  A    between atoms: C2_3  and  C3_4 
REMARK    3  A    between atoms: C7_11  and  O2_12 
REMARK    4  A    between atoms: O2_12  and  C8_13 
ROOT
HETATM    1  C3  UNL     1      26.200   2.837  51.037  1.00  0.00     0.023 C 
HETATM    2  C4  UNL     1      26.785   3.525  50.041  1.00  0.00     0.145 A 
HETATM    3  C5  UNL     1      26.537   4.545  49.027  1.00  0.00     0.098 A 
HETATM    4  N1  UNL     1      25.444   4.316  49.622  1.00  0.00    -0.335 N 
HETATM    5  S1  UNL     1      23.981   5.209  49.116  1.00  0.00    -0.108 SA
HETATM    6  C6  UNL     1      22.603   4.090  49.550  1.00  0.00     0.310 C 
HETATM    7  N2  UNL     1      22.094   3.030  50.080  1.00  0.00    -0.229 NA
HETATM    8  C7  UNL     1      22.963   2.119  50.736  1.00  0.00     0.166 C 
HETATM    9  C14 UNL     1      24.059   1.739  51.432  1.00  0.00     0.032 C 
HETATM   10  C15 UNL     1      24.854   2.948  51.682  1.00  0.00     0.046 C 
ENDROOT
BRANCH   8  11
HETATM   11  O2  UNL     1      21.936   1.283  50.288  1.00  0.00    -0.292 OA
BRANCH  11  12
HETATM   12  C8  UNL     1      21.088   0.661  51.192  1.00  0.00     0.079 A 
HETATM   13  C9  UNL     1      19.742   0.684  50.866  1.00  0.00     0.040 A 
HETATM   14  C10 UNL     1      18.759   0.102  51.672  1.00  0.00     0.047 A 
HETATM   15  C11 UNL     1      19.164  -0.523  52.849  1.00  0.00     0.138 A 
HETATM   16  F1  UNL     1      18.220  -1.095  53.644  1.00  0.00    -0.204 F 
HETATM   17  C12 UNL     1      20.504  -0.553  53.183  1.00  0.00     0.075 A 
HETATM   18 CL1  UNL     1      21.053  -1.321  54.639  1.00  0.00    -0.081 Cl
HETATM   19  C13 UNL     1      21.441   0.030  52.366  1.00  0.00     0.064 A 
ENDBRANCH  11  12
ENDBRANCH   8  11
BRANCH   1  20
HETATM   20  C2  UNL     1      26.972   1.800  51.829  1.00  0.00     0.180 C 
BRANCH  20  21
HETATM   21  O1  UNL     1      27.968   2.457  52.507  1.00  0.00    -0.395 OA
HETATM   22  C1  UNL     1      28.600   1.665  53.460  1.00  0.00     0.201 C 
ENDBRANCH  20  21
ENDBRANCH   1  20
TORSDOF 4
ENDMDL
MODEL 8
REMARK VINA RESULT:      -6.6      3.598      6.147
REMARK  4 active torsions:
REMARK  status: ('A' for Active; 'I' for Inactive)
REMARK    1  A    between atoms: O1_2  and  C2_3 
REMARK    2  A    between atoms: C2_3  and  C3_4 
REMARK    3  A    between atoms: C7_11  and  O2_12 
REMARK    4  A    between atoms: O2_12  and  C8_13 
ROOT
HETATM    1  C3  UNL     1      24.017  -0.348  53.508  1.00  0.00     0.023 C 
HETATM    2  C4  UNL     1      23.116  -0.819  54.387  1.00  0.00     0.145 A 
HETATM    3  C5  UNL     1      21.703  -0.764  54.750  1.00  0.00     0.098 A 
HETATM    4  N1  UNL     1      21.887   0.034  53.787  1.00  0.00    -0.335 N 
HETATM    5  S1  UNL     1      20.497   0.967  53.160  1.00  0.00    -0.108 SA
HETATM    6  C6  UNL     1      21.253   2.476  52.459  1.00  0.00     0.310 C 
HETATM    7  N2  UNL     1      22.247   3.218  52.106  1.00  0.00    -0.229 NA
HETATM    8  C7  UNL     1      23.563   2.726  52.314  1.00  0.00     0.166 C 
HETATM    9  C14 UNL     1      24.525   1.784  52.439  1.00  0.00     0.032 C 
HETATM   10  C15 UNL     1      23.877   0.478  52.267  1.00  0.00     0.046 C 
ENDROOT
BRANCH   8  11
HETATM   11  O2  UNL     1      23.742   4.110  52.408  1.00  0.00    -0.292 OA
BRANCH  11  12
HETATM   12  C8  UNL     1      24.189   4.839  51.316  1.00  0.00     0.079 A 
HETATM   13  C9  UNL     1      25.061   4.175  50.468  1.00  0.00     0.040 A 
HETATM   14  C10 UNL     1      25.602   4.770  49.325  1.00  0.00     0.047 A 
HETATM   15  C11 UNL     1      25.242   6.085  49.039  1.00  0.00     0.138 A 
HETATM   16  F1  UNL     1      25.759   6.678  47.930  1.00  0.00    -0.204 F 
HETATM   17  C12 UNL     1      24.373   6.755  49.878  1.00  0.00     0.075 A 
HETATM   18 CL1  UNL     1      23.897   8.394  49.559  1.00  0.00    -0.081 Cl
HETATM   19  C13 UNL     1      23.862   6.138  50.992  1.00  0.00     0.064 A 
ENDBRANCH  11  12
ENDBRANCH   8  11
BRANCH   1  20
HETATM   20  C2  UNL     1      25.477  -0.746  53.596  1.00  0.00     0.180 C 
BRANCH  20  21
HETATM   21  O1  UNL     1      25.896  -0.493  54.878  1.00  0.00    -0.395 OA
HETATM   22  C1  UNL     1      27.072   0.250  54.936  1.00  0.00     0.201 C 
ENDBRANCH  20  21
ENDBRANCH   1  20
TORSDOF 4
ENDMDL
MODEL 9
REMARK VINA RESULT:      -6.5      3.532      4.682
REMARK  4 active torsions:
REMARK  status: ('A' for Active; 'I' for Inactive)
REMARK    1  A    between atoms: O1_2  and  C2_3 
REMARK    2  A    between atoms: C2_3  and  C3_4 
REMARK    3  A    between atoms: C7_11  and  O2_12 
REMARK    4  A    between atoms: O2_12  and  C8_13 
ROOT
HETATM    1  C3  UNL     1      23.085   4.974  49.495  1.00  0.00     0.023 C 
HETATM    2  C4  UNL     1      23.077   6.318  49.495  1.00  0.00     0.145 A 
HETATM    3  C5  UNL     1      23.875   7.488  49.142  1.00  0.00     0.098 A 
HETATM    4  N1  UNL     1      24.574   6.460  48.914  1.00  0.00    -0.335 N 
HETATM    5  S1  UNL     1      26.232   6.665  48.280  1.00  0.00    -0.108 SA
HETATM    6  C6  UNL     1      27.120   5.177  48.860  1.00  0.00     0.310 C 
HETATM    7  N2  UNL     1      27.197   4.020  49.426  1.00  0.00    -0.229 NA
HETATM    8  C7  UNL     1      26.006   3.439  49.937  1.00  0.00     0.166 C 
HETATM    9  C14 UNL     1      24.677   3.197  50.001  1.00  0.00     0.032 C 
HETATM   10  C15 UNL     1      24.044   3.973  48.928  1.00  0.00     0.046 C 
ENDROOT
BRANCH   8  11
HETATM   11  O2  UNL     1      26.987   2.901  50.777  1.00  0.00    -0.292 OA
BRANCH  11  12
HETATM   12  C8  UNL     1      26.658   1.939  51.719  1.00  0.00     0.079 A 
HETATM   13  C9  UNL     1      26.119   2.417  52.902  1.00  0.00     0.040 A 
HETATM   14  C10 UNL     1      25.736   1.577  53.952  1.00  0.00     0.047 A 
HETATM   15  C11 UNL     1      25.910   0.204  53.788  1.00  0.00     0.138 A 
HETATM   16  F1  UNL     1      25.541  -0.626  54.800  1.00  0.00    -0.204 F 
HETATM   17  C12 UNL     1      26.447  -0.283  52.612  1.00  0.00     0.075 A 
HETATM   18 CL1  UNL     1      26.680  -1.985  52.366  1.00  0.00    -0.081 Cl
HETATM   19  C13 UNL     1      26.811   0.574  51.604  1.00  0.00     0.064 A 
ENDBRANCH  11  12
ENDBRANCH   8  11
BRANCH   1  20
HETATM   20  C2  UNL     1      21.907   4.184  50.031  1.00  0.00     0.180 C 
BRANCH  20  21
HETATM   21  O1  UNL     1      21.466   4.822  51.163  1.00  0.00    -0.395 OA
HETATM   22  C1  UNL     1      21.724   4.110  52.331  1.00  0.00     0.201 C 
ENDBRANCH  20  21
ENDBRANCH   1  20
TORSDOF 4
ENDMDL
