MODEL 1
REMARK VINA RESULT:      -7.8      0.000      0.000
REMARK  3 active torsions:
REMARK  status: ('A' for Active; 'I' for Inactive)
REMARK    1  A    between atoms: C2_2  and  S1_3 
REMARK    2  A    between atoms: S1_3  and  N1_4 
REMARK    3  A    between atoms: C9_13  and  N3_14 
ROOT
HETATM    1  S1  UNL     1      24.151   2.719  51.784  1.00  0.00    -0.048 SA
HETATM    2  N2  UNL     1      24.783   2.899  50.375  1.00  0.00    -0.225 NA
HETATM    3  C8  UNL     1      25.394   4.061  49.860  1.00  0.00     0.150 C 
HETATM    4  C9  UNL     1      25.690   5.230  49.264  1.00  0.00     0.022 C 
HETATM    5  C10 UNL     1      24.732   6.073  48.503  1.00  0.00     0.030 C 
HETATM    6  C11 UNL     1      23.626   5.297  48.628  1.00  0.00     0.059 C 
HETATM    7  C12 UNL     1      22.256   5.536  48.095  1.00  0.00    -0.003 C 
HETATM    8  C13 UNL     1      21.555   4.481  48.486  1.00  0.00     0.087 C 
HETATM    9  N4  UNL     1      21.851   3.304  49.233  1.00  0.00    -0.336 N 
HETATM   10  C14 UNL     1      21.926   1.884  49.315  1.00  0.00     0.245 C 
HETATM   11  O1  UNL     1      21.527   2.031  48.145  1.00  0.00    -0.271 OA
HETATM   12  C15 UNL     1      22.353   1.126  50.501  1.00  0.00     0.193 C 
HETATM   13  N5  UNL     1      21.317   0.215  50.971  1.00  0.00    -0.347 N 
HETATM   14  C16 UNL     1      21.109   0.306  52.374  1.00  0.00     0.219 C 
HETATM   15  O2  UNL     1      20.122  -0.113  53.049  1.00  0.00    -0.274 OA
HETATM   16  C17 UNL     1      22.354   1.021  52.834  1.00  0.00     0.122 C 
HETATM   17  C18 UNL     1      22.528   2.022  51.711  1.00  0.00     0.113 C 
HETATM   18  H17 UNL     1      22.142   3.774  50.113  1.00  0.00     0.168 HD
HETATM   19  H19 UNL     1      20.794  -0.432  50.309  1.00  0.00     0.163 HD
ENDROOT
BRANCH   1  20
HETATM   20  C2  UNL     1      24.043   4.225  52.284  1.00  0.00     0.036 C 
HETATM   21  C1  UNL     1      22.609   4.605  52.355  1.00  0.00     0.045 C 
ENDBRANCH   1  20
BRANCH   1  22
HETATM   22  N1  UNL     1      25.214   1.760  52.737  1.00  0.00    -0.304 N 
HETATM   23  C3  UNL     1      25.757   2.190  53.965  1.00  0.00     0.100 A 
HETATM   24  C4  UNL     1      26.551   1.359  54.591  1.00  0.00    -0.003 A 
HETATM   25  C5  UNL     1      26.979   0.007  54.200  1.00  0.00     0.076 A 
HETATM   26  C6  UNL     1      26.382  -0.393  52.909  1.00  0.00     0.009 A 
HETATM   27 BR1  UNL     1      26.794  -2.110  52.200  1.00  0.00    -0.054 Br
HETATM   28  C7  UNL     1      25.590   0.459  52.303  1.00  0.00     0.119 A 
ENDBRANCH   1  22
BRANCH   4  29
HETATM   29  N3  UNL     1      27.086   5.587  49.411  1.00  0.00    -0.401 N 
HETATM   30  H11 UNL     1      27.640   6.349  49.853  1.00  0.00     0.156 HD
HETATM   31  H12 UNL     1      27.854   4.989  48.998  1.00  0.00     0.156 HD
ENDBRANCH   4  29
TORSDOF 3
ENDMDL
MODEL 2
REMARK VINA RESULT:      -7.7      3.105      6.949
REMARK  3 active torsions:
REMARK  status: ('A' for Active; 'I' for Inactive)
REMARK    1  A    between atoms: C2_2  and  S1_3 
REMARK    2  A    between atoms: S1_3  and  N1_4 
REMARK    3  A    between atoms: C9_13  and  N3_14 
ROOT
HETATM    1  S1  UNL     1      22.974   4.208  50.641  1.00  0.00    -0.048 SA
HETATM    2  N2  UNL     1      23.148   2.681  50.405  1.00  0.00    -0.225 NA
HETATM    3  C8  UNL     1      22.552   1.634  51.138  1.00  0.00     0.150 C 
HETATM    4  C9  UNL     1      22.244   0.655  52.007  1.00  0.00     0.022 C 
HETATM    5  C10 UNL     1      23.118   0.179  53.111  1.00  0.00     0.030 C 
HETATM    6  C11 UNL     1      24.181   0.996  52.903  1.00  0.00     0.059 C 
HETATM    7  C12 UNL     1      25.459   1.072  53.662  1.00  0.00    -0.003 C 
HETATM    8  C13 UNL     1      26.156   2.021  53.052  1.00  0.00     0.087 C 
HETATM    9  N4  UNL     1      25.921   2.872  51.934  1.00  0.00    -0.336 N 
HETATM   10  C14 UNL     1      26.286   3.327  50.635  1.00  0.00     0.245 C 
HETATM   11  O1  UNL     1      27.161   2.464  50.836  1.00  0.00    -0.271 OA
HETATM   12  C15 UNL     1      25.583   4.372  49.875  1.00  0.00     0.193 C 
HETATM   13  N5  UNL     1      26.455   5.491  49.546  1.00  0.00    -0.347 N 
HETATM   14  C16 UNL     1      25.861   6.748  49.842  1.00  0.00     0.219 C 
HETATM   15  O2  UNL     1      26.427   7.876  49.952  1.00  0.00    -0.274 OA
HETATM   16  C17 UNL     1      24.405   6.384  49.986  1.00  0.00     0.122 C 
HETATM   17  C18 UNL     1      24.522   5.060  50.710  1.00  0.00     0.113 C 
HETATM   18  H17 UNL     1      25.080   3.355  52.309  1.00  0.00     0.168 HD
HETATM   19  H19 UNL     1      27.424   5.347  49.133  1.00  0.00     0.163 HD
ENDROOT
BRANCH   1  20
HETATM   20  C2  UNL     1      22.305   4.237  52.083  1.00  0.00     0.036 C 
HETATM   21  C1  UNL     1      23.298   4.747  53.062  1.00  0.00     0.045 C 
ENDBRANCH   1  20
BRANCH   1  22
HETATM   22  N1  UNL     1      21.956   4.835  49.404  1.00  0.00    -0.304 N 
HETATM   23  C3  UNL     1      20.952   5.796  49.640  1.00  0.00     0.100 A 
HETATM   24  C4  UNL     1      20.249   6.191  48.609  1.00  0.00    -0.003 A 
HETATM   25  C5  UNL     1      20.347   5.775  47.201  1.00  0.00     0.076 A 
HETATM   26  C6  UNL     1      21.414   4.769  47.011  1.00  0.00     0.009 A 
HETATM   27 BR1  UNL     1      21.726   4.082  45.265  1.00  0.00    -0.054 Br
HETATM   28  C7  UNL     1      22.102   4.392  48.061  1.00  0.00     0.119 A 
ENDBRANCH   1  22
BRANCH   4  29
HETATM   29  N3  UNL     1      20.949   0.064  51.737  1.00  0.00    -0.401 N 
HETATM   30  H11 UNL     1      20.342  -0.673  52.151  1.00  0.00     0.156 HD
HETATM   31  H12 UNL     1      20.358   0.382  50.921  1.00  0.00     0.156 HD
ENDBRANCH   4  29
TORSDOF 3
ENDMDL
MODEL 3
REMARK VINA RESULT:      -7.6      2.887      5.885
REMARK  3 active torsions:
REMARK  status: ('A' for Active; 'I' for Inactive)
REMARK    1  A    between atoms: C2_2  and  S1_3 
REMARK    2  A    between atoms: S1_3  and  N1_4 
REMARK    3  A    between atoms: C9_13  and  N3_14 
ROOT
HETATM    1  S1  UNL     1      23.601   4.467  50.608  1.00  0.00    -0.048 SA
HETATM    2  N2  UNL     1      23.664   4.154  52.130  1.00  0.00    -0.225 NA
HETATM    3  C8  UNL     1      24.500   3.215  52.770  1.00  0.00     0.150 C 
HETATM    4  C9  UNL     1      25.055   2.129  53.336  1.00  0.00     0.022 C 
HETATM    5  C10 UNL     1      24.391   0.810  53.498  1.00  0.00     0.030 C 
HETATM    6  C11 UNL     1      23.190   1.111  52.943  1.00  0.00     0.059 C 
HETATM    7  C12 UNL     1      22.001   0.233  52.763  1.00  0.00    -0.003 C 
HETATM    8  C13 UNL     1      21.096   1.009  52.183  1.00  0.00     0.087 C 
HETATM    9  N4  UNL     1      21.069   2.368  51.756  1.00  0.00    -0.336 N 
HETATM   10  C14 UNL     1      20.502   3.672  51.835  1.00  0.00     0.245 C 
HETATM   11  O1  UNL     1      19.810   3.064  52.674  1.00  0.00    -0.271 OA
HETATM   12  C15 UNL     1      20.938   4.834  51.046  1.00  0.00     0.193 C 
HETATM   13  N5  UNL     1      19.861   5.377  50.229  1.00  0.00    -0.347 N 
HETATM   14  C16 UNL     1      20.261   5.610  48.886  1.00  0.00     0.219 C 
HETATM   15  O2  UNL     1      19.527   5.795  47.870  1.00  0.00    -0.274 OA
HETATM   16  C17 UNL     1      21.765   5.579  48.994  1.00  0.00     0.122 C 
HETATM   17  C18 UNL     1      21.948   4.448  49.983  1.00  0.00     0.113 C 
HETATM   18  H17 UNL     1      21.850   2.309  51.073  1.00  0.00     0.168 HD
HETATM   19  H19 UNL     1      18.893   5.565  50.628  1.00  0.00     0.163 HD
ENDROOT
BRANCH   1  20
HETATM   20  C2  UNL     1      24.399   3.237  49.992  1.00  0.00     0.036 C 
HETATM   21  C1  UNL     1      23.499   2.491  49.077  1.00  0.00     0.045 C 
ENDBRANCH   1  20
BRANCH   1  22
HETATM   22  N1  UNL     1      24.368   5.983  50.335  1.00  0.00    -0.304 N 
HETATM   23  C3  UNL     1      23.890   7.200  50.861  1.00  0.00     0.100 A 
HETATM   24  C4  UNL     1      24.570   8.282  50.579  1.00  0.00    -0.003 A 
HETATM   25  C5  UNL     1      25.792   8.429  49.773  1.00  0.00     0.076 A 
HETATM   26  C6  UNL     1      26.249   7.125  49.247  1.00  0.00     0.009 A 
HETATM   27 BR1  UNL     1      27.817   7.068  48.172  1.00  0.00    -0.054 Br
HETATM   28  C7  UNL     1      25.548   6.058  49.546  1.00  0.00     0.119 A 
ENDBRANCH   1  22
BRANCH   4  29
HETATM   29  N3  UNL     1      26.397   2.383  53.820  1.00  0.00    -0.401 N 
HETATM   30  H11 UNL     1      27.152   3.079  53.653  1.00  0.00     0.156 HD
HETATM   31  H12 UNL     1      26.848   1.760  54.545  1.00  0.00     0.156 HD
ENDBRANCH   4  29
TORSDOF 3
ENDMDL
MODEL 4
REMARK VINA RESULT:      -7.0      3.963      7.646
REMARK  3 active torsions:
REMARK  status: ('A' for Active; 'I' for Inactive)
REMARK    1  A    between atoms: C2_2  and  S1_3 
REMARK    2  A    between atoms: S1_3  and  N1_4 
REMARK    3  A    between atoms: C9_13  and  N3_14 
ROOT
HETATM    1  S1  UNL     1      23.256   5.940  49.221  1.00  0.00    -0.048 SA
HETATM    2  N2  UNL     1      23.340   4.523  48.586  1.00  0.00    -0.225 NA
HETATM    3  C8  UNL     1      22.460   3.442  48.802  1.00  0.00     0.150 C 
HETATM    4  C9  UNL     1      21.825   2.338  49.233  1.00  0.00     0.022 C 
HETATM    5  C10 UNL     1      22.298   1.443  50.320  1.00  0.00     0.030 C 
HETATM    6  C11 UNL     1      23.451   2.087  50.634  1.00  0.00     0.059 C 
HETATM    7  C12 UNL     1      24.462   1.734  51.669  1.00  0.00    -0.003 C 
HETATM    8  C13 UNL     1      25.392   2.673  51.562  1.00  0.00     0.087 C 
HETATM    9  N4  UNL     1      25.569   3.816  50.730  1.00  0.00    -0.336 N 
HETATM   10  C14 UNL     1      26.331   4.525  49.758  1.00  0.00     0.245 C 
HETATM   11  O1  UNL     1      27.024   3.500  49.896  1.00  0.00    -0.271 OA
HETATM   12  C15 UNL     1      25.978   5.840  49.200  1.00  0.00     0.193 C 
HETATM   13  N5  UNL     1      27.012   6.835  49.447  1.00  0.00    -0.347 N 
HETATM   14  C16 UNL     1      26.484   8.054  49.953  1.00  0.00     0.219 C 
HETATM   15  O2  UNL     1      27.103   8.996  50.531  1.00  0.00    -0.274 OA
HETATM   16  C17 UNL     1      25.019   7.926  49.621  1.00  0.00     0.122 C 
HETATM   17  C18 UNL     1      24.795   6.459  49.918  1.00  0.00     0.113 C 
HETATM   18  H17 UNL     1      24.708   4.323  51.015  1.00  0.00     0.168 HD
HETATM   19  H19 UNL     1      28.040   6.637  49.258  1.00  0.00     0.163 HD
ENDROOT
BRANCH   1  20
HETATM   20  C2  UNL     1      22.211   5.706  50.397  1.00  0.00     0.036 C 
HETATM   21  C1  UNL     1      22.943   5.660  51.687  1.00  0.00     0.045 C 
ENDBRANCH   1  20
BRANCH   1  22
HETATM   22  N1  UNL     1      22.697   7.039  48.021  1.00  0.00    -0.304 N 
HETATM   23  C3  UNL     1      21.696   8.003  48.259  1.00  0.00     0.100 A 
HETATM   24  C4  UNL     1      21.366   8.780  47.259  1.00  0.00    -0.003 A 
HETATM   25  C5  UNL     1      21.892   8.804  45.885  1.00  0.00     0.076 A 
HETATM   26  C6  UNL     1      22.936   7.776  45.691  1.00  0.00     0.009 A 
HETATM   27 BR1  UNL     1      23.764   7.619  43.986  1.00  0.00    -0.054 Br
HETATM   28  C7  UNL     1      23.247   7.011  46.711  1.00  0.00     0.119 A 
ENDBRANCH   1  22
BRANCH   4  29
HETATM   29  N3  UNL     1      20.608   2.076  48.491  1.00  0.00    -0.401 N 
HETATM   30  H11 UNL     1      20.303   2.076  47.496  1.00  0.00     0.156 HD
HETATM   31  H12 UNL     1      19.713   1.800  48.980  1.00  0.00     0.156 HD
ENDBRANCH   4  29
TORSDOF 3
ENDMDL
MODEL 5
REMARK VINA RESULT:      -7.0      9.073     11.918
REMARK  3 active torsions:
REMARK  status: ('A' for Active; 'I' for Inactive)
REMARK    1  A    between atoms: C2_2  and  S1_3 
REMARK    2  A    between atoms: S1_3  and  N1_4 
REMARK    3  A    between atoms: C9_13  and  N3_14 
ROOT
HETATM    1  S1  UNL     1      30.839   7.820  47.410  1.00  0.00    -0.048 SA
HETATM    2  N2  UNL     1      31.811   7.155  46.395  1.00  0.00    -0.225 NA
HETATM    3  C8  UNL     1      32.242   5.812  46.387  1.00  0.00     0.150 C 
HETATM    4  C9  UNL     1      32.887   4.644  46.552  1.00  0.00     0.022 C 
HETATM    5  C10 UNL     1      34.166   4.464  47.287  1.00  0.00     0.030 C 
HETATM    6  C11 UNL     1      34.382   5.753  47.648  1.00  0.00     0.059 C 
HETATM    7  C12 UNL     1      35.513   6.324  48.430  1.00  0.00    -0.003 C 
HETATM    8  C13 UNL     1      35.254   7.622  48.497  1.00  0.00     0.087 C 
HETATM    9  N4  UNL     1      34.211   8.460  48.008  1.00  0.00    -0.336 N 
HETATM   10  C14 UNL     1      33.786   9.556  47.202  1.00  0.00     0.245 C 
HETATM   11  O1  UNL     1      35.010   9.556  46.973  1.00  0.00    -0.271 OA
HETATM   12  C15 UNL     1      32.399  10.028  47.079  1.00  0.00     0.193 C 
HETATM   13  N5  UNL     1      32.255  11.419  47.488  1.00  0.00    -0.347 N 
HETATM   14  C16 UNL     1      31.158  11.615  48.370  1.00  0.00     0.219 C 
HETATM   15  O2  UNL     1      30.926  12.607  49.124  1.00  0.00    -0.274 OA
HETATM   16  C17 UNL     1      30.360  10.351  48.170  1.00  0.00     0.122 C 
HETATM   17  C18 UNL     1      31.477   9.334  48.062  1.00  0.00     0.113 C 
HETATM   18  H17 UNL     1      33.426   8.004  48.513  1.00  0.00     0.168 HD
HETATM   19  H19 UNL     1      32.917  12.177  47.146  1.00  0.00     0.163 HD
ENDROOT
BRANCH   1  20
HETATM   20  C2  UNL     1      30.795   6.737  48.573  1.00  0.00     0.036 C 
HETATM   21  C1  UNL     1      31.635   7.210  49.702  1.00  0.00     0.045 C 
ENDBRANCH   1  20
BRANCH   1  22
HETATM   22  N1  UNL     1      29.320   8.050  46.635  1.00  0.00    -0.304 N 
HETATM   23  C3  UNL     1      29.189   8.471  45.296  1.00  0.00     0.100 A 
HETATM   24  C4  UNL     1      27.974   8.604  44.828  1.00  0.00    -0.003 A 
HETATM   25  C5  UNL     1      26.687   8.376  45.502  1.00  0.00     0.076 A 
HETATM   26  C6  UNL     1      26.882   7.936  46.900  1.00  0.00     0.009 A 
HETATM   27 BR1  UNL     1      25.352   7.580  47.972  1.00  0.00    -0.054 Br
HETATM   28  C7  UNL     1      28.110   7.812  47.343  1.00  0.00     0.119 A 
ENDBRANCH   1  22
BRANCH   4  29
HETATM   29  N3  UNL     1      32.211   3.542  45.896  1.00  0.00    -0.401 N 
HETATM   30  H11 UNL     1      31.358   2.966  46.050  1.00  0.00     0.156 HD
HETATM   31  H12 UNL     1      32.589   3.115  45.007  1.00  0.00     0.156 HD
ENDBRANCH   4  29
TORSDOF 3
ENDMDL
MODEL 6
REMARK VINA RESULT:      -7.0      3.183      6.017
REMARK  3 active torsions:
REMARK  status: ('A' for Active; 'I' for Inactive)
REMARK    1  A    between atoms: C2_2  and  S1_3 
REMARK    2  A    between atoms: S1_3  and  N1_4 
REMARK    3  A    between atoms: C9_13  and  N3_14 
ROOT
HETATM    1  S1  UNL     1      21.849   3.372  50.555  1.00  0.00    -0.048 SA
HETATM    2  N2  UNL     1      21.571   2.954  52.026  1.00  0.00    -0.225 NA
HETATM    3  C8  UNL     1      21.953   1.750  52.655  1.00  0.00     0.150 C 
HETATM    4  C9  UNL     1      22.037   0.506  53.157  1.00  0.00     0.022 C 
HETATM    5  C10 UNL     1      20.970  -0.525  53.083  1.00  0.00     0.030 C 
HETATM    6  C11 UNL     1      20.030   0.195  52.421  1.00  0.00     0.059 C 
HETATM    7  C12 UNL     1      18.666  -0.224  51.995  1.00  0.00    -0.003 C 
HETATM    8  C13 UNL     1      18.158   0.845  51.398  1.00  0.00     0.087 C 
HETATM    9  N4  UNL     1      18.632   2.162  51.130  1.00  0.00    -0.336 N 
HETATM   10  C14 UNL     1      18.507   3.572  51.287  1.00  0.00     0.245 C 
HETATM   11  O1  UNL     1      17.536   3.173  51.957  1.00  0.00    -0.271 OA
HETATM   12  C15 UNL     1      19.408   4.573  50.696  1.00  0.00     0.193 C 
HETATM   13  N5  UNL     1      18.701   5.497  49.819  1.00  0.00    -0.347 N 
HETATM   14  C16 UNL     1      19.359   5.673  48.572  1.00  0.00     0.219 C 
HETATM   15  O2  UNL     1      18.890   6.159  47.500  1.00  0.00    -0.274 OA
HETATM   16  C17 UNL     1      20.738   5.136  48.862  1.00  0.00     0.122 C 
HETATM   17  C18 UNL     1      20.394   3.945  49.731  1.00  0.00     0.113 C 
HETATM   18  H17 UNL     1      19.450   1.892  50.547  1.00  0.00     0.168 HD
HETATM   19  H19 UNL     1      17.795   5.969  50.112  1.00  0.00     0.163 HD
ENDROOT
BRANCH   1  20
HETATM   20  C2  UNL     1      22.298   1.991  49.906  1.00  0.00     0.036 C 
HETATM   21  C1  UNL     1      21.233   1.527  48.981  1.00  0.00     0.045 C 
ENDBRANCH   1  20
BRANCH   1  22
HETATM   22  N1  UNL     1      23.092   4.561  50.555  1.00  0.00    -0.304 N 
HETATM   23  C3  UNL     1      22.955   5.826  51.161  1.00  0.00     0.100 A 
HETATM   24  C4  UNL     1      23.980   6.637  51.090  1.00  0.00    -0.003 A 
HETATM   25  C5  UNL     1      25.291   6.427  50.457  1.00  0.00     0.076 A 
HETATM   26  C6  UNL     1      25.381   5.087  49.839  1.00  0.00     0.009 A 
HETATM   27 BR1  UNL     1      26.991   4.590  48.958  1.00  0.00    -0.054 Br
HETATM   28  C7  UNL     1      24.339   4.296  49.925  1.00  0.00     0.119 A 
ENDBRANCH   1  22
BRANCH   4  29
HETATM   29  N3  UNL     1      23.298   0.267  53.831  1.00  0.00    -0.401 N 
HETATM   30  H11 UNL     1      23.826  -0.550  54.200  1.00  0.00     0.156 HD
HETATM   31  H12 UNL     1      23.954   1.060  54.071  1.00  0.00     0.156 HD
ENDBRANCH   4  29
TORSDOF 3
ENDMDL
MODEL 7
REMARK VINA RESULT:      -7.0      3.142      5.120
REMARK  3 active torsions:
REMARK  status: ('A' for Active; 'I' for Inactive)
REMARK    1  A    between atoms: C2_2  and  S1_3 
REMARK    2  A    between atoms: S1_3  and  N1_4 
REMARK    3  A    between atoms: C9_13  and  N3_14 
ROOT
HETATM    1  S1  UNL     1      21.783   1.976  51.557  1.00  0.00    -0.048 SA
HETATM    2  N2  UNL     1      20.972   3.217  52.026  1.00  0.00    -0.225 NA
HETATM    3  C8  UNL     1      19.784   3.721  51.456  1.00  0.00     0.150 C 
HETATM    4  C9  UNL     1      18.848   4.374  50.746  1.00  0.00     0.022 C 
HETATM    5  C10 UNL     1      19.117   5.429  49.735  1.00  0.00     0.030 C 
HETATM    6  C11 UNL     1      20.471   5.463  49.824  1.00  0.00     0.059 C 
HETATM    7  C12 UNL     1      21.432   6.316  49.072  1.00  0.00    -0.003 C 
HETATM    8  C13 UNL     1      22.624   5.966  49.535  1.00  0.00     0.087 C 
HETATM    9  N4  UNL     1      23.085   5.033  50.507  1.00  0.00    -0.336 N 
HETATM   10  C14 UNL     1      23.773   4.761  51.725  1.00  0.00     0.245 C 
HETATM   11  O1  UNL     1      23.880   6.000  51.666  1.00  0.00    -0.271 OA
HETATM   12  C15 UNL     1      23.963   3.425  52.310  1.00  0.00     0.193 C 
HETATM   13  N5  UNL     1      25.372   3.093  52.470  1.00  0.00    -0.347 N 
HETATM   14  C16 UNL     1      25.683   1.795  51.981  1.00  0.00     0.219 C 
HETATM   15  O2  UNL     1      26.822   1.314  51.704  1.00  0.00    -0.274 OA
HETATM   16  C17 UNL     1      24.320   1.158  51.882  1.00  0.00     0.122 C 
HETATM   17  C18 UNL     1      23.505   2.327  51.371  1.00  0.00     0.113 C 
HETATM   18  H17 UNL     1      22.710   4.174  50.057  1.00  0.00     0.168 HD
HETATM   19  H19 UNL     1      26.064   3.771  52.909  1.00  0.00     0.163 HD
ENDROOT
BRANCH   1  20
HETATM   20  C2  UNL     1      21.154   1.703  50.122  1.00  0.00     0.036 C 
HETATM   21  C1  UNL     1      22.177   1.998  49.087  1.00  0.00     0.045 C 
ENDBRANCH   1  20
BRANCH   1  22
HETATM   22  N1  UNL     1      21.510   0.697  52.675  1.00  0.00    -0.304 N 
HETATM   23  C3  UNL     1      22.484   0.245  53.589  1.00  0.00     0.100 A 
HETATM   24  C4  UNL     1      22.145  -0.735  54.387  1.00  0.00    -0.003 A 
HETATM   25  C5  UNL     1      20.869  -1.460  54.480  1.00  0.00     0.076 A 
HETATM   26  C6  UNL     1      19.886  -0.948  53.503  1.00  0.00     0.009 A 
HETATM   27 BR1  UNL     1      18.157  -1.737  53.440  1.00  0.00    -0.054 Br
HETATM   28  C7  UNL     1      20.252   0.036  52.716  1.00  0.00     0.119 A 
ENDBRANCH   1  22
BRANCH   4  29
HETATM   29  N3  UNL     1      17.503   3.961  51.092  1.00  0.00    -0.401 N 
HETATM   30  H11 UNL     1      16.610   4.417  51.370  1.00  0.00     0.156 HD
HETATM   31  H12 UNL     1      17.225   2.941  51.104  1.00  0.00     0.156 HD
ENDBRANCH   4  29
TORSDOF 3
ENDMDL
MODEL 8
REMARK VINA RESULT:      -6.9      2.933      5.160
REMARK  3 active torsions:
REMARK  status: ('A' for Active; 'I' for Inactive)
REMARK    1  A    between atoms: C2_2  and  S1_3 
REMARK    2  A    between atoms: S1_3  and  N1_4 
REMARK    3  A    between atoms: C9_13  and  N3_14 
ROOT
HETATM    1  S1  UNL     1      23.710   3.845  50.832  1.00  0.00    -0.048 SA
HETATM    2  N2  UNL     1      22.771   3.155  49.804  1.00  0.00    -0.225 NA
HETATM    3  C8  UNL     1      21.596   3.689  49.235  1.00  0.00     0.150 C 
HETATM    4  C9  UNL     1      20.338   4.058  48.934  1.00  0.00     0.022 C 
HETATM    5  C10 UNL     1      19.124   3.676  49.700  1.00  0.00     0.030 C 
HETATM    6  C11 UNL     1      19.712   2.916  50.658  1.00  0.00     0.059 C 
HETATM    7  C12 UNL     1      19.075   2.195  51.795  1.00  0.00    -0.003 C 
HETATM    8  C13 UNL     1      20.082   1.603  52.422  1.00  0.00     0.087 C 
HETATM    9  N4  UNL     1      21.491   1.545  52.220  1.00  0.00    -0.336 N 
HETATM   10  C14 UNL     1      22.669   0.785  51.969  1.00  0.00     0.245 C 
HETATM   11  O1  UNL     1      21.807  -0.113  51.977  1.00  0.00    -0.271 OA
HETATM   12  C15 UNL     1      24.027   1.339  51.852  1.00  0.00     0.193 C 
HETATM   13  N5  UNL     1      24.936   0.774  52.839  1.00  0.00    -0.347 N 
HETATM   14  C16 UNL     1      25.697   1.770  53.510  1.00  0.00     0.219 C 
HETATM   15  O2  UNL     1      26.348   1.662  54.592  1.00  0.00    -0.274 OA
HETATM   16  C17 UNL     1      25.525   2.964  52.605  1.00  0.00     0.122 C 
HETATM   17  C18 UNL     1      24.069   2.810  52.219  1.00  0.00     0.113 C 
HETATM   18  H17 UNL     1      21.681   2.564  52.309  1.00  0.00     0.168 HD
HETATM   19  H19 UNL     1      24.998  -0.273  53.013  1.00  0.00     0.163 HD
ENDROOT
BRANCH   1  20
HETATM   20  C2  UNL     1      22.815   5.066  51.319  1.00  0.00     0.036 C 
HETATM   21  C1  UNL     1      22.346   4.796  52.701  1.00  0.00     0.045 C 
ENDBRANCH   1  20
BRANCH   1  22
HETATM   22  N1  UNL     1      25.143   4.334  50.015  1.00  0.00    -0.304 N 
HETATM   23  C3  UNL     1      26.141   3.432  49.592  1.00  0.00     0.100 A 
HETATM   24  C4  UNL     1      27.181   3.936  48.978  1.00  0.00    -0.003 A 
HETATM   25  C5  UNL     1      27.478   5.339  48.650  1.00  0.00     0.076 A 
HETATM   26  C6  UNL     1      26.402   6.240  49.114  1.00  0.00     0.009 A 
HETATM   27 BR1  UNL     1      26.569   8.108  48.799  1.00  0.00    -0.054 Br
HETATM   28  C7  UNL     1      25.372   5.707  49.727  1.00  0.00     0.119 A 
ENDBRANCH   1  22
BRANCH   4  29
HETATM   29  N3  UNL     1      20.272   4.865  47.732  1.00  0.00    -0.401 N 
HETATM   30  H11 UNL     1      20.092   5.860  47.487  1.00  0.00     0.156 HD
HETATM   31  H12 UNL     1      20.430   4.443  46.776  1.00  0.00     0.156 HD
ENDBRANCH   4  29
TORSDOF 3
ENDMDL
MODEL 9
REMARK VINA RESULT:      -6.7      6.482      9.990
REMARK  3 active torsions:
REMARK  status: ('A' for Active; 'I' for Inactive)
REMARK    1  A    between atoms: C2_2  and  S1_3 
REMARK    2  A    between atoms: S1_3  and  N1_4 
REMARK    3  A    between atoms: C9_13  and  N3_14 
ROOT
HETATM    1  S1  UNL     1      27.779   9.058  47.762  1.00  0.00    -0.048 SA
HETATM    2  N2  UNL     1      26.930   8.106  46.873  1.00  0.00    -0.225 NA
HETATM    3  C8  UNL     1      25.524   8.075  46.764  1.00  0.00     0.150 C 
HETATM    4  C9  UNL     1      24.207   7.835  46.888  1.00  0.00     0.022 C 
HETATM    5  C10 UNL     1      23.596   6.856  47.825  1.00  0.00     0.030 C 
HETATM    6  C11 UNL     1      24.730   6.377  48.394  1.00  0.00     0.059 C 
HETATM    7  C12 UNL     1      24.874   5.338  49.451  1.00  0.00    -0.003 C 
HETATM    8  C13 UNL     1      26.181   5.234  49.644  1.00  0.00     0.087 C 
HETATM    9  N4  UNL     1      27.329   5.865  49.083  1.00  0.00    -0.336 N 
HETATM   10  C14 UNL     1      28.557   5.776  48.369  1.00  0.00     0.245 C 
HETATM   11  O1  UNL     1      28.206   4.582  48.383  1.00  0.00    -0.271 OA
HETATM   12  C15 UNL     1      29.433   6.913  48.046  1.00  0.00     0.193 C 
HETATM   13  N5  UNL     1      30.768   6.753  48.606  1.00  0.00    -0.347 N 
HETATM   14  C16 UNL     1      31.219   7.921  49.278  1.00  0.00     0.219 C 
HETATM   15  O2  UNL     1      32.176   8.032  50.102  1.00  0.00    -0.274 OA
HETATM   16  C17 UNL     1      30.273   8.973  48.756  1.00  0.00     0.122 C 
HETATM   17  C18 UNL     1      28.978   8.188  48.727  1.00  0.00     0.113 C 
HETATM   18  H17 UNL     1      27.093   6.840  49.359  1.00  0.00     0.168 HD
HETATM   19  H19 UNL     1      31.316   5.847  48.506  1.00  0.00     0.163 HD
ENDROOT
BRANCH   1  20
HETATM   20  C2  UNL     1      26.675   9.662  48.735  1.00  0.00     0.036 C 
HETATM   21  C1  UNL     1      26.897   9.128  50.102  1.00  0.00     0.045 C 
ENDBRANCH   1  20
BRANCH   1  22
HETATM   22  N1  UNL     1      28.512  10.238  46.747  1.00  0.00    -0.304 N 
HETATM   23  C3  UNL     1      29.143   9.926  45.526  1.00  0.00     0.100 A 
HETATM   24  C4  UNL     1      29.659  10.920  44.849  1.00  0.00    -0.003 A 
HETATM   25  C5  UNL     1      29.683  12.354  45.174  1.00  0.00     0.076 A 
HETATM   26  C6  UNL     1      29.008  12.625  46.461  1.00  0.00     0.009 A 
HETATM   27 BR1  UNL     1      28.916  14.418  47.088  1.00  0.00    -0.054 Br
HETATM   28  C7  UNL     1      28.501  11.610  47.118  1.00  0.00     0.119 A 
ENDBRANCH   1  22
BRANCH   4  29
HETATM   29  N3  UNL     1      23.412   8.625  45.969  1.00  0.00    -0.401 N 
HETATM   30  H11 UNL     1      23.572   9.380  45.273  1.00  0.00     0.156 HD
HETATM   31  H12 UNL     1      22.366   8.492  45.891  1.00  0.00     0.156 HD
ENDBRANCH   4  29
TORSDOF 3
ENDMDL
