MODEL 1
REMARK VINA RESULT:      -8.9      0.000      0.000
REMARK  5 active torsions:
REMARK  status: ('A' for Active; 'I' for Inactive)
REMARK    1  A    between atoms: C9_9  and  N1_10 
REMARK    2  A    between atoms: N1_10  and  N2_11 
REMARK    3  A    between atoms: N1_10  and  C16_19 
REMARK    4  A    between atoms: N2_11  and  C10_12 
REMARK    5  A    between atoms: C17_21  and  O1_22 
ROOT
HETATM    1  N1  UNL     1      24.970   0.796  52.478  1.00  0.00    -0.259 N 
ENDROOT
BRANCH   1   2
HETATM    2  C9  UNL     1      24.258   1.899  51.820  1.00  0.00     0.144 C 
HETATM    3  C5  UNL     1      25.096   2.675  50.906  1.00  0.00    -0.026 A 
HETATM    4  C4  UNL     1      26.153   2.587  49.878  1.00  0.00     0.011 A 
HETATM    5  C6  UNL     1      24.844   3.970  50.999  1.00  0.00    -0.040 A 
HETATM    6  C3  UNL     1      26.502   3.755  49.394  1.00  0.00     0.012 A 
HETATM    7  C2  UNL     1      25.684   4.733  50.082  1.00  0.00    -0.039 A 
HETATM    8  C1  UNL     1      25.726   6.040  49.884  1.00  0.00     0.024 C 
HETATM    9  C7  UNL     1      23.797   4.183  52.001  1.00  0.00     0.042 C 
HETATM   10  C8  UNL     1      23.803   2.920  52.826  1.00  0.00     0.037 C 
ENDBRANCH   1   2
BRANCH   1  11
HETATM   11  N2  UNL     1      26.319   0.560  52.197  1.00  0.00    -0.294 N 
HETATM   12  H10 UNL     1      26.299   1.012  51.234  1.00  0.00     0.187 HD
BRANCH  11  13
HETATM   13  C10 UNL     1      27.484  -0.003  52.727  1.00  0.00     0.070 A 
HETATM   14  C11 UNL     1      27.627  -1.380  52.690  1.00  0.00     0.033 A 
HETATM   15  C12 UNL     1      28.806  -1.833  53.237  1.00  0.00     0.002 A 
HETATM   16  C13 UNL     1      29.793  -1.045  53.785  1.00  0.00     0.002 A 
HETATM   17  C14 UNL     1      29.583   0.317  53.787  1.00  0.00     0.026 A 
HETATM   18  C15 UNL     1      28.410   0.840  53.250  1.00  0.00     0.062 A 
HETATM   19 CL1  UNL     1      28.304   2.566  53.333  1.00  0.00    -0.082 Cl
ENDBRANCH  11  13
ENDBRANCH   1  11
BRANCH   1  20
HETATM   20  C16 UNL     1      24.186  -0.024  53.418  1.00  0.00     0.190 A 
HETATM   21  N3  UNL     1      24.101  -0.628  54.406  1.00  0.00    -0.198 NA
HETATM   22  C17 UNL     1      22.991  -1.231  54.780  1.00  0.00     0.171 A 
HETATM   23  C18 UNL     1      21.753  -1.171  53.944  1.00  0.00     0.111 A 
HETATM   24  S1  UNL     1      22.490  -0.110  52.560  1.00  0.00    -0.058 SA
BRANCH  22  25
HETATM   25  O1  UNL     1      23.019  -1.935  56.006  1.00  0.00    -0.344 OA
HETATM   26  H15 UNL     1      22.610  -1.540  56.842  1.00  0.00     0.219 HD
ENDBRANCH  22  25
ENDBRANCH   1  20
TORSDOF 5
ENDMDL
MODEL 2
REMARK VINA RESULT:      -8.8      2.640      5.887
REMARK  5 active torsions:
REMARK  status: ('A' for Active; 'I' for Inactive)
REMARK    1  A    between atoms: C9_9  and  N1_10 
REMARK    2  A    between atoms: N1_10  and  N2_11 
REMARK    3  A    between atoms: N1_10  and  C16_19 
REMARK    4  A    between atoms: N2_11  and  C10_12 
REMARK    5  A    between atoms: C17_21  and  O1_22 
ROOT
HETATM    1  N1  UNL     1      24.979   1.535  52.213  1.00  0.00    -0.259 N 
ENDROOT
BRANCH   1   2
HETATM    2  C9  UNL     1      26.444   1.514  52.101  1.00  0.00     0.144 C 
HETATM    3  C5  UNL     1      27.032   0.200  52.366  1.00  0.00    -0.026 A 
HETATM    4  C4  UNL     1      26.874  -1.253  52.147  1.00  0.00     0.011 A 
HETATM    5  C6  UNL     1      28.144   0.300  53.075  1.00  0.00    -0.040 A 
HETATM    6  C3  UNL     1      27.832  -1.964  52.692  1.00  0.00     0.012 A 
HETATM    7  C2  UNL     1      28.721  -1.015  53.330  1.00  0.00    -0.039 A 
HETATM    8  C1  UNL     1      29.821  -1.326  53.996  1.00  0.00     0.024 C 
HETATM    9  C7  UNL     1      28.407   1.714  53.355  1.00  0.00     0.042 C 
HETATM   10  C8  UNL     1      27.076   2.393  53.145  1.00  0.00     0.037 C 
ENDBRANCH   1   2
BRANCH   1  11
HETATM   11  N2  UNL     1      24.272   0.355  52.456  1.00  0.00    -0.294 N 
HETATM   12  H10 UNL     1      24.888  -0.257  51.840  1.00  0.00     0.187 HD
BRANCH  11  13
HETATM   13  C10 UNL     1      23.177  -0.163  53.154  1.00  0.00     0.070 A 
HETATM   14  C11 UNL     1      21.918  -0.041  52.590  1.00  0.00     0.033 A 
HETATM   15  C12 UNL     1      20.910  -0.581  53.356  1.00  0.00     0.002 A 
HETATM   16  C13 UNL     1      21.070  -1.199  54.575  1.00  0.00     0.002 A 
HETATM   17  C14 UNL     1      22.350  -1.285  55.075  1.00  0.00     0.026 A 
HETATM   18  C15 UNL     1      23.416  -0.758  54.350  1.00  0.00     0.062 A 
HETATM   19 CL1  UNL     1      24.955  -0.948  55.119  1.00  0.00    -0.082 Cl
ENDBRANCH  11  13
ENDBRANCH   1  11
BRANCH   1  20
HETATM   20  C16 UNL     1      24.328   2.847  52.049  1.00  0.00     0.190 A 
HETATM   21  N3  UNL     1      23.671   3.709  52.464  1.00  0.00    -0.198 NA
HETATM   22  C17 UNL     1      23.384   4.788  51.763  1.00  0.00     0.171 A 
HETATM   23  C18 UNL     1      23.895   4.970  50.371  1.00  0.00     0.111 A 
HETATM   24  S1  UNL     1      24.839   3.330  50.280  1.00  0.00    -0.058 SA
BRANCH  22  25
HETATM   25  O1  UNL     1      22.572   5.765  52.384  1.00  0.00    -0.344 OA
HETATM   26  H15 UNL     1      22.063   5.555  53.232  1.00  0.00     0.219 HD
ENDBRANCH  22  25
ENDBRANCH   1  20
TORSDOF 5
ENDMDL
MODEL 3
REMARK VINA RESULT:      -8.7      2.234      4.601
REMARK  5 active torsions:
REMARK  status: ('A' for Active; 'I' for Inactive)
REMARK    1  A    between atoms: C9_9  and  N1_10 
REMARK    2  A    between atoms: N1_10  and  N2_11 
REMARK    3  A    between atoms: N1_10  and  C16_19 
REMARK    4  A    between atoms: N2_11  and  C10_12 
REMARK    5  A    between atoms: C17_21  and  O1_22 
ROOT
HETATM    1  N1  UNL     1      25.011   0.839  52.535  1.00  0.00    -0.259 N 
ENDROOT
BRANCH   1   2
HETATM    2  C9  UNL     1      24.078  -0.243  52.876  1.00  0.00     0.144 C 
HETATM    3  C5  UNL     1      22.719  -0.023  52.381  1.00  0.00    -0.026 A 
HETATM    4  C4  UNL     1      21.921   0.466  51.237  1.00  0.00     0.011 A 
HETATM    5  C6  UNL     1      21.813  -0.391  53.272  1.00  0.00    -0.040 A 
HETATM    6  C3  UNL     1      20.627   0.390  51.440  1.00  0.00     0.012 A 
HETATM    7  C2  UNL     1      20.463  -0.167  52.767  1.00  0.00    -0.039 A 
HETATM    8  C1  UNL     1      19.303  -0.408  53.357  1.00  0.00     0.024 C 
HETATM    9  C7  UNL     1      22.494  -0.900  54.464  1.00  0.00     0.042 C 
HETATM   10  C8  UNL     1      23.893  -0.344  54.365  1.00  0.00     0.037 C 
ENDBRANCH   1   2
BRANCH   1  11
HETATM   11  N2  UNL     1      26.345   0.553  52.235  1.00  0.00    -0.294 N 
HETATM   12  H10 UNL     1      26.325   0.992  51.266  1.00  0.00     0.187 HD
BRANCH  11  13
HETATM   13  C10 UNL     1      27.499  -0.043  52.754  1.00  0.00     0.070 A 
HETATM   14  C11 UNL     1      27.606  -1.422  52.709  1.00  0.00     0.033 A 
HETATM   15  C12 UNL     1      28.777  -1.908  53.245  1.00  0.00     0.002 A 
HETATM   16  C13 UNL     1      29.787  -1.149  53.790  1.00  0.00     0.002 A 
HETATM   17  C14 UNL     1      29.613   0.217  53.801  1.00  0.00     0.026 A 
HETATM   18  C15 UNL     1      28.450   0.773  53.275  1.00  0.00     0.062 A 
HETATM   19 CL1  UNL     1      28.389   2.501  53.368  1.00  0.00    -0.082 Cl
ENDBRANCH  11  13
ENDBRANCH   1  11
BRANCH   1  20
HETATM   20  C16 UNL     1      24.459   2.206  52.538  1.00  0.00     0.190 A 
HETATM   21  N3  UNL     1      23.876   3.060  53.064  1.00  0.00    -0.198 NA
HETATM   22  C17 UNL     1      23.661   4.231  52.499  1.00  0.00     0.171 A 
HETATM   23  C18 UNL     1      24.163   4.536  51.125  1.00  0.00     0.111 A 
HETATM   24  S1  UNL     1      24.977   2.852  50.824  1.00  0.00    -0.058 SA
BRANCH  22  25
HETATM   25  O1  UNL     1      22.936   5.187  53.248  1.00  0.00    -0.344 OA
HETATM   26  H15 UNL     1      22.063   4.943  53.696  1.00  0.00     0.219 HD
ENDBRANCH  22  25
ENDBRANCH   1  20
TORSDOF 5
ENDMDL
MODEL 4
REMARK VINA RESULT:      -8.6      2.772      5.035
REMARK  5 active torsions:
REMARK  status: ('A' for Active; 'I' for Inactive)
REMARK    1  A    between atoms: C9_9  and  N1_10 
REMARK    2  A    between atoms: N1_10  and  N2_11 
REMARK    3  A    between atoms: N1_10  and  C16_19 
REMARK    4  A    between atoms: N2_11  and  C10_12 
REMARK    5  A    between atoms: C17_21  and  O1_22 
ROOT
HETATM    1  N1  UNL     1      25.864   1.911  52.147  1.00  0.00    -0.259 N 
ENDROOT
BRANCH   1   2
HETATM    2  C9  UNL     1      25.647   3.154  51.395  1.00  0.00     0.144 C 
HETATM    3  C5  UNL     1      24.362   3.795  51.680  1.00  0.00    -0.026 A 
HETATM    4  C4  UNL     1      23.399   4.132  52.749  1.00  0.00     0.011 A 
HETATM    5  C6  UNL     1      23.807   4.277  50.581  1.00  0.00    -0.040 A 
HETATM    6  C3  UNL     1      22.343   4.773  52.308  1.00  0.00     0.012 A 
HETATM    7  C2  UNL     1      22.528   4.914  50.879  1.00  0.00    -0.039 A 
HETATM    8  C1  UNL     1      21.683   5.508  50.053  1.00  0.00     0.024 C 
HETATM    9  C7  UNL     1      24.683   4.000  49.441  1.00  0.00     0.042 C 
HETATM   10  C8  UNL     1      25.579   2.884  49.918  1.00  0.00     0.037 C 
ENDBRANCH   1   2
BRANCH   1  11
HETATM   11  N2  UNL     1      24.926   0.877  52.086  1.00  0.00    -0.294 N 
HETATM   12  H10 UNL     1      25.266   0.490  51.155  1.00  0.00     0.187 HD
BRANCH  11  13
HETATM   13  C10 UNL     1      23.854   0.304  52.778  1.00  0.00     0.070 A 
HETATM   14  C11 UNL     1      24.111  -0.335  53.979  1.00  0.00     0.033 A 
HETATM   15  C12 UNL     1      22.991  -0.865  54.579  1.00  0.00     0.002 A 
HETATM   16  C13 UNL     1      21.708  -0.799  54.085  1.00  0.00     0.002 A 
HETATM   17  C14 UNL     1      21.527  -0.147  52.886  1.00  0.00     0.026 A 
HETATM   18  C15 UNL     1      22.620   0.411  52.227  1.00  0.00     0.062 A 
HETATM   19 CL1  UNL     1      22.220   1.191  50.734  1.00  0.00    -0.082 Cl
ENDBRANCH  11  13
ENDBRANCH   1  11
BRANCH   1  20
HETATM   20  C16 UNL     1      27.097   1.837  52.951  1.00  0.00     0.190 A 
HETATM   21  N3  UNL     1      27.894   2.340  53.628  1.00  0.00    -0.198 NA
HETATM   22  C17 UNL     1      28.922   1.683  54.128  1.00  0.00     0.171 A 
HETATM   23  C18 UNL     1      29.125   0.228  53.851  1.00  0.00     0.111 A 
HETATM   24  S1  UNL     1      27.590   0.009  52.762  1.00  0.00    -0.058 SA
BRANCH  22  25
HETATM   25  O1  UNL     1      29.823   2.412  54.938  1.00  0.00    -0.344 OA
HETATM   26  H15 UNL     1      29.606   3.351  55.241  1.00  0.00     0.219 HD
ENDBRANCH  22  25
ENDBRANCH   1  20
TORSDOF 5
ENDMDL
MODEL 5
REMARK VINA RESULT:      -8.6      2.270      5.359
REMARK  5 active torsions:
REMARK  status: ('A' for Active; 'I' for Inactive)
REMARK    1  A    between atoms: C9_9  and  N1_10 
REMARK    2  A    between atoms: N1_10  and  N2_11 
REMARK    3  A    between atoms: N1_10  and  C16_19 
REMARK    4  A    between atoms: N2_11  and  C10_12 
REMARK    5  A    between atoms: C17_21  and  O1_22 
ROOT
HETATM    1  N1  UNL     1      23.858   1.110  52.420  1.00  0.00    -0.259 N 
ENDROOT
BRANCH   1   2
HETATM    2  C9  UNL     1      25.293   1.406  52.315  1.00  0.00     0.144 C 
HETATM    3  C5  UNL     1      26.147   0.228  52.466  1.00  0.00    -0.026 A 
HETATM    4  C4  UNL     1      26.294  -1.201  52.120  1.00  0.00     0.011 A 
HETATM    5  C6  UNL     1      27.222   0.497  53.188  1.00  0.00    -0.040 A 
HETATM    6  C3  UNL     1      27.387  -1.740  52.606  1.00  0.00     0.012 A 
HETATM    7  C2  UNL     1      28.065  -0.685  53.331  1.00  0.00    -0.039 A 
HETATM    8  C1  UNL     1      29.214  -0.815  53.974  1.00  0.00     0.024 C 
HETATM    9  C7  UNL     1      27.186   1.904  53.593  1.00  0.00     0.042 C 
HETATM   10  C8  UNL     1      25.739   2.304  53.436  1.00  0.00     0.037 C 
ENDBRANCH   1   2
BRANCH   1  11
HETATM   11  N2  UNL     1      22.945   1.731  51.564  1.00  0.00    -0.294 N 
HETATM   12  H10 UNL     1      22.294   2.062  52.338  1.00  0.00     0.187 HD
BRANCH  11  13
HETATM   13  C10 UNL     1      22.685   1.996  50.215  1.00  0.00     0.070 A 
HETATM   14  C11 UNL     1      21.869   1.123  49.518  1.00  0.00     0.033 A 
HETATM   15  C12 UNL     1      21.677   1.471  48.200  1.00  0.00     0.002 A 
HETATM   16  C13 UNL     1      22.218   2.571  47.573  1.00  0.00     0.002 A 
HETATM   17  C14 UNL     1      23.020   3.396  48.329  1.00  0.00     0.026 A 
HETATM   18  C15 UNL     1      23.255   3.099  49.669  1.00  0.00     0.062 A 
HETATM   19 CL1  UNL     1      24.285   4.235  50.473  1.00  0.00    -0.082 Cl
ENDBRANCH  11  13
ENDBRANCH   1  11
BRANCH   1  20
HETATM   20  C16 UNL     1      23.461   0.147  53.462  1.00  0.00     0.190 A 
HETATM   21  N3  UNL     1      23.723  -0.522  54.374  1.00  0.00    -0.198 NA
HETATM   22  C17 UNL     1      22.831  -1.275  54.987  1.00  0.00     0.171 A 
HETATM   23  C18 UNL     1      21.405  -1.311  54.539  1.00  0.00     0.111 A 
HETATM   24  S1  UNL     1      21.606  -0.087  53.108  1.00  0.00    -0.058 SA
BRANCH  22  25
HETATM   25  O1  UNL     1      23.279  -2.044  56.085  1.00  0.00    -0.344 OA
HETATM   26  H15 UNL     1      22.816  -2.906  56.339  1.00  0.00     0.219 HD
ENDBRANCH  22  25
ENDBRANCH   1  20
TORSDOF 5
ENDMDL
MODEL 6
REMARK VINA RESULT:      -8.6      1.315      1.715
REMARK  5 active torsions:
REMARK  status: ('A' for Active; 'I' for Inactive)
REMARK    1  A    between atoms: C9_9  and  N1_10 
REMARK    2  A    between atoms: N1_10  and  N2_11 
REMARK    3  A    between atoms: N1_10  and  C16_19 
REMARK    4  A    between atoms: N2_11  and  C10_12 
REMARK    5  A    between atoms: C17_21  and  O1_22 
ROOT
HETATM    1  N1  UNL     1      24.503   1.362  52.092  1.00  0.00    -0.259 N 
ENDROOT
BRANCH   1   2
HETATM    2  C9  UNL     1      23.924   2.544  51.440  1.00  0.00     0.144 C 
HETATM    3  C5  UNL     1      24.874   3.274  50.601  1.00  0.00    -0.026 A 
HETATM    4  C4  UNL     1      25.976   3.128  49.627  1.00  0.00     0.011 A 
HETATM    5  C6  UNL     1      24.729   4.582  50.729  1.00  0.00    -0.040 A 
HETATM    6  C3  UNL     1      26.450   4.277  49.207  1.00  0.00     0.012 A 
HETATM    7  C2  UNL     1      25.681   5.299  49.887  1.00  0.00    -0.039 A 
HETATM    8  C1  UNL     1      25.845   6.603  49.741  1.00  0.00     0.024 C 
HETATM    9  C7  UNL     1      23.650   4.853  51.682  1.00  0.00     0.042 C 
HETATM   10  C8  UNL     1      23.503   3.568  52.458  1.00  0.00     0.037 C 
ENDBRANCH   1   2
BRANCH   1  11
HETATM   11  N2  UNL     1      25.859   1.065  51.940  1.00  0.00    -0.294 N 
HETATM   12  H10 UNL     1      25.797   0.852  50.899  1.00  0.00     0.187 HD
BRANCH  11  13
HETATM   13  C10 UNL     1      27.066   0.980  52.641  1.00  0.00     0.070 A 
HETATM   14  C11 UNL     1      27.707   2.156  52.993  1.00  0.00     0.033 A 
HETATM   15  C12 UNL     1      28.885   1.964  53.680  1.00  0.00     0.002 A 
HETATM   16  C13 UNL     1      29.430   0.745  54.016  1.00  0.00     0.002 A 
HETATM   17  C14 UNL     1      28.737  -0.382  53.634  1.00  0.00     0.026 A 
HETATM   18  C15 UNL     1      27.538  -0.257  52.936  1.00  0.00     0.062 A 
HETATM   19 CL1  UNL     1      26.797  -1.768  52.531  1.00  0.00    -0.082 Cl
ENDBRANCH  11  13
ENDBRANCH   1  11
BRANCH   1  20
HETATM   20  C16 UNL     1      23.579   0.533  52.887  1.00  0.00     0.190 A 
HETATM   21  N3  UNL     1      23.353  -0.117  53.822  1.00  0.00    -0.198 NA
HETATM   22  C17 UNL     1      22.182  -0.684  54.030  1.00  0.00     0.171 A 
HETATM   23  C18 UNL     1      21.055  -0.521  53.061  1.00  0.00     0.111 A 
HETATM   24  S1  UNL     1      21.994   0.574  51.834  1.00  0.00    -0.058 SA
BRANCH  22  25
HETATM   25  O1  UNL     1      22.035  -1.452  55.208  1.00  0.00    -0.344 OA
HETATM   26  H15 UNL     1      21.324  -1.227  55.890  1.00  0.00     0.219 HD
ENDBRANCH  22  25
ENDBRANCH   1  20
TORSDOF 5
ENDMDL
MODEL 7
REMARK VINA RESULT:      -8.6      2.940      5.935
REMARK  5 active torsions:
REMARK  status: ('A' for Active; 'I' for Inactive)
REMARK    1  A    between atoms: C9_9  and  N1_10 
REMARK    2  A    between atoms: N1_10  and  N2_11 
REMARK    3  A    between atoms: N1_10  and  C16_19 
REMARK    4  A    between atoms: N2_11  and  C10_12 
REMARK    5  A    between atoms: C17_21  and  O1_22 
ROOT
HETATM    1  N1  UNL     1      24.650   1.578  52.079  1.00  0.00    -0.259 N 
ENDROOT
BRANCH   1   2
HETATM    2  C9  UNL     1      26.105   1.503  51.891  1.00  0.00     0.144 C 
HETATM    3  C5  UNL     1      26.674   0.201  52.241  1.00  0.00    -0.026 A 
HETATM    4  C4  UNL     1      26.468  -1.260  52.164  1.00  0.00     0.011 A 
HETATM    5  C6  UNL     1      27.827   0.331  52.877  1.00  0.00    -0.040 A 
HETATM    6  C3  UNL     1      27.438  -1.948  52.718  1.00  0.00     0.012 A 
HETATM    7  C2  UNL     1      28.384  -0.972  53.219  1.00  0.00    -0.039 A 
HETATM    8  C1  UNL     1      29.512  -1.256  53.851  1.00  0.00     0.024 C 
HETATM    9  C7  UNL     1      28.140   1.755  53.014  1.00  0.00     0.042 C 
HETATM   10  C8  UNL     1      26.816   2.452  52.815  1.00  0.00     0.037 C 
ENDBRANCH   1   2
BRANCH   1  11
HETATM   11  N2  UNL     1      24.048   0.961  53.179  1.00  0.00    -0.294 N 
HETATM   12  H10 UNL     1      24.736   1.342  53.895  1.00  0.00     0.187 HD
BRANCH  11  13
HETATM   13  C10 UNL     1      22.984   0.130  53.544  1.00  0.00     0.070 A 
HETATM   14  C11 UNL     1      21.756   0.325  52.936  1.00  0.00     0.033 A 
HETATM   15  C12 UNL     1      20.777  -0.543  53.365  1.00  0.00     0.002 A 
HETATM   16  C13 UNL     1      20.939  -1.534  54.306  1.00  0.00     0.002 A 
HETATM   17  C14 UNL     1      22.188  -1.671  54.869  1.00  0.00     0.026 A 
HETATM   18  C15 UNL     1      23.222  -0.824  54.479  1.00  0.00     0.062 A 
HETATM   19 CL1  UNL     1      24.725  -1.129  55.283  1.00  0.00    -0.082 Cl
ENDBRANCH  11  13
ENDBRANCH   1  11
BRANCH   1  20
HETATM   20  C16 UNL     1      23.894   2.320  51.055  1.00  0.00     0.190 A 
HETATM   21  N3  UNL     1      23.493   2.424  49.971  1.00  0.00    -0.198 NA
HETATM   22  C17 UNL     1      22.766   3.449  49.573  1.00  0.00     0.171 A 
HETATM   23  C18 UNL     1      22.407   4.557  50.510  1.00  0.00     0.111 A 
HETATM   24  S1  UNL     1      23.298   3.847  52.023  1.00  0.00    -0.058 SA
BRANCH  22  25
HETATM   25  O1  UNL     1      22.340   3.456  48.225  1.00  0.00    -0.344 OA
HETATM   26  H15 UNL     1      22.303   4.317  47.696  1.00  0.00     0.219 HD
ENDBRANCH  22  25
ENDBRANCH   1  20
TORSDOF 5
ENDMDL
MODEL 8
REMARK VINA RESULT:      -8.4      2.459      5.720
REMARK  5 active torsions:
REMARK  status: ('A' for Active; 'I' for Inactive)
REMARK    1  A    between atoms: C9_9  and  N1_10 
REMARK    2  A    between atoms: N1_10  and  N2_11 
REMARK    3  A    between atoms: N1_10  and  C16_19 
REMARK    4  A    between atoms: N2_11  and  C10_12 
REMARK    5  A    between atoms: C17_21  and  O1_22 
ROOT
HETATM    1  N1  UNL     1      24.743   2.527  52.271  1.00  0.00    -0.259 N 
ENDROOT
BRANCH   1   2
HETATM    2  C9  UNL     1      23.448   2.506  52.964  1.00  0.00     0.144 C 
HETATM    3  C5  UNL     1      22.936   1.157  53.206  1.00  0.00    -0.026 A 
HETATM    4  C4  UNL     1      23.309  -0.216  53.607  1.00  0.00     0.011 A 
HETATM    5  C6  UNL     1      21.631   1.088  52.998  1.00  0.00    -0.040 A 
HETATM    6  C3  UNL     1      22.289  -1.040  53.636  1.00  0.00     0.012 A 
HETATM    7  C2  UNL     1      21.133  -0.260  53.245  1.00  0.00    -0.039 A 
HETATM    8  C1  UNL     1      19.897  -0.721  53.147  1.00  0.00     0.024 C 
HETATM    9  C7  UNL     1      21.142   2.408  52.591  1.00  0.00     0.042 C 
HETATM   10  C8  UNL     1      22.376   3.137  52.119  1.00  0.00     0.037 C 
ENDBRANCH   1   2
BRANCH   1  11
HETATM   11  N2  UNL     1      24.849   3.074  50.989  1.00  0.00    -0.294 N 
HETATM   12  H10 UNL     1      24.045   2.512  50.576  1.00  0.00     0.187 HD
BRANCH  11  13
HETATM   13  C10 UNL     1      25.582   3.988  50.226  1.00  0.00     0.070 A 
HETATM   14  C11 UNL     1      26.674   3.524  49.512  1.00  0.00     0.033 A 
HETATM   15  C12 UNL     1      27.328   4.501  48.796  1.00  0.00     0.002 A 
HETATM   16  C13 UNL     1      26.979   5.832  48.750  1.00  0.00     0.002 A 
HETATM   17  C14 UNL     1      25.882   6.222  49.484  1.00  0.00     0.026 A 
HETATM   18  C15 UNL     1      25.177   5.282  50.232  1.00  0.00     0.062 A 
HETATM   19 CL1  UNL     1      23.827   5.937  51.097  1.00  0.00    -0.082 Cl
ENDBRANCH  11  13
ENDBRANCH   1  11
BRANCH   1  20
HETATM   20  C16 UNL     1      25.885   1.944  52.997  1.00  0.00     0.190 A 
HETATM   21  N3  UNL     1      26.600   1.926  53.910  1.00  0.00    -0.198 NA
HETATM   22  C17 UNL     1      27.578   1.050  54.035  1.00  0.00     0.171 A 
HETATM   23  C18 UNL     1      27.828   0.010  52.991  1.00  0.00     0.111 A 
HETATM   24  S1  UNL     1      26.420   0.533  51.837  1.00  0.00    -0.058 SA
BRANCH  22  25
HETATM   25  O1  UNL     1      28.379   1.136  55.197  1.00  0.00    -0.344 OA
HETATM   26  H15 UNL     1      28.186   1.826  55.911  1.00  0.00     0.219 HD
ENDBRANCH  22  25
ENDBRANCH   1  20
TORSDOF 5
ENDMDL
MODEL 9
REMARK VINA RESULT:      -8.4      2.593      5.869
REMARK  5 active torsions:
REMARK  status: ('A' for Active; 'I' for Inactive)
REMARK    1  A    between atoms: C9_9  and  N1_10 
REMARK    2  A    between atoms: N1_10  and  N2_11 
REMARK    3  A    between atoms: N1_10  and  C16_19 
REMARK    4  A    between atoms: N2_11  and  C10_12 
REMARK    5  A    between atoms: C17_21  and  O1_22 
ROOT
HETATM    1  N1  UNL     1      24.701   0.879  53.050  1.00  0.00    -0.259 N 
ENDROOT
BRANCH   1   2
HETATM    2  C9  UNL     1      23.804  -0.276  53.188  1.00  0.00     0.144 C 
HETATM    3  C5  UNL     1      22.476  -0.058  52.615  1.00  0.00    -0.026 A 
HETATM    4  C4  UNL     1      21.741   0.528  51.475  1.00  0.00     0.011 A 
HETATM    5  C6  UNL     1      21.527  -0.569  53.381  1.00  0.00    -0.040 A 
HETATM    6  C3  UNL     1      20.442   0.372  51.562  1.00  0.00     0.012 A 
HETATM    7  C2  UNL     1      20.208  -0.346  52.799  1.00  0.00    -0.039 A 
HETATM    8  C1  UNL     1      19.023  -0.706  53.262  1.00  0.00     0.024 C 
HETATM    9  C7  UNL     1      22.143  -1.186  54.558  1.00  0.00     0.042 C 
HETATM   10  C8  UNL     1      23.514  -0.561  54.636  1.00  0.00     0.037 C 
ENDBRANCH   1   2
BRANCH   1  11
HETATM   11  N2  UNL     1      24.268   2.034  52.393  1.00  0.00    -0.294 N 
HETATM   12  H10 UNL     1      23.379   2.146  52.966  1.00  0.00     0.187 HD
BRANCH  11  13
HETATM   13  C10 UNL     1      24.610   2.929  51.375  1.00  0.00     0.070 A 
HETATM   14  C11 UNL     1      25.825   2.763  50.732  1.00  0.00     0.033 A 
HETATM   15  C12 UNL     1      26.066   3.695  49.747  1.00  0.00     0.002 A 
HETATM   16  C13 UNL     1      25.220   4.720  49.386  1.00  0.00     0.002 A 
HETATM   17  C14 UNL     1      24.028   4.823  50.068  1.00  0.00     0.026 A 
HETATM   18  C15 UNL     1      23.724   3.913  51.077  1.00  0.00     0.062 A 
HETATM   19 CL1  UNL     1      22.191   4.185  51.834  1.00  0.00    -0.082 Cl
ENDBRANCH  11  13
ENDBRANCH   1  11
BRANCH   1  20
HETATM   20  C16 UNL     1      26.049   0.736  53.628  1.00  0.00     0.190 A 
HETATM   21  N3  UNL     1      26.869   1.072  54.377  1.00  0.00    -0.198 NA
HETATM   22  C17 UNL     1      28.049   0.489  54.453  1.00  0.00     0.171 A 
HETATM   23  C18 UNL     1      28.407  -0.660  53.567  1.00  0.00     0.111 A 
HETATM   24  S1  UNL     1      26.759  -0.724  52.636  1.00  0.00    -0.058 SA
BRANCH  22  25
HETATM   25  O1  UNL     1      28.960   0.995  55.409  1.00  0.00    -0.344 OA
HETATM   26  H15 UNL     1      28.708   1.055  56.386  1.00  0.00     0.219 HD
ENDBRANCH  22  25
ENDBRANCH   1  20
TORSDOF 5
ENDMDL
