MODEL 1
REMARK VINA RESULT:      -8.0      0.000      0.000
REMARK  3 active torsions:
REMARK  status: ('A' for Active; 'I' for Inactive)
REMARK    1  A    between atoms: C3_3  and  C4_4 
REMARK    2  A    between atoms: C5_5  and  N1_7 
REMARK       I    between atoms: N2_11  and  C9_12 
REMARK       I    between atoms: C9_12  and  N3_14 
REMARK    3  A    between atoms: N3_14  and  C10_15 
ROOT
HETATM    1  N1  UNL     1      22.302   0.550  53.347  1.00  0.00    -0.259 N 
HETATM    2  C6  UNL     1      20.945   0.103  53.701  1.00  0.00     0.180 A 
HETATM    3  C7  UNL     1      21.189  -1.034  54.589  1.00  0.00     0.014 A 
HETATM    4  C8  UNL     1      22.495  -1.195  54.712  1.00  0.00     0.119 A 
HETATM    5  N2  UNL     1      23.230  -0.241  53.964  1.00  0.00    -0.213 N 
HETATM    6  C9  UNL     1      24.635  -0.338  54.036  1.00  0.00     0.347 C 
HETATM    7  O2  UNL     1      25.212  -1.221  54.726  1.00  0.00    -0.245 OA
HETATM    8  N3  UNL     1      25.597   0.467  53.404  1.00  0.00    -0.291 N 
HETATM    9  H12 UNL     1      25.277   1.246  52.794  1.00  0.00     0.172 HD
ENDROOT
BRANCH   1  10
HETATM   10  C5  UNL     1      22.621   1.619  52.509  1.00  0.00     0.162 A 
HETATM   11  C4  UNL     1      22.655   1.379  51.051  1.00  0.00     0.256 A 
HETATM   12  O1  UNL     1      22.917   2.674  51.980  1.00  0.00    -0.327 OA
BRANCH  11  13
HETATM   13  C3  UNL     1      23.023   2.555  50.247  1.00  0.00     0.000 C 
HETATM   14  C2  UNL     1      22.803   2.673  48.947  1.00  0.00    -0.033 C 
HETATM   15  C1  UNL     1      22.181   1.762  47.965  1.00  0.00     0.036 C 
ENDBRANCH  11  13
ENDBRANCH   1  10
BRANCH   8  16
HETATM   16  C10 UNL     1      26.982   0.166  53.636  1.00  0.00     0.131 A 
HETATM   17  C11 UNL     1      27.563  -0.920  52.979  1.00  0.00     0.050 A 
HETATM   18  C12 UNL     1      28.900  -1.210  53.203  1.00  0.00     0.005 A 
HETATM   19  C13 UNL     1      29.655  -0.426  54.077  1.00  0.00     0.019 A 
HETATM   20  C14 UNL     1      29.007   0.645  54.699  1.00  0.00     0.119 A 
HETATM   21  N4  UNL     1      27.702   0.946  54.494  1.00  0.00    -0.243 NA
ENDBRANCH   8  16
TORSDOF 3
ENDMDL
MODEL 2
REMARK VINA RESULT:      -7.8      1.044      1.484
REMARK  3 active torsions:
REMARK  status: ('A' for Active; 'I' for Inactive)
REMARK    1  A    between atoms: C3_3  and  C4_4 
REMARK    2  A    between atoms: C5_5  and  N1_7 
REMARK       I    between atoms: N2_11  and  C9_12 
REMARK       I    between atoms: C9_12  and  N3_14 
REMARK    3  A    between atoms: N3_14  and  C10_15 
ROOT
HETATM    1  N1  UNL     1      22.395   0.060  53.011  1.00  0.00    -0.259 N 
HETATM    2  C6  UNL     1      21.052  -0.326  53.475  1.00  0.00     0.180 A 
HETATM    3  C7  UNL     1      21.328  -1.116  54.675  1.00  0.00     0.014 A 
HETATM    4  C8  UNL     1      22.636  -1.161  54.854  1.00  0.00     0.119 A 
HETATM    5  N2  UNL     1      23.344  -0.449  53.852  1.00  0.00    -0.213 N 
HETATM    6  C9  UNL     1      24.750  -0.444  53.963  1.00  0.00     0.347 C 
HETATM    7  O2  UNL     1      25.350  -1.037  54.898  1.00  0.00    -0.245 OA
HETATM    8  N3  UNL     1      25.687   0.175  53.120  1.00  0.00    -0.291 N 
HETATM    9  H12 UNL     1      25.346   0.708  52.295  1.00  0.00     0.172 HD
ENDROOT
BRANCH   1  10
HETATM   10  C5  UNL     1      22.683   0.832  51.884  1.00  0.00     0.162 A 
HETATM   11  C4  UNL     1      22.957   2.272  52.074  1.00  0.00     0.256 A 
HETATM   12  O1  UNL     1      22.907   1.300  50.784  1.00  0.00    -0.327 OA
BRANCH  11  13
HETATM   13  C3  UNL     1      23.227   3.010  50.831  1.00  0.00     0.000 C 
HETATM   14  C2  UNL     1      23.429   4.317  50.764  1.00  0.00    -0.033 C 
HETATM   15  C1  UNL     1      23.448   5.367  51.803  1.00  0.00     0.036 C 
ENDBRANCH  11  13
ENDBRANCH   1  10
BRANCH   8  16
HETATM   16  C10 UNL     1      27.079   0.035  53.446  1.00  0.00     0.131 A 
HETATM   17  C11 UNL     1      27.778  -1.082  52.985  1.00  0.00     0.050 A 
HETATM   18  C12 UNL     1      29.121  -1.215  53.300  1.00  0.00     0.005 A 
HETATM   19  C13 UNL     1      29.766  -0.247  54.072  1.00  0.00     0.019 A 
HETATM   20  C14 UNL     1      29.002   0.843  54.499  1.00  0.00     0.119 A 
HETATM   21  N4  UNL     1      27.689   0.994  54.202  1.00  0.00    -0.243 NA
ENDBRANCH   8  16
TORSDOF 3
ENDMDL
MODEL 3
REMARK VINA RESULT:      -7.6      2.870      5.892
REMARK  3 active torsions:
REMARK  status: ('A' for Active; 'I' for Inactive)
REMARK    1  A    between atoms: C3_3  and  C4_4 
REMARK    2  A    between atoms: C5_5  and  N1_7 
REMARK       I    between atoms: N2_11  and  C9_12 
REMARK       I    between atoms: C9_12  and  N3_14 
REMARK    3  A    between atoms: N3_14  and  C10_15 
ROOT
HETATM    1  N1  UNL     1      24.462   0.586  53.337  1.00  0.00    -0.259 N 
HETATM    2  C6  UNL     1      23.485  -0.439  53.739  1.00  0.00     0.180 A 
HETATM    3  C7  UNL     1      22.401  -0.263  52.773  1.00  0.00     0.014 A 
HETATM    4  C8  UNL     1      22.728   0.719  51.951  1.00  0.00     0.119 A 
HETATM    5  N2  UNL     1      23.995   1.278  52.256  1.00  0.00    -0.213 N 
HETATM    6  C9  UNL     1      24.428   2.335  51.428  1.00  0.00     0.347 C 
HETATM    7  O2  UNL     1      23.732   2.763  50.469  1.00  0.00    -0.245 OA
HETATM    8  N3  UNL     1      25.626   3.064  51.502  1.00  0.00    -0.291 N 
HETATM    9  H12 UNL     1      26.312   2.829  52.247  1.00  0.00     0.172 HD
ENDROOT
BRANCH   1  10
HETATM   10  C5  UNL     1      25.691   0.834  53.952  1.00  0.00     0.162 A 
HETATM   11  C4  UNL     1      26.850   0.004  53.558  1.00  0.00     0.256 A 
HETATM   12  O1  UNL     1      26.643   1.218  54.604  1.00  0.00    -0.327 OA
BRANCH  11  13
HETATM   13  C3  UNL     1      28.096   0.319  54.273  1.00  0.00     0.000 C 
HETATM   14  C2  UNL     1      29.211  -0.389  54.183  1.00  0.00    -0.033 C 
HETATM   15  C1  UNL     1      29.548  -1.605  53.416  1.00  0.00     0.036 C 
ENDBRANCH  11  13
ENDBRANCH   1  10
BRANCH   8  16
HETATM   16  C10 UNL     1      25.839   4.105  50.534  1.00  0.00     0.131 A 
HETATM   17  C11 UNL     1      26.851   3.955  49.584  1.00  0.00     0.050 A 
HETATM   18  C12 UNL     1      27.055   4.959  48.651  1.00  0.00     0.005 A 
HETATM   19  C13 UNL     1      26.261   6.107  48.664  1.00  0.00     0.019 A 
HETATM   20  C14 UNL     1      25.269   6.188  49.644  1.00  0.00     0.119 A 
HETATM   21  N4  UNL     1      25.051   5.219  50.565  1.00  0.00    -0.243 NA
ENDBRANCH   8  16
TORSDOF 3
ENDMDL
MODEL 4
REMARK VINA RESULT:      -7.2      1.785      3.760
REMARK  3 active torsions:
REMARK  status: ('A' for Active; 'I' for Inactive)
REMARK    1  A    between atoms: C3_3  and  C4_4 
REMARK    2  A    between atoms: C5_5  and  N1_7 
REMARK       I    between atoms: N2_11  and  C9_12 
REMARK       I    between atoms: C9_12  and  N3_14 
REMARK    3  A    between atoms: N3_14  and  C10_15 
ROOT
HETATM    1  N1  UNL     1      22.889   1.167  51.789  1.00  0.00    -0.259 N 
HETATM    2  C6  UNL     1      22.069   2.051  50.945  1.00  0.00     0.180 A 
HETATM    3  C7  UNL     1      23.065   2.874  50.258  1.00  0.00     0.014 A 
HETATM    4  C8  UNL     1      24.267   2.500  50.662  1.00  0.00     0.119 A 
HETATM    5  N2  UNL     1      24.214   1.447  51.610  1.00  0.00    -0.213 N 
HETATM    6  C9  UNL     1      25.453   0.982  52.099  1.00  0.00     0.347 C 
HETATM    7  O2  UNL     1      26.550   1.472  51.717  1.00  0.00    -0.245 OA
HETATM    8  N3  UNL     1      25.694  -0.039  53.032  1.00  0.00    -0.291 N 
HETATM    9  H12 UNL     1      24.883  -0.544  53.444  1.00  0.00     0.172 HD
ENDROOT
BRANCH   1  10
HETATM   10  C5  UNL     1      22.409   0.180  52.653  1.00  0.00     0.162 A 
HETATM   11  C4  UNL     1      20.946   0.033  52.801  1.00  0.00     0.256 A 
HETATM   12  O1  UNL     1      22.220  -0.725  53.442  1.00  0.00    -0.327 OA
BRANCH  11  13
HETATM   13  C3  UNL     1      20.531  -1.013  53.748  1.00  0.00     0.000 C 
HETATM   14  C2  UNL     1      19.308  -1.514  53.823  1.00  0.00    -0.033 C 
HETATM   15  C1  UNL     1      18.075  -1.224  53.064  1.00  0.00     0.036 C 
ENDBRANCH  11  13
ENDBRANCH   1  10
BRANCH   8  16
HETATM   16  C10 UNL     1      27.059  -0.331  53.372  1.00  0.00     0.131 A 
HETATM   17  C11 UNL     1      27.684  -1.436  52.791  1.00  0.00     0.050 A 
HETATM   18  C12 UNL     1      29.001  -1.715  53.120  1.00  0.00     0.005 A 
HETATM   19  C13 UNL     1      29.693  -0.904  54.021  1.00  0.00     0.019 A 
HETATM   20  C14 UNL     1      29.002   0.184  54.562  1.00  0.00     0.119 A 
HETATM   21  N4  UNL     1      27.716   0.476  54.255  1.00  0.00    -0.243 NA
ENDBRANCH   8  16
TORSDOF 3
ENDMDL
MODEL 5
REMARK VINA RESULT:      -7.0      2.048      6.415
REMARK  3 active torsions:
REMARK  status: ('A' for Active; 'I' for Inactive)
REMARK    1  A    between atoms: C3_3  and  C4_4 
REMARK    2  A    between atoms: C5_5  and  N1_7 
REMARK       I    between atoms: N2_11  and  C9_12 
REMARK       I    between atoms: C9_12  and  N3_14 
REMARK    3  A    between atoms: N3_14  and  C10_15 
ROOT
HETATM    1  N1  UNL     1      26.170   2.671  51.518  1.00  0.00    -0.259 N 
HETATM    2  C6  UNL     1      26.732   3.470  50.416  1.00  0.00     0.180 A 
HETATM    3  C7  UNL     1      25.643   3.505  49.440  1.00  0.00     0.014 A 
HETATM    4  C8  UNL     1      24.622   2.824  49.929  1.00  0.00     0.119 A 
HETATM    5  N2  UNL     1      24.895   2.287  51.212  1.00  0.00    -0.213 N 
HETATM    6  C9  UNL     1      23.859   1.542  51.813  1.00  0.00     0.347 C 
HETATM    7  O2  UNL     1      22.748   1.360  51.245  1.00  0.00    -0.245 OA
HETATM    8  N3  UNL     1      23.857   0.904  53.064  1.00  0.00    -0.291 N 
HETATM    9  H12 UNL     1      24.708   0.961  53.658  1.00  0.00     0.172 HD
ENDROOT
BRANCH   1  10
HETATM   10  C5  UNL     1      26.822   2.341  52.707  1.00  0.00     0.162 A 
HETATM   11  C4  UNL     1      27.604   1.087  52.751  1.00  0.00     0.256 A 
HETATM   12  O1  UNL     1      27.297   2.256  53.823  1.00  0.00    -0.327 OA
BRANCH  11  13
HETATM   13  C3  UNL     1      28.236   0.808  54.050  1.00  0.00     0.000 C 
HETATM   14  C2  UNL     1      29.037  -0.218  54.288  1.00  0.00    -0.033 C 
HETATM   15  C1  UNL     1      29.518  -1.316  53.426  1.00  0.00     0.036 C 
ENDBRANCH  11  13
ENDBRANCH   1  10
BRANCH   8  16
HETATM   16  C10 UNL     1      22.668   0.200  53.457  1.00  0.00     0.131 A 
HETATM   17  C11 UNL     1      22.739  -1.172  53.706  1.00  0.00     0.050 A 
HETATM   18  C12 UNL     1      21.591  -1.850  54.085  1.00  0.00     0.005 A 
HETATM   19  C13 UNL     1      20.379  -1.169  54.215  1.00  0.00     0.019 A 
HETATM   20  C14 UNL     1      20.385   0.203  53.950  1.00  0.00     0.119 A 
HETATM   21  N4  UNL     1      21.494   0.885  53.578  1.00  0.00    -0.243 NA
ENDBRANCH   8  16
TORSDOF 3
ENDMDL
MODEL 6
REMARK VINA RESULT:      -7.0      1.773      5.604
REMARK  3 active torsions:
REMARK  status: ('A' for Active; 'I' for Inactive)
REMARK    1  A    between atoms: C3_3  and  C4_4 
REMARK    2  A    between atoms: C5_5  and  N1_7 
REMARK       I    between atoms: N2_11  and  C9_12 
REMARK       I    between atoms: C9_12  and  N3_14 
REMARK    3  A    between atoms: N3_14  and  C10_15 
ROOT
HETATM    1  N1  UNL     1      23.660  -0.476  53.828  1.00  0.00    -0.259 N 
HETATM    2  C6  UNL     1      22.943  -1.253  54.853  1.00  0.00     0.180 A 
HETATM    3  C7  UNL     1      21.623  -0.621  54.886  1.00  0.00     0.014 A 
HETATM    4  C8  UNL     1      21.609   0.364  54.006  1.00  0.00     0.119 A 
HETATM    5  N2  UNL     1      22.845   0.497  53.323  1.00  0.00    -0.213 N 
HETATM    6  C9  UNL     1      22.922   1.526  52.362  1.00  0.00     0.347 C 
HETATM    7  O2  UNL     1      21.948   2.289  52.118  1.00  0.00    -0.245 OA
HETATM    8  N3  UNL     1      24.010   1.878  51.548  1.00  0.00    -0.291 N 
HETATM    9  H12 UNL     1      24.895   1.339  51.632  1.00  0.00     0.172 HD
ENDROOT
BRANCH   1  10
HETATM   10  C5  UNL     1      24.977  -0.684  53.414  1.00  0.00     0.162 A 
HETATM   11  C4  UNL     1      26.034   0.177  53.988  1.00  0.00     0.256 A 
HETATM   12  O1  UNL     1      26.031  -1.036  52.920  1.00  0.00    -0.327 OA
BRANCH  11  13
HETATM   13  C3  UNL     1      27.386  -0.096  53.478  1.00  0.00     0.000 C 
HETATM   14  C2  UNL     1      28.329   0.820  53.327  1.00  0.00    -0.033 C 
HETATM   15  C1  UNL     1      28.345   2.273  53.590  1.00  0.00     0.036 C 
ENDBRANCH  11  13
ENDBRANCH   1  10
BRANCH   8  16
HETATM   16  C10 UNL     1      23.841   2.976  50.637  1.00  0.00     0.131 A 
HETATM   17  C11 UNL     1      23.271   2.741  49.385  1.00  0.00     0.050 A 
HETATM   18  C12 UNL     1      23.107   3.801  48.507  1.00  0.00     0.005 A 
HETATM   19  C13 UNL     1      23.510   5.088  48.871  1.00  0.00     0.019 A 
HETATM   20  C14 UNL     1      24.072   5.247  50.140  1.00  0.00     0.119 A 
HETATM   21  N4  UNL     1      24.241   4.226  51.013  1.00  0.00    -0.243 NA
ENDBRANCH   8  16
TORSDOF 3
ENDMDL
MODEL 7
REMARK VINA RESULT:      -6.9      2.347      3.896
REMARK  3 active torsions:
REMARK  status: ('A' for Active; 'I' for Inactive)
REMARK    1  A    between atoms: C3_3  and  C4_4 
REMARK    2  A    between atoms: C5_5  and  N1_7 
REMARK       I    between atoms: N2_11  and  C9_12 
REMARK       I    between atoms: C9_12  and  N3_14 
REMARK    3  A    between atoms: N3_14  and  C10_15 
ROOT
HETATM    1  N1  UNL     1      23.714   2.767  50.575  1.00  0.00    -0.259 N 
HETATM    2  C6  UNL     1      23.286   3.806  49.624  1.00  0.00     0.180 A 
HETATM    3  C7  UNL     1      24.534   4.502  49.307  1.00  0.00     0.014 A 
HETATM    4  C8  UNL     1      25.515   3.931  49.984  1.00  0.00     0.119 A 
HETATM    5  N2  UNL     1      25.062   2.852  50.784  1.00  0.00    -0.213 N 
HETATM    6  C9  UNL     1      26.043   2.181  51.544  1.00  0.00     0.347 C 
HETATM    7  O2  UNL     1      27.257   2.518  51.516  1.00  0.00    -0.245 OA
HETATM    8  N3  UNL     1      25.877   1.091  52.413  1.00  0.00    -0.291 N 
HETATM    9  H12 UNL     1      24.925   0.694  52.545  1.00  0.00     0.172 HD
ENDROOT
BRANCH   1  10
HETATM   10  C5  UNL     1      22.887   1.823  51.187  1.00  0.00     0.162 A 
HETATM   11  C4  UNL     1      21.684   1.371  50.456  1.00  0.00     0.256 A 
HETATM   12  O1  UNL     1      22.323   1.013  51.896  1.00  0.00    -0.327 OA
BRANCH  11  13
HETATM   13  C3  UNL     1      20.860   0.395  51.185  1.00  0.00     0.000 C 
HETATM   14  C2  UNL     1      19.538   0.341  51.129  1.00  0.00    -0.033 C 
HETATM   15  C1  UNL     1      18.547   1.153  50.396  1.00  0.00     0.036 C 
ENDBRANCH  11  13
ENDBRANCH   1  10
BRANCH   8  16
HETATM   16  C10 UNL     1      27.043   0.579  53.078  1.00  0.00     0.131 A 
HETATM   17  C11 UNL     1      27.600  -0.626  52.647  1.00  0.00     0.050 A 
HETATM   18  C12 UNL     1      28.725  -1.118  53.290  1.00  0.00     0.005 A 
HETATM   19  C13 UNL     1      29.292  -0.419  54.357  1.00  0.00     0.019 A 
HETATM   20  C14 UNL     1      28.679   0.780  54.734  1.00  0.00     0.119 A 
HETATM   21  N4  UNL     1      27.580   1.279  54.120  1.00  0.00    -0.243 NA
ENDBRANCH   8  16
TORSDOF 3
ENDMDL
MODEL 8
REMARK VINA RESULT:      -6.8      3.051      5.000
REMARK  3 active torsions:
REMARK  status: ('A' for Active; 'I' for Inactive)
REMARK    1  A    between atoms: C3_3  and  C4_4 
REMARK    2  A    between atoms: C5_5  and  N1_7 
REMARK       I    between atoms: N2_11  and  C9_12 
REMARK       I    between atoms: C9_12  and  N3_14 
REMARK    3  A    between atoms: N3_14  and  C10_15 
ROOT
HETATM    1  N1  UNL     1      23.822   0.338  52.984  1.00  0.00    -0.259 N 
HETATM    2  C6  UNL     1      23.989  -0.657  54.056  1.00  0.00     0.180 A 
HETATM    3  C7  UNL     1      25.374  -0.456  54.483  1.00  0.00     0.014 A 
HETATM    4  C8  UNL     1      25.901   0.512  53.754  1.00  0.00     0.119 A 
HETATM    5  N2  UNL     1      24.982   1.038  52.810  1.00  0.00    -0.213 N 
HETATM    6  C9  UNL     1      25.458   2.078  51.985  1.00  0.00     0.347 C 
HETATM    7  O2  UNL     1      26.634   2.521  52.077  1.00  0.00    -0.245 OA
HETATM    8  N3  UNL     1      24.771   2.774  50.977  1.00  0.00    -0.291 N 
HETATM    9  H12 UNL     1      23.782   2.523  50.778  1.00  0.00     0.172 HD
ENDROOT
BRANCH   1  10
HETATM   10  C5  UNL     1      22.660   0.553  52.239  1.00  0.00     0.162 A 
HETATM   11  C4  UNL     1      21.377   0.068  52.790  1.00  0.00     0.256 A 
HETATM   12  O1  UNL     1      21.795   0.845  51.437  1.00  0.00    -0.327 OA
BRANCH  11  13
HETATM   13  C3  UNL     1      20.211   0.317  51.929  1.00  0.00     0.000 C 
HETATM   14  C2  UNL     1      19.003  -0.182  52.140  1.00  0.00    -0.033 C 
HETATM   15  C1  UNL     1      18.471  -1.064  53.197  1.00  0.00     0.036 C 
ENDBRANCH  11  13
ENDBRANCH   1  10
BRANCH   8  16
HETATM   16  C10 UNL     1      25.480   3.803  50.269  1.00  0.00     0.131 A 
HETATM   17  C11 UNL     1      26.586   3.457  49.490  1.00  0.00     0.050 A 
HETATM   18  C12 UNL     1      27.269   4.451  48.807  1.00  0.00     0.005 A 
HETATM   19  C13 UNL     1      26.857   5.782  48.899  1.00  0.00     0.019 A 
HETATM   20  C14 UNL     1      25.743   6.053  49.697  1.00  0.00     0.119 A 
HETATM   21  N4  UNL     1      25.061   5.098  50.373  1.00  0.00    -0.243 NA
ENDBRANCH   8  16
TORSDOF 3
ENDMDL
MODEL 9
REMARK VINA RESULT:      -6.6      9.630     10.930
REMARK  3 active torsions:
REMARK  status: ('A' for Active; 'I' for Inactive)
REMARK    1  A    between atoms: C3_3  and  C4_4 
REMARK    2  A    between atoms: C5_5  and  N1_7 
REMARK       I    between atoms: N2_11  and  C9_12 
REMARK       I    between atoms: C9_12  and  N3_14 
REMARK    3  A    between atoms: N3_14  and  C10_15 
ROOT
HETATM    1  N1  UNL     1      29.257   7.464  48.466  1.00  0.00    -0.259 N 
HETATM    2  C6  UNL     1      27.820   7.506  48.786  1.00  0.00     0.180 A 
HETATM    3  C7  UNL     1      27.398   6.116  48.603  1.00  0.00     0.014 A 
HETATM    4  C8  UNL     1      28.449   5.405  48.235  1.00  0.00     0.119 A 
HETATM    5  N2  UNL     1      29.626   6.191  48.136  1.00  0.00    -0.213 N 
HETATM    6  C9  UNL     1      30.801   5.514  47.748  1.00  0.00     0.347 C 
HETATM    7  O2  UNL     1      30.811   4.278  47.502  1.00  0.00    -0.245 OA
HETATM    8  N3  UNL     1      32.091   6.039  47.572  1.00  0.00    -0.291 N 
HETATM    9  H12 UNL     1      32.247   7.053  47.738  1.00  0.00     0.172 HD
ENDROOT
BRANCH   1  10
HETATM   10  C5  UNL     1      30.134   8.551  48.490  1.00  0.00     0.162 A 
HETATM   11  C4  UNL     1      29.635   9.840  49.011  1.00  0.00     0.256 A 
HETATM   12  O1  UNL     1      31.053   9.343  48.418  1.00  0.00    -0.327 OA
BRANCH  11  13
HETATM   13  C3  UNL     1      30.618  10.933  48.977  1.00  0.00     0.000 C 
HETATM   14  C2  UNL     1      30.309  12.221  48.990  1.00  0.00    -0.033 C 
HETATM   15  C1  UNL     1      29.012  12.923  49.038  1.00  0.00     0.036 C 
ENDBRANCH  11  13
ENDBRANCH   1  10
BRANCH   8  16
HETATM   16  C10 UNL     1      33.134   5.137  47.169  1.00  0.00     0.131 A 
HETATM   17  C11 UNL     1      33.411   4.980  45.809  1.00  0.00     0.050 A 
HETATM   18  C12 UNL     1      34.417   4.110  45.422  1.00  0.00     0.005 A 
HETATM   19  C13 UNL     1      35.143   3.398  46.378  1.00  0.00     0.019 A 
HETATM   20  C14 UNL     1      34.810   3.606  47.719  1.00  0.00     0.119 A 
HETATM   21  N4  UNL     1      33.831   4.451  48.120  1.00  0.00    -0.243 NA
ENDBRANCH   8  16
TORSDOF 3
ENDMDL
