MODEL 1
REMARK VINA RESULT:      -7.7      0.000      0.000
REMARK  6 active torsions:
REMARK  status: ('A' for Active; 'I' for Inactive)
REMARK    1  A    between atoms: C5_7  and  N1_8 
REMARK    2  A    between atoms: C6_9  and  N2_10 
REMARK    3  A    between atoms: N3_16  and  C11_17 
REMARK    4  A    between atoms: C11_17  and  C12_18 
REMARK    5  A    between atoms: C12_18  and  C13_19 
REMARK    6  A    between atoms: C13_19  and  N4_20 
ROOT
HETATM    1  O1  UNL     1      19.378   3.450  52.315  1.00  0.00    -0.271 OA
HETATM    2  C1  UNL     1      20.329   2.659  52.326  1.00  0.00     0.248 C 
HETATM    3  C2  UNL     1      20.026   1.213  52.454  1.00  0.00     0.279 C 
HETATM    4  O2  UNL     1      21.051   0.536  53.158  1.00  0.00    -0.340 OA
HETATM    5  C3  UNL     1      22.385   0.911  53.083  1.00  0.00     0.098 A 
HETATM    6  C4  UNL     1      23.454   0.084  53.449  1.00  0.00     0.070 A 
HETATM    7  C5  UNL     1      24.773   0.517  53.354  1.00  0.00     0.061 A 
HETATM    8  C8  UNL     1      25.070   1.781  52.892  1.00  0.00     0.034 A 
HETATM    9  C9  UNL     1      24.027   2.604  52.528  1.00  0.00     0.035 A 
HETATM   10  C10 UNL     1      22.697   2.190  52.617  1.00  0.00     0.070 A 
HETATM   11  N3  UNL     1      21.692   3.122  52.218  1.00  0.00    -0.314 N 
ENDROOT
BRANCH  11  12
HETATM   12  C11 UNL     1      21.942   4.449  51.754  1.00  0.00     0.134 C 
BRANCH  12  13
HETATM   13  C12 UNL     1      22.122   4.555  50.249  1.00  0.00     0.050 C 
BRANCH  13  14
HETATM   14  C13 UNL     1      23.134   5.630  49.959  1.00  0.00     0.274 C 
BRANCH  14  15
HETATM   15  N4  UNL     1      24.473   5.292  50.323  1.00  0.00     0.088 N 
HETATM   16  C14 UNL     1      25.390   6.410  50.222  1.00  0.00     0.272 C 
HETATM   17  C15 UNL     1      26.216   6.396  48.957  1.00  0.00     0.030 C 
HETATM   18  C16 UNL     1      26.988   5.128  48.755  1.00  0.00     0.003 C 
HETATM   19  C17 UNL     1      26.358   3.961  49.491  1.00  0.00     0.030 C 
HETATM   20  C18 UNL     1      24.873   4.178  49.484  1.00  0.00     0.272 C 
ENDBRANCH  14  15
ENDBRANCH  13  14
ENDBRANCH  12  13
ENDBRANCH  11  12
BRANCH   7  21
HETATM   21  N1  UNL     1      25.626  -0.552  53.815  1.00  0.00    -0.242 NA
HETATM   22  C6  UNL     1      26.912  -0.472  53.569  1.00  0.00     0.234 C 
BRANCH  22  23
HETATM   23  N2  UNL     1      28.219  -1.006  53.662  1.00  0.00    -0.242 NA
HETATM   24  C7  UNL     1      29.153  -0.220  54.123  1.00  0.00     0.202 C 
HETATM   25 CL1  UNL     1      30.234  -1.568  53.892  1.00  0.00    -0.076 Cl
ENDBRANCH  22  23
ENDBRANCH   7  21
TORSDOF 6
ENDMDL
MODEL 2
REMARK VINA RESULT:      -7.4      3.535      7.314
REMARK  6 active torsions:
REMARK  status: ('A' for Active; 'I' for Inactive)
REMARK    1  A    between atoms: C5_7  and  N1_8 
REMARK    2  A    between atoms: C6_9  and  N2_10 
REMARK    3  A    between atoms: N3_16  and  C11_17 
REMARK    4  A    between atoms: C11_17  and  C12_18 
REMARK    5  A    between atoms: C12_18  and  C13_19 
REMARK    6  A    between atoms: C13_19  and  N4_20 
ROOT
HETATM    1  O1  UNL     1      22.899   2.577  52.625  1.00  0.00    -0.271 OA
HETATM    2  C1  UNL     1      23.694   3.380  52.122  1.00  0.00     0.248 C 
HETATM    3  C2  UNL     1      23.450   4.826  52.339  1.00  0.00     0.279 C 
HETATM    4  O2  UNL     1      23.885   5.590  51.229  1.00  0.00    -0.340 OA
HETATM    5  C3  UNL     1      24.979   5.230  50.454  1.00  0.00     0.098 A 
HETATM    6  C4  UNL     1      25.659   6.108  49.602  1.00  0.00     0.070 A 
HETATM    7  C5  UNL     1      26.750   5.688  48.846  1.00  0.00     0.061 A 
HETATM    8  C8  UNL     1      27.198   4.387  48.916  1.00  0.00     0.034 A 
HETATM    9  C9  UNL     1      26.538   3.513  49.752  1.00  0.00     0.035 A 
HETATM   10  C10 UNL     1      25.441   3.914  50.517  1.00  0.00     0.070 A 
HETATM   11  N3  UNL     1      24.827   2.929  51.348  1.00  0.00    -0.314 N 
ENDROOT
BRANCH  11  12
HETATM   12  C11 UNL     1      25.235   1.564  51.441  1.00  0.00     0.134 C 
BRANCH  12  13
HETATM   13  C12 UNL     1      26.506   1.352  52.247  1.00  0.00     0.050 C 
BRANCH  13  14
HETATM   14  C13 UNL     1      26.139   0.755  53.578  1.00  0.00     0.274 C 
BRANCH  14  15
HETATM   15  N4  UNL     1      27.052  -0.237  54.051  1.00  0.00     0.088 N 
HETATM   16  C14 UNL     1      28.096   0.307  54.897  1.00  0.00     0.272 C 
HETATM   17  C15 UNL     1      29.407   0.513  54.175  1.00  0.00     0.030 C 
HETATM   18  C16 UNL     1      29.929  -0.724  53.509  1.00  0.00     0.003 C 
HETATM   19  C17 UNL     1      28.819  -1.710  53.199  1.00  0.00     0.030 C 
HETATM   20  C18 UNL     1      27.589  -0.910  52.883  1.00  0.00     0.272 C 
ENDBRANCH  14  15
ENDBRANCH  13  14
ENDBRANCH  12  13
ENDBRANCH  11  12
BRANCH   7  21
HETATM   21  N1  UNL     1      27.212   6.813  48.070  1.00  0.00    -0.242 NA
HETATM   22  C6  UNL     1      28.127   7.596  48.593  1.00  0.00     0.234 C 
BRANCH  22  23
HETATM   23  N2  UNL     1      28.977   8.724  48.508  1.00  0.00    -0.242 NA
HETATM   24  C7  UNL     1      28.947   9.570  49.501  1.00  0.00     0.202 C 
HETATM   25 CL1  UNL     1      30.144  10.472  48.612  1.00  0.00    -0.076 Cl
ENDBRANCH  22  23
ENDBRANCH   7  21
TORSDOF 6
ENDMDL
MODEL 3
REMARK VINA RESULT:      -7.4      3.316      6.510
REMARK  6 active torsions:
REMARK  status: ('A' for Active; 'I' for Inactive)
REMARK    1  A    between atoms: C5_7  and  N1_8 
REMARK    2  A    between atoms: C6_9  and  N2_10 
REMARK    3  A    between atoms: N3_16  and  C11_17 
REMARK    4  A    between atoms: C11_17  and  C12_18 
REMARK    5  A    between atoms: C12_18  and  C13_19 
REMARK    6  A    between atoms: C13_19  and  N4_20 
ROOT
HETATM    1  O1  UNL     1      25.609  -1.004  54.740  1.00  0.00    -0.271 OA
HETATM    2  C1  UNL     1      25.783  -0.328  53.719  1.00  0.00     0.248 C 
HETATM    3  C2  UNL     1      27.178  -0.014  53.324  1.00  0.00     0.279 C 
HETATM    4  O2  UNL     1      27.258   1.248  52.687  1.00  0.00    -0.340 OA
HETATM    5  C3  UNL     1      26.235   1.755  51.897  1.00  0.00     0.098 A 
HETATM    6  C4  UNL     1      26.398   2.793  50.973  1.00  0.00     0.070 A 
HETATM    7  C5  UNL     1      25.334   3.262  50.210  1.00  0.00     0.061 A 
HETATM    8  C8  UNL     1      24.076   2.713  50.340  1.00  0.00     0.034 A 
HETATM    9  C9  UNL     1      23.902   1.689  51.245  1.00  0.00     0.035 A 
HETATM   10  C10 UNL     1      24.958   1.205  52.022  1.00  0.00     0.070 A 
HETATM   11  N3  UNL     1      24.669   0.144  52.932  1.00  0.00    -0.314 N 
ENDROOT
BRANCH  11  12
HETATM   12  C11 UNL     1      23.382  -0.445  53.123  1.00  0.00     0.134 C 
BRANCH  12  13
HETATM   13  C12 UNL     1      22.387   0.459  53.833  1.00  0.00     0.050 C 
BRANCH  13  14
HETATM   14  C13 UNL     1      21.014  -0.142  53.705  1.00  0.00     0.274 C 
BRANCH  14  15
HETATM   15  N4  UNL     1      20.057   0.705  53.067  1.00  0.00     0.088 N 
HETATM   16  C14 UNL     1      19.612   0.196  51.784  1.00  0.00     0.272 C 
HETATM   17  C15 UNL     1      20.298   0.852  50.608  1.00  0.00     0.030 C 
HETATM   18  C16 UNL     1      20.176   2.345  50.596  1.00  0.00     0.003 C 
HETATM   19  C17 UNL     1      19.932   2.903  51.985  1.00  0.00     0.030 C 
HETATM   20  C18 UNL     1      20.661   2.019  52.954  1.00  0.00     0.272 C 
ENDBRANCH  14  15
ENDBRANCH  13  14
ENDBRANCH  12  13
ENDBRANCH  11  12
BRANCH   7  21
HETATM   21  N1  UNL     1      25.822   4.333  49.375  1.00  0.00    -0.242 NA
HETATM   22  C6  UNL     1      27.113   4.410  49.153  1.00  0.00     0.234 C 
BRANCH  22  23
HETATM   23  N2  UNL     1      28.222   5.047  48.549  1.00  0.00    -0.242 NA
HETATM   24  C7  UNL     1      28.081   6.300  48.214  1.00  0.00     0.202 C 
HETATM   25 CL1  UNL     1      29.724   6.207  47.639  1.00  0.00    -0.076 Cl
ENDBRANCH  22  23
ENDBRANCH   7  21
TORSDOF 6
ENDMDL
MODEL 4
REMARK VINA RESULT:      -7.3      4.326      6.299
REMARK  6 active torsions:
REMARK  status: ('A' for Active; 'I' for Inactive)
REMARK    1  A    between atoms: C5_7  and  N1_8 
REMARK    2  A    between atoms: C6_9  and  N2_10 
REMARK    3  A    between atoms: N3_16  and  C11_17 
REMARK    4  A    between atoms: C11_17  and  C12_18 
REMARK    5  A    between atoms: C12_18  and  C13_19 
REMARK    6  A    between atoms: C13_19  and  N4_20 
ROOT
HETATM    1  O1  UNL     1      25.863  -0.895  54.551  1.00  0.00    -0.271 OA
HETATM    2  C1  UNL     1      24.632  -0.784  54.584  1.00  0.00     0.248 C 
HETATM    3  C2  UNL     1      23.913  -1.367  55.743  1.00  0.00     0.279 C 
HETATM    4  O2  UNL     1      22.629  -1.831  55.368  1.00  0.00    -0.340 OA
HETATM    5  C3  UNL     1      21.870  -1.218  54.380  1.00  0.00     0.098 A 
HETATM    6  C4  UNL     1      20.490  -1.397  54.226  1.00  0.00     0.070 A 
HETATM    7  C5  UNL     1      19.782  -0.757  53.214  1.00  0.00     0.061 A 
HETATM    8  C8  UNL     1      20.421   0.081  52.327  1.00  0.00     0.034 A 
HETATM    9  C9  UNL     1      21.779   0.267  52.467  1.00  0.00     0.035 A 
HETATM   10  C10 UNL     1      22.508  -0.367  53.475  1.00  0.00     0.070 A 
HETATM   11  N3  UNL     1      23.911  -0.109  53.531  1.00  0.00    -0.314 N 
ENDROOT
BRANCH  11  12
HETATM   12  C11 UNL     1      24.627   0.731  52.624  1.00  0.00     0.134 C 
BRANCH  12  13
HETATM   13  C12 UNL     1      24.936   2.113  53.175  1.00  0.00     0.050 C 
BRANCH  13  14
HETATM   14  C13 UNL     1      24.201   3.135  52.351  1.00  0.00     0.274 C 
BRANCH  14  15
HETATM   15  N4  UNL     1      24.305   2.940  50.940  1.00  0.00     0.088 N 
HETATM   16  C14 UNL     1      25.330   3.760  50.326  1.00  0.00     0.272 C 
HETATM   17  C15 UNL     1      24.785   4.999  49.654  1.00  0.00     0.030 C 
HETATM   18  C16 UNL     1      23.729   4.715  48.631  1.00  0.00     0.003 C 
HETATM   19  C17 UNL     1      23.033   3.392  48.891  1.00  0.00     0.030 C 
HETATM   20  C18 UNL     1      22.991   3.195  50.378  1.00  0.00     0.272 C 
ENDBRANCH  14  15
ENDBRANCH  13  14
ENDBRANCH  12  13
ENDBRANCH  11  12
BRANCH   7  21
HETATM   21  N1  UNL     1      18.400  -1.158  53.317  1.00  0.00    -0.242 NA
HETATM   22  C6  UNL     1      18.134  -2.397  53.657  1.00  0.00     0.234 C 
BRANCH  22  23
HETATM   23  N2  UNL     1      17.202  -3.424  53.936  1.00  0.00    -0.242 NA
HETATM   24  C7  UNL     1      17.284  -4.514  53.223  1.00  0.00     0.202 C 
HETATM   25 CL1  UNL     1      15.932  -5.087  54.161  1.00  0.00    -0.076 Cl
ENDBRANCH  22  23
ENDBRANCH   7  21
TORSDOF 6
ENDMDL
MODEL 5
REMARK VINA RESULT:      -7.3      2.775      6.141
REMARK  6 active torsions:
REMARK  status: ('A' for Active; 'I' for Inactive)
REMARK    1  A    between atoms: C5_7  and  N1_8 
REMARK    2  A    between atoms: C6_9  and  N2_10 
REMARK    3  A    between atoms: N3_16  and  C11_17 
REMARK    4  A    between atoms: C11_17  and  C12_18 
REMARK    5  A    between atoms: C12_18  and  C13_19 
REMARK    6  A    between atoms: C13_19  and  N4_20 
ROOT
HETATM    1  O1  UNL     1      21.269  -0.214  52.189  1.00  0.00    -0.271 OA
HETATM    2  C1  UNL     1      21.887   0.753  51.727  1.00  0.00     0.248 C 
HETATM    3  C2  UNL     1      21.247   1.529  50.637  1.00  0.00     0.279 C 
HETATM    4  O2  UNL     1      22.214   2.055  49.747  1.00  0.00    -0.340 OA
HETATM    5  C3  UNL     1      23.479   2.450  50.162  1.00  0.00     0.098 A 
HETATM    6  C4  UNL     1      24.320   3.291  49.425  1.00  0.00     0.070 A 
HETATM    7  C5  UNL     1      25.580   3.651  49.892  1.00  0.00     0.061 A 
HETATM    8  C8  UNL     1      26.042   3.187  51.105  1.00  0.00     0.034 A 
HETATM    9  C9  UNL     1      25.223   2.359  51.841  1.00  0.00     0.035 A 
HETATM   10  C10 UNL     1      23.956   1.985  51.389  1.00  0.00     0.070 A 
HETATM   11  N3  UNL     1      23.190   1.120  52.228  1.00  0.00    -0.314 N 
ENDROOT
BRANCH  11  12
HETATM   12  C11 UNL     1      23.628   0.593  53.480  1.00  0.00     0.134 C 
BRANCH  12  13
HETATM   13  C12 UNL     1      24.316  -0.759  53.376  1.00  0.00     0.050 C 
BRANCH  13  14
HETATM   14  C13 UNL     1      25.537  -0.748  54.256  1.00  0.00     0.274 C 
BRANCH  14  15
HETATM   15  N4  UNL     1      26.649  -0.037  53.710  1.00  0.00     0.088 N 
HETATM   16  C14 UNL     1      27.349  -0.780  52.681  1.00  0.00     0.272 C 
HETATM   17  C15 UNL     1      28.608  -1.453  53.177  1.00  0.00     0.030 C 
HETATM   18  C16 UNL     1      29.576  -0.515  53.829  1.00  0.00     0.003 C 
HETATM   19  C17 UNL     1      28.887   0.724  54.368  1.00  0.00     0.030 C 
HETATM   20  C18 UNL     1      27.516   0.310  54.820  1.00  0.00     0.272 C 
ENDBRANCH  14  15
ENDBRANCH  13  14
ENDBRANCH  12  13
ENDBRANCH  11  12
BRANCH   7  21
HETATM   21  N1  UNL     1      26.193   4.505  48.904  1.00  0.00    -0.242 NA
HETATM   22  C6  UNL     1      27.502   4.592  48.883  1.00  0.00     0.234 C 
BRANCH  22  23
HETATM   23  N2  UNL     1      28.692   5.116  48.326  1.00  0.00    -0.242 NA
HETATM   24  C7  UNL     1      28.718   6.395  48.070  1.00  0.00     0.202 C 
HETATM   25 CL1  UNL     1      30.342   6.127  47.499  1.00  0.00    -0.076 Cl
ENDBRANCH  22  23
ENDBRANCH   7  21
TORSDOF 6
ENDMDL
MODEL 6
REMARK VINA RESULT:      -7.3      4.161      7.012
REMARK  6 active torsions:
REMARK  status: ('A' for Active; 'I' for Inactive)
REMARK    1  A    between atoms: C5_7  and  N1_8 
REMARK    2  A    between atoms: C6_9  and  N2_10 
REMARK    3  A    between atoms: N3_16  and  C11_17 
REMARK    4  A    between atoms: C11_17  and  C12_18 
REMARK    5  A    between atoms: C12_18  and  C13_19 
REMARK    6  A    between atoms: C13_19  and  N4_20 
ROOT
HETATM    1  O1  UNL     1      23.949   3.386  50.885  1.00  0.00    -0.271 OA
HETATM    2  C1  UNL     1      23.113   2.488  51.039  1.00  0.00     0.248 C 
HETATM    3  C2  UNL     1      22.192   2.198  49.913  1.00  0.00     0.279 C 
HETATM    4  O2  UNL     1      20.929   1.765  50.384  1.00  0.00    -0.340 OA
HETATM    5  C3  UNL     1      20.777   1.024  51.549  1.00  0.00     0.098 A 
HETATM    6  C4  UNL     1      19.635   0.277  51.860  1.00  0.00     0.070 A 
HETATM    7  C5  UNL     1      19.539  -0.444  53.046  1.00  0.00     0.061 A 
HETATM    8  C8  UNL     1      20.574  -0.446  53.957  1.00  0.00     0.034 A 
HETATM    9  C9  UNL     1      21.704   0.285  53.662  1.00  0.00     0.035 A 
HETATM   10  C10 UNL     1      21.819   1.016  52.478  1.00  0.00     0.070 A 
HETATM   11  N3  UNL     1      23.031   1.742  52.272  1.00  0.00    -0.314 N 
ENDROOT
BRANCH  11  12
HETATM   12  C11 UNL     1      24.123   1.793  53.190  1.00  0.00     0.134 C 
BRANCH  12  13
HETATM   13  C12 UNL     1      25.317   0.946  52.780  1.00  0.00     0.050 C 
BRANCH  13  14
HETATM   14  C13 UNL     1      26.473   1.271  53.686  1.00  0.00     0.274 C 
BRANCH  14  15
HETATM   15  N4  UNL     1      27.212   0.132  54.129  1.00  0.00     0.088 N 
HETATM   16  C14 UNL     1      28.463   0.481  54.774  1.00  0.00     0.272 C 
HETATM   17  C15 UNL     1      29.665   0.340  53.870  1.00  0.00     0.030 C 
HETATM   18  C16 UNL     1      29.806  -1.023  53.265  1.00  0.00     0.003 C 
HETATM   19  C17 UNL     1      28.478  -1.753  53.199  1.00  0.00     0.030 C 
HETATM   20  C18 UNL     1      27.413  -0.720  52.972  1.00  0.00     0.272 C 
ENDBRANCH  14  15
ENDBRANCH  13  14
ENDBRANCH  12  13
ENDBRANCH  11  12
BRANCH   7  21
HETATM   21  N1  UNL     1      18.248  -1.086  53.073  1.00  0.00    -0.242 NA
HETATM   22  C6  UNL     1      18.170  -2.311  53.538  1.00  0.00     0.234 C 
BRANCH  22  23
HETATM   23  N2  UNL     1      17.411  -3.461  53.857  1.00  0.00    -0.242 NA
HETATM   24  C7  UNL     1      16.327  -3.671  53.163  1.00  0.00     0.202 C 
HETATM   25 CL1  UNL     1      16.119  -5.097  54.143  1.00  0.00    -0.076 Cl
ENDBRANCH  22  23
ENDBRANCH   7  21
TORSDOF 6
ENDMDL
MODEL 7
REMARK VINA RESULT:      -7.3      3.506      6.595
REMARK  6 active torsions:
REMARK  status: ('A' for Active; 'I' for Inactive)
REMARK    1  A    between atoms: C5_7  and  N1_8 
REMARK    2  A    between atoms: C6_9  and  N2_10 
REMARK    3  A    between atoms: N3_16  and  C11_17 
REMARK    4  A    between atoms: C11_17  and  C12_18 
REMARK    5  A    between atoms: C12_18  and  C13_19 
REMARK    6  A    between atoms: C13_19  and  N4_20 
ROOT
HETATM    1  O1  UNL     1      21.978   6.266  51.248  1.00  0.00    -0.271 OA
HETATM    2  C1  UNL     1      23.170   6.348  50.928  1.00  0.00     0.248 C 
HETATM    3  C2  UNL     1      23.760   7.701  50.791  1.00  0.00     0.279 C 
HETATM    4  O2  UNL     1      24.764   7.723  49.792  1.00  0.00    -0.340 OA
HETATM    5  C3  UNL     1      25.583   6.633  49.530  1.00  0.00     0.098 A 
HETATM    6  C4  UNL     1      26.795   6.712  48.835  1.00  0.00     0.070 A 
HETATM    7  C5  UNL     1      27.573   5.583  48.598  1.00  0.00     0.061 A 
HETATM    8  C8  UNL     1      27.172   4.343  49.046  1.00  0.00     0.034 A 
HETATM    9  C9  UNL     1      25.980   4.251  49.732  1.00  0.00     0.035 A 
HETATM   10  C10 UNL     1      25.184   5.372  49.978  1.00  0.00     0.070 A 
HETATM   11  N3  UNL     1      23.967   5.167  50.695  1.00  0.00    -0.314 N 
ENDROOT
BRANCH  11  12
HETATM   12  C11 UNL     1      23.493   3.903  51.160  1.00  0.00     0.134 C 
BRANCH  12  13
HETATM   13  C12 UNL     1      23.835   3.611  52.612  1.00  0.00     0.050 C 
BRANCH  13  14
HETATM   14  C13 UNL     1      23.642   2.140  52.866  1.00  0.00     0.274 C 
BRANCH  14  15
HETATM   15  N4  UNL     1      24.797   1.475  53.381  1.00  0.00     0.088 N 
HETATM   16  C14 UNL     1      26.036   1.952  52.799  1.00  0.00     0.272 C 
HETATM   17  C15 UNL     1      26.570   1.055  51.707  1.00  0.00     0.030 C 
HETATM   18  C16 UNL     1      26.762  -0.367  52.135  1.00  0.00     0.003 C 
HETATM   19  C17 UNL     1      25.873  -0.729  53.309  1.00  0.00     0.030 C 
HETATM   20  C18 UNL     1      24.600   0.054  53.162  1.00  0.00     0.272 C 
ENDBRANCH  14  15
ENDBRANCH  13  14
ENDBRANCH  12  13
ENDBRANCH  11  12
BRANCH   7  21
HETATM   21  N1  UNL     1      28.739   5.994  47.854  1.00  0.00    -0.242 NA
HETATM   22  C6  UNL     1      29.917   5.855  48.416  1.00  0.00     0.234 C 
BRANCH  22  23
HETATM   23  N2  UNL     1      31.324   5.988  48.373  1.00  0.00    -0.242 NA
HETATM   24  C7  UNL     1      32.017   4.918  48.093  1.00  0.00     0.202 C 
HETATM   25 CL1  UNL     1      33.425   5.933  48.253  1.00  0.00    -0.076 Cl
ENDBRANCH  22  23
ENDBRANCH   7  21
TORSDOF 6
ENDMDL
MODEL 8
REMARK VINA RESULT:      -7.1      2.465      3.615
REMARK  6 active torsions:
REMARK  status: ('A' for Active; 'I' for Inactive)
REMARK    1  A    between atoms: C5_7  and  N1_8 
REMARK    2  A    between atoms: C6_9  and  N2_10 
REMARK    3  A    between atoms: N3_16  and  C11_17 
REMARK    4  A    between atoms: C11_17  and  C12_18 
REMARK    5  A    between atoms: C12_18  and  C13_19 
REMARK    6  A    between atoms: C13_19  and  N4_20 
ROOT
HETATM    1  O1  UNL     1      21.340   4.667  51.331  1.00  0.00    -0.271 OA
HETATM    2  C1  UNL     1      22.044   3.911  52.012  1.00  0.00     0.248 C 
HETATM    3  C2  UNL     1      23.405   4.371  52.377  1.00  0.00     0.279 C 
HETATM    4  O2  UNL     1      24.307   3.282  52.467  1.00  0.00    -0.340 OA
HETATM    5  C3  UNL     1      23.916   2.020  52.894  1.00  0.00     0.098 A 
HETATM    6  C4  UNL     1      24.804   1.034  53.341  1.00  0.00     0.070 A 
HETATM    7  C5  UNL     1      24.354  -0.215  53.755  1.00  0.00     0.061 A 
HETATM    8  C8  UNL     1      23.011  -0.523  53.738  1.00  0.00     0.034 A 
HETATM    9  C9  UNL     1      22.126   0.438  53.301  1.00  0.00     0.035 A 
HETATM   10  C10 UNL     1      22.558   1.698  52.880  1.00  0.00     0.070 A 
HETATM   11  N3  UNL     1      21.560   2.620  52.442  1.00  0.00    -0.314 N 
ENDROOT
BRANCH  11  12
HETATM   12  C11 UNL     1      20.160   2.346  52.382  1.00  0.00     0.134 C 
BRANCH  12  13
HETATM   13  C12 UNL     1      19.760   1.410  51.253  1.00  0.00     0.050 C 
BRANCH  13  14
HETATM   14  C13 UNL     1      19.277   2.234  50.092  1.00  0.00     0.274 C 
BRANCH  14  15
HETATM   15  N4  UNL     1      19.954   1.974  48.861  1.00  0.00     0.088 N 
HETATM   16  C14 UNL     1      21.134   1.148  49.025  1.00  0.00     0.272 C 
HETATM   17  C15 UNL     1      22.422   1.937  49.040  1.00  0.00     0.030 C 
HETATM   18  C16 UNL     1      22.612   2.803  47.832  1.00  0.00     0.003 C 
HETATM   19  C17 UNL     1      21.291   3.155  47.177  1.00  0.00     0.030 C 
HETATM   20  C18 UNL     1      20.266   3.261  48.268  1.00  0.00     0.272 C 
ENDBRANCH  14  15
ENDBRANCH  13  14
ENDBRANCH  12  13
ENDBRANCH  11  12
BRANCH   7  21
HETATM   21  N1  UNL     1      25.504  -0.997  54.139  1.00  0.00    -0.242 NA
HETATM   22  C6  UNL     1      26.691  -0.588  53.757  1.00  0.00     0.234 C 
BRANCH  22  23
HETATM   23  N2  UNL     1      28.095  -0.750  53.719  1.00  0.00    -0.242 NA
HETATM   24  C7  UNL     1      28.814   0.322  53.526  1.00  0.00     0.202 C 
HETATM   25 CL1  UNL     1      30.198  -0.734  53.622  1.00  0.00    -0.076 Cl
ENDBRANCH  22  23
ENDBRANCH   7  21
TORSDOF 6
ENDMDL
MODEL 9
REMARK VINA RESULT:      -7.0      3.117      6.332
REMARK  6 active torsions:
REMARK  status: ('A' for Active; 'I' for Inactive)
REMARK    1  A    between atoms: C5_7  and  N1_8 
REMARK    2  A    between atoms: C6_9  and  N2_10 
REMARK    3  A    between atoms: N3_16  and  C11_17 
REMARK    4  A    between atoms: C11_17  and  C12_18 
REMARK    5  A    between atoms: C12_18  and  C13_19 
REMARK    6  A    between atoms: C13_19  and  N4_20 
ROOT
HETATM    1  O1  UNL     1      21.046   3.019  52.283  1.00  0.00    -0.271 OA
HETATM    2  C1  UNL     1      22.097   3.483  51.825  1.00  0.00     0.248 C 
HETATM    3  C2  UNL     1      22.006   4.695  50.975  1.00  0.00     0.279 C 
HETATM    4  O2  UNL     1      23.015   4.699  49.981  1.00  0.00    -0.340 OA
HETATM    5  C3  UNL     1      24.273   4.149  50.188  1.00  0.00     0.098 A 
HETATM    6  C4  UNL     1      25.395   4.441  49.404  1.00  0.00     0.070 A 
HETATM    7  C5  UNL     1      26.632   3.855  49.658  1.00  0.00     0.061 A 
HETATM    8  C8  UNL     1      26.791   2.966  50.698  1.00  0.00     0.034 A 
HETATM    9  C9  UNL     1      25.695   2.671  51.478  1.00  0.00     0.035 A 
HETATM   10  C10 UNL     1      24.445   3.246  51.239  1.00  0.00     0.070 A 
HETATM   11  N3  UNL     1      23.374   2.870  52.104  1.00  0.00    -0.314 N 
ENDROOT
BRANCH  11  12
HETATM   12  C11 UNL     1      23.477   1.938  53.181  1.00  0.00     0.134 C 
BRANCH  12  13
HETATM   13  C12 UNL     1      23.705   0.502  52.736  1.00  0.00     0.050 C 
BRANCH  13  14
HETATM   14  C13 UNL     1      23.929  -0.350  53.955  1.00  0.00     0.274 C 
BRANCH  14  15
HETATM   15  N4  UNL     1      25.253  -0.873  54.074  1.00  0.00     0.088 N 
HETATM   16  C14 UNL     1      26.081  -0.120  54.995  1.00  0.00     0.272 C 
HETATM   17  C15 UNL     1      27.016   0.848  54.308  1.00  0.00     0.030 C 
HETATM   18  C16 UNL     1      27.903   0.207  53.286  1.00  0.00     0.003 C 
HETATM   19  C17 UNL     1      27.308  -1.081  52.749  1.00  0.00     0.030 C 
HETATM   20  C18 UNL     1      25.816  -0.910  52.738  1.00  0.00     0.272 C 
ENDBRANCH  14  15
ENDBRANCH  13  14
ENDBRANCH  12  13
ENDBRANCH  11  12
BRANCH   7  21
HETATM   21  N1  UNL     1      27.567   4.346  48.675  1.00  0.00    -0.242 NA
HETATM   22  C6  UNL     1      27.676   5.644  48.513  1.00  0.00     0.234 C 
BRANCH  22  23
HETATM   23  N2  UNL     1      28.261   6.759  47.869  1.00  0.00    -0.242 NA
HETATM   24  C7  UNL     1      29.563   6.796  47.804  1.00  0.00     0.202 C 
HETATM   25 CL1  UNL     1      29.360   8.310  46.965  1.00  0.00    -0.076 Cl
ENDBRANCH  22  23
ENDBRANCH   7  21
TORSDOF 6
ENDMDL
