MODEL 1
REMARK VINA RESULT:      -7.9      0.000      0.000
REMARK  1 active torsions:
REMARK  status: ('A' for Active; 'I' for Inactive)
REMARK    1  A    between atoms: O1_2  and  C2_3 
ROOT
HETATM    1  C2  UNL     1      22.276   2.125  48.472  1.00  0.00     0.075 A 
HETATM    2  C3  UNL     1      21.404   1.087  48.741  1.00  0.00     0.040 A 
HETATM    3  C4  UNL     1      21.035   0.619  49.981  1.00  0.00     0.041 A 
HETATM    4  C5  UNL     1      21.602   1.269  51.102  1.00  0.00     0.086 A 
HETATM    5  C6  UNL     1      22.482   2.345  50.760  1.00  0.00     0.002 A 
HETATM    6  C7  UNL     1      22.865   2.803  49.519  1.00  0.00    -0.014 A 
HETATM    7  C8  UNL     1      24.078   3.724  49.293  1.00  0.00     0.042 C 
HETATM    8  C9  UNL     1      25.080   3.166  50.220  1.00  0.00     0.006 C 
HETATM    9  C10 UNL     1      26.536   3.324  50.294  1.00  0.00     0.020 C 
HETATM   10  C11 UNL     1      26.911   2.398  51.473  1.00  0.00     0.121 C 
HETATM   11  N1  UNL     1      26.208   2.601  52.722  1.00  0.00    -0.373 N 
HETATM   12  C12 UNL     1      25.303   1.549  53.169  1.00  0.00     0.155 A 
HETATM   13  N2  UNL     1      25.674   0.427  53.760  1.00  0.00    -0.222 NA
HETATM   14  C13 UNL     1      24.711  -0.524  53.993  1.00  0.00     0.238 A 
HETATM   15  N3  UNL     1      23.391  -0.567  53.733  1.00  0.00    -0.215 NA
HETATM   16  C14 UNL     1      22.795   0.518  53.108  1.00  0.00     0.202 A 
HETATM   17  C15 UNL     1      23.951   1.347  52.981  1.00  0.00     0.128 A 
HETATM   18  N4  UNL     1      23.686   2.788  52.831  1.00  0.00    -0.379 N 
HETATM   19  C16 UNL     1      22.822   3.346  51.870  1.00  0.00     0.162 C 
HETATM   20  O2  UNL     1      21.472   1.006  52.573  1.00  0.00    -0.289 OA
HETATM   21  H14 UNL     1      25.942   3.115  53.583  1.00  0.00     0.161 HD
HETATM   22  H16 UNL     1      24.005   3.677  53.336  1.00  0.00     0.160 HD
ENDROOT
BRANCH   1  23
HETATM   23  O1  UNL     1      22.532   2.450  47.168  1.00  0.00    -0.355 OA
HETATM   24  C1  UNL     1      21.855   3.359  46.361  1.00  0.00     0.210 C 
ENDBRANCH   1  23
TORSDOF 1
ENDMDL
MODEL 2
REMARK VINA RESULT:      -7.6      3.308      5.563
REMARK  1 active torsions:
REMARK  status: ('A' for Active; 'I' for Inactive)
REMARK    1  A    between atoms: O1_2  and  C2_3 
ROOT
HETATM    1  C2  UNL     1      26.254   2.467  51.899  1.00  0.00     0.075 A 
HETATM    2  C3  UNL     1      25.349   2.363  52.939  1.00  0.00     0.040 A 
HETATM    3  C4  UNL     1      24.003   2.647  52.892  1.00  0.00     0.041 A 
HETATM    4  C5  UNL     1      23.488   3.088  51.651  1.00  0.00     0.086 A 
HETATM    5  C6  UNL     1      24.469   3.157  50.611  1.00  0.00     0.002 A 
HETATM    6  C7  UNL     1      25.819   2.890  50.661  1.00  0.00    -0.014 A 
HETATM    7  C8  UNL     1      26.813   3.343  49.576  1.00  0.00     0.042 C 
HETATM    8  C9  UNL     1      26.336   4.700  49.252  1.00  0.00     0.006 C 
HETATM    9  C10 UNL     1      26.983   5.824  48.568  1.00  0.00     0.020 C 
HETATM   10  C11 UNL     1      25.908   6.931  48.655  1.00  0.00     0.121 C 
HETATM   11  N1  UNL     1      24.582   6.602  48.177  1.00  0.00    -0.373 N 
HETATM   12  C12 UNL     1      23.506   6.528  49.159  1.00  0.00     0.155 A 
HETATM   13  N2  UNL     1      22.874   7.568  49.674  1.00  0.00    -0.222 NA
HETATM   14  C13 UNL     1      21.981   7.336  50.691  1.00  0.00     0.238 A 
HETATM   15  N3  UNL     1      21.585   6.212  51.317  1.00  0.00    -0.215 NA
HETATM   16  C14 UNL     1      22.132   4.999  50.928  1.00  0.00     0.202 A 
HETATM   17  C15 UNL     1      22.992   5.480  49.894  1.00  0.00     0.128 A 
HETATM   18  N4  UNL     1      23.384   4.486  48.880  1.00  0.00    -0.379 N 
HETATM   19  C16 UNL     1      23.952   3.231  49.170  1.00  0.00     0.162 C 
HETATM   20  O2  UNL     1      22.110   3.525  51.246  1.00  0.00    -0.289 OA
HETATM   21  H14 UNL     1      23.868   6.362  47.463  1.00  0.00     0.161 HD
HETATM   22  H16 UNL     1      23.340   4.431  47.812  1.00  0.00     0.160 HD
ENDROOT
BRANCH   1  23
HETATM   23  O1  UNL     1      27.564   2.147  52.132  1.00  0.00    -0.355 OA
HETATM   24  C1  UNL     1      28.282   2.277  53.317  1.00  0.00     0.210 C 
ENDBRANCH   1  23
TORSDOF 1
ENDMDL
MODEL 3
REMARK VINA RESULT:      -7.5      1.359      1.695
REMARK  1 active torsions:
REMARK  status: ('A' for Active; 'I' for Inactive)
REMARK    1  A    between atoms: O1_2  and  C2_3 
ROOT
HETATM    1  C2  UNL     1      21.397   2.000  49.618  1.00  0.00     0.075 A 
HETATM    2  C3  UNL     1      21.008   0.785  50.151  1.00  0.00     0.040 A 
HETATM    3  C4  UNL     1      21.435   0.228  51.335  1.00  0.00     0.041 A 
HETATM    4  C5  UNL     1      22.367   0.976  52.091  1.00  0.00     0.086 A 
HETATM    5  C6  UNL     1      22.717   2.231  51.497  1.00  0.00     0.002 A 
HETATM    6  C7  UNL     1      22.303   2.781  50.304  1.00  0.00    -0.014 A 
HETATM    7  C8  UNL     1      23.020   3.960  49.621  1.00  0.00     0.042 C 
HETATM    8  C9  UNL     1      24.442   3.636  49.835  1.00  0.00     0.006 C 
HETATM    9  C10 UNL     1      25.663   4.124  49.185  1.00  0.00     0.020 C 
HETATM   10  C11 UNL     1      26.765   3.294  49.880  1.00  0.00     0.121 C 
HETATM   11  N1  UNL     1      26.792   3.313  51.327  1.00  0.00    -0.373 N 
HETATM   12  C12 UNL     1      26.471   2.074  52.028  1.00  0.00     0.155 A 
HETATM   13  N2  UNL     1      27.301   1.060  52.198  1.00  0.00    -0.222 NA
HETATM   14  C13 UNL     1      26.801  -0.090  52.758  1.00  0.00     0.238 A 
HETATM   15  N3  UNL     1      25.576  -0.432  53.195  1.00  0.00    -0.215 NA
HETATM   16  C14 UNL     1      24.548   0.494  53.104  1.00  0.00     0.202 A 
HETATM   17  C15 UNL     1      25.286   1.569  52.522  1.00  0.00     0.128 A 
HETATM   18  N4  UNL     1      24.713   2.912  52.716  1.00  0.00    -0.379 N 
HETATM   19  C16 UNL     1      23.388   3.268  52.404  1.00  0.00     0.162 C 
HETATM   20  O2  UNL     1      23.075   0.671  53.378  1.00  0.00    -0.289 OA
HETATM   21  H14 UNL     1      26.921   3.740  52.264  1.00  0.00     0.161 HD
HETATM   22  H16 UNL     1      25.073   3.843  53.104  1.00  0.00     0.160 HD
ENDROOT
BRANCH   1  23
HETATM   23  O1  UNL     1      20.869   2.392  48.419  1.00  0.00    -0.355 OA
HETATM   24  C1  UNL     1      19.583   2.855  48.157  1.00  0.00     0.210 C 
ENDBRANCH   1  23
TORSDOF 1
ENDMDL
MODEL 4
REMARK VINA RESULT:      -7.2      7.868     10.941
REMARK  1 active torsions:
REMARK  status: ('A' for Active; 'I' for Inactive)
REMARK    1  A    between atoms: O1_2  and  C2_3 
ROOT
HETATM    1  C2  UNL     1      32.512   6.173  46.115  1.00  0.00     0.075 A 
HETATM    2  C3  UNL     1      32.993   7.299  45.474  1.00  0.00     0.040 A 
HETATM    3  C4  UNL     1      32.904   8.600  45.913  1.00  0.00     0.041 A 
HETATM    4  C5  UNL     1      32.258   8.811  47.154  1.00  0.00     0.086 A 
HETATM    5  C6  UNL     1      31.800   7.607  47.777  1.00  0.00     0.002 A 
HETATM    6  C7  UNL     1      31.873   6.306  47.330  1.00  0.00    -0.014 A 
HETATM    7  C8  UNL     1      31.033   5.159  47.922  1.00  0.00     0.042 C 
HETATM    8  C9  UNL     1      29.722   5.798  48.134  1.00  0.00     0.006 C 
HETATM    9  C10 UNL     1      28.385   5.236  48.349  1.00  0.00     0.020 C 
HETATM   10  C11 UNL     1      27.500   6.500  48.426  1.00  0.00     0.121 C 
HETATM   11  N1  UNL     1      27.893   7.525  49.369  1.00  0.00    -0.373 N 
HETATM   12  C12 UNL     1      28.355   8.799  48.832  1.00  0.00     0.155 A 
HETATM   13  N2  UNL     1      27.573   9.762  48.377  1.00  0.00    -0.222 NA
HETATM   14  C13 UNL     1      28.169  10.842  47.775  1.00  0.00     0.238 A 
HETATM   15  N3  UNL     1      29.454  11.154  47.530  1.00  0.00    -0.215 NA
HETATM   16  C14 UNL     1      30.446  10.271  47.928  1.00  0.00     0.202 A 
HETATM   17  C15 UNL     1      29.612   9.270  48.512  1.00  0.00     0.128 A 
HETATM   18  N4  UNL     1      30.267   8.394  49.499  1.00  0.00    -0.379 N 
HETATM   19  C16 UNL     1      31.458   7.681  49.269  1.00  0.00     0.162 C 
HETATM   20  O2  UNL     1      31.941  10.069  47.907  1.00  0.00    -0.289 OA
HETATM   21  H14 UNL     1      28.056   7.929  50.310  1.00  0.00     0.161 HD
HETATM   22  H16 UNL     1      30.070   8.110  50.513  1.00  0.00     0.160 HD
ENDROOT
BRANCH   1  23
HETATM   23  O1  UNL     1      32.686   4.953  45.522  1.00  0.00    -0.355 OA
HETATM   24  C1  UNL     1      33.165   4.680  44.244  1.00  0.00     0.210 C 
ENDBRANCH   1  23
TORSDOF 1
ENDMDL
MODEL 5
REMARK VINA RESULT:      -7.2      2.506      5.728
REMARK  1 active torsions:
REMARK  status: ('A' for Active; 'I' for Inactive)
REMARK    1  A    between atoms: O1_2  and  C2_3 
ROOT
HETATM    1  C2  UNL     1      25.679   0.268  52.521  1.00  0.00     0.075 A 
HETATM    2  C3  UNL     1      26.673   0.859  51.763  1.00  0.00     0.040 A 
HETATM    3  C4  UNL     1      26.632   2.101  51.173  1.00  0.00     0.041 A 
HETATM    4  C5  UNL     1      25.453   2.858  51.361  1.00  0.00     0.086 A 
HETATM    5  C6  UNL     1      24.469   2.202  52.168  1.00  0.00     0.002 A 
HETATM    6  C7  UNL     1      24.502   0.952  52.745  1.00  0.00    -0.014 A 
HETATM    7  C8  UNL     1      23.250   0.234  53.281  1.00  0.00     0.042 C 
HETATM    8  C9  UNL     1      22.236   0.553  52.260  1.00  0.00     0.006 C 
HETATM    9  C10 UNL     1      20.939  -0.055  51.949  1.00  0.00     0.020 C 
HETATM   10  C11 UNL     1      20.474   0.759  50.721  1.00  0.00     0.121 C 
HETATM   11  N1  UNL     1      20.460   2.201  50.851  1.00  0.00    -0.373 N 
HETATM   12  C12 UNL     1      21.412   2.963  50.052  1.00  0.00     0.155 A 
HETATM   13  N2  UNL     1      21.271   3.251  48.771  1.00  0.00    -0.222 NA
HETATM   14  C13 UNL     1      22.323   3.857  48.130  1.00  0.00     0.238 A 
HETATM   15  N3  UNL     1      23.543   4.244  48.546  1.00  0.00    -0.215 NA
HETATM   16  C14 UNL     1      23.899   4.029  49.868  1.00  0.00     0.202 A 
HETATM   17  C15 UNL     1      22.687   3.420  50.315  1.00  0.00     0.128 A 
HETATM   18  N4  UNL     1      22.439   3.488  51.765  1.00  0.00    -0.379 N 
HETATM   19  C16 UNL     1      23.353   3.074  52.753  1.00  0.00     0.162 C 
HETATM   20  O2  UNL     1      25.042   4.203  50.838  1.00  0.00    -0.289 OA
HETATM   21  H14 UNL     1      20.131   3.112  51.223  1.00  0.00     0.161 HD
HETATM   22  H16 UNL     1      21.636   3.831  52.384  1.00  0.00     0.160 HD
ENDROOT
BRANCH   1  23
HETATM   23  O1  UNL     1      25.893  -0.984  53.027  1.00  0.00    -0.355 OA
HETATM   24  C1  UNL     1      26.750  -1.969  52.547  1.00  0.00     0.210 C 
ENDBRANCH   1  23
TORSDOF 1
ENDMDL
MODEL 6
REMARK VINA RESULT:      -7.2      2.364      5.299
REMARK  1 active torsions:
REMARK  status: ('A' for Active; 'I' for Inactive)
REMARK    1  A    between atoms: O1_2  and  C2_3 
ROOT
HETATM    1  C2  UNL     1      26.655   2.450  51.722  1.00  0.00     0.075 A 
HETATM    2  C3  UNL     1      26.805   2.988  50.457  1.00  0.00     0.040 A 
HETATM    3  C4  UNL     1      25.832   3.597  49.699  1.00  0.00     0.041 A 
HETATM    4  C5  UNL     1      24.542   3.689  50.271  1.00  0.00     0.086 A 
HETATM    5  C6  UNL     1      24.455   3.132  51.587  1.00  0.00     0.002 A 
HETATM    6  C7  UNL     1      25.424   2.507  52.340  1.00  0.00    -0.014 A 
HETATM    7  C8  UNL     1      25.111   1.647  53.578  1.00  0.00     0.042 C 
HETATM    8  C9  UNL     1      23.906   0.908  53.158  1.00  0.00     0.006 C 
HETATM    9  C10 UNL     1      23.270  -0.303  53.686  1.00  0.00     0.020 C 
HETATM   10  C11 UNL     1      22.095  -0.517  52.705  1.00  0.00     0.121 C 
HETATM   11  N1  UNL     1      21.202   0.601  52.491  1.00  0.00    -0.373 N 
HETATM   12  C12 UNL     1      21.200   1.226  51.173  1.00  0.00     0.155 A 
HETATM   13  N2  UNL     1      20.581   0.750  50.107  1.00  0.00    -0.222 NA
HETATM   14  C13 UNL     1      20.793   1.383  48.907  1.00  0.00     0.238 A 
HETATM   15  N3  UNL     1      21.541   2.445  48.556  1.00  0.00    -0.215 NA
HETATM   16  C14 UNL     1      22.280   3.095  49.533  1.00  0.00     0.202 A 
HETATM   17  C15 UNL     1      21.904   2.291  50.651  1.00  0.00     0.128 A 
HETATM   18  N4  UNL     1      22.057   2.926  51.971  1.00  0.00    -0.379 N 
HETATM   19  C16 UNL     1      23.241   3.532  52.434  1.00  0.00     0.162 C 
HETATM   20  O2  UNL     1      23.251   4.232  49.732  1.00  0.00    -0.289 OA
HETATM   21  H14 UNL     1      20.479   1.297  52.757  1.00  0.00     0.161 HD
HETATM   22  H16 UNL     1      21.416   3.100  52.811  1.00  0.00     0.160 HD
ENDROOT
BRANCH   1  23
HETATM   23  O1  UNL     1      27.739   1.874  52.325  1.00  0.00    -0.355 OA
HETATM   24  C1  UNL     1      28.504   2.374  53.374  1.00  0.00     0.210 C 
ENDBRANCH   1  23
TORSDOF 1
ENDMDL
MODEL 7
REMARK VINA RESULT:      -7.1      2.903      4.784
REMARK  1 active torsions:
REMARK  status: ('A' for Active; 'I' for Inactive)
REMARK    1  A    between atoms: O1_2  and  C2_3 
ROOT
HETATM    1  C2  UNL     1      25.708   6.616  48.464  1.00  0.00     0.075 A 
HETATM    2  C3  UNL     1      27.051   6.290  48.494  1.00  0.00     0.040 A 
HETATM    3  C4  UNL     1      27.598   5.075  48.840  1.00  0.00     0.041 A 
HETATM    4  C5  UNL     1      26.694   4.049  49.201  1.00  0.00     0.086 A 
HETATM    5  C6  UNL     1      25.319   4.442  49.133  1.00  0.00     0.002 A 
HETATM    6  C7  UNL     1      24.772   5.662  48.803  1.00  0.00    -0.014 A 
HETATM    7  C8  UNL     1      23.314   6.047  49.113  1.00  0.00     0.042 C 
HETATM    8  C9  UNL     1      23.113   5.484  50.460  1.00  0.00     0.006 C 
HETATM    9  C10 UNL     1      22.102   5.749  51.489  1.00  0.00     0.020 C 
HETATM   10  C11 UNL     1      22.563   4.842  52.651  1.00  0.00     0.121 C 
HETATM   11  N1  UNL     1      22.780   3.443  52.351  1.00  0.00    -0.373 N 
HETATM   12  C12 UNL     1      24.147   2.939  52.414  1.00  0.00     0.155 A 
HETATM   13  N2  UNL     1      24.790   2.622  53.524  1.00  0.00    -0.222 NA
HETATM   14  C13 UNL     1      26.119   2.295  53.423  1.00  0.00     0.238 A 
HETATM   15  N3  UNL     1      26.964   2.226  52.378  1.00  0.00    -0.215 NA
HETATM   16  C14 UNL     1      26.488   2.525  51.111  1.00  0.00     0.202 A 
HETATM   17  C15 UNL     1      25.134   2.814  51.459  1.00  0.00     0.128 A 
HETATM   18  N4  UNL     1      24.156   2.690  50.364  1.00  0.00    -0.379 N 
HETATM   19  C16 UNL     1      24.275   3.320  49.111  1.00  0.00     0.162 C 
HETATM   20  O2  UNL     1      26.924   2.643  49.671  1.00  0.00    -0.289 OA
HETATM   21  H14 UNL     1      22.499   2.479  52.088  1.00  0.00     0.161 HD
HETATM   22  H16 UNL     1      23.237   2.159  50.222  1.00  0.00     0.160 HD
ENDROOT
BRANCH   1  23
HETATM   23  O1  UNL     1      25.347   7.883  48.099  1.00  0.00    -0.355 OA
HETATM   24  C1  UNL     1      25.285   8.423  46.817  1.00  0.00     0.210 C 
ENDBRANCH   1  23
TORSDOF 1
ENDMDL
MODEL 8
REMARK VINA RESULT:      -6.9      2.863      6.137
REMARK  1 active torsions:
REMARK  status: ('A' for Active; 'I' for Inactive)
REMARK    1  A    between atoms: O1_2  and  C2_3 
ROOT
HETATM    1  C2  UNL     1      22.923  -0.073  53.598  1.00  0.00     0.075 A 
HETATM    2  C3  UNL     1      24.198   0.061  53.082  1.00  0.00     0.040 A 
HETATM    3  C4  UNL     1      24.641   1.037  52.219  1.00  0.00     0.041 A 
HETATM    4  C5  UNL     1      23.696   2.009  51.818  1.00  0.00     0.086 A 
HETATM    5  C6  UNL     1      22.400   1.828  52.399  1.00  0.00     0.002 A 
HETATM    6  C7  UNL     1      21.952   0.842  53.250  1.00  0.00    -0.014 A 
HETATM    7  C8  UNL     1      20.460   0.563  53.512  1.00  0.00     0.042 C 
HETATM    8  C9  UNL     1      19.866   0.714  52.172  1.00  0.00     0.006 C 
HETATM    9  C10 UNL     1      18.580   0.277  51.619  1.00  0.00     0.020 C 
HETATM   10  C11 UNL     1      18.680   0.727  50.145  1.00  0.00     0.121 C 
HETATM   11  N1  UNL     1      19.014   2.113  49.898  1.00  0.00    -0.373 N 
HETATM   12  C12 UNL     1      20.306   2.402  49.288  1.00  0.00     0.155 A 
HETATM   13  N2  UNL     1      20.581   2.288  48.001  1.00  0.00    -0.222 NA
HETATM   14  C13 UNL     1      21.884   2.463  47.605  1.00  0.00     0.238 A 
HETATM   15  N3  UNL     1      23.012   2.741  48.284  1.00  0.00    -0.215 NA
HETATM   16  C14 UNL     1      22.946   2.899  49.660  1.00  0.00     0.202 A 
HETATM   17  C15 UNL     1      21.544   2.687  49.827  1.00  0.00     0.128 A 
HETATM   18  N4  UNL     1      20.956   3.255  51.052  1.00  0.00    -0.379 N 
HETATM   19  C16 UNL     1      21.442   3.023  52.353  1.00  0.00     0.162 C 
HETATM   20  O2  UNL     1      23.803   3.168  50.871  1.00  0.00    -0.289 OA
HETATM   21  H14 UNL     1      18.852   3.138  49.903  1.00  0.00     0.161 HD
HETATM   22  H16 UNL     1      20.140   3.913  51.270  1.00  0.00     0.160 HD
ENDROOT
BRANCH   1  23
HETATM   23  O1  UNL     1      22.661  -1.117  54.443  1.00  0.00    -0.355 OA
HETATM   24  C1  UNL     1      23.354  -1.486  55.592  1.00  0.00     0.210 C 
ENDBRANCH   1  23
TORSDOF 1
ENDMDL
MODEL 9
REMARK VINA RESULT:      -6.8      8.413     11.246
REMARK  1 active torsions:
REMARK  status: ('A' for Active; 'I' for Inactive)
REMARK    1  A    between atoms: O1_2  and  C2_3 
ROOT
HETATM    1  C2  UNL     1      32.205   9.215  46.359  1.00  0.00     0.075 A 
HETATM    2  C3  UNL     1      32.102  10.547  46.006  1.00  0.00     0.040 A 
HETATM    3  C4  UNL     1      31.446  11.536  46.702  1.00  0.00     0.041 A 
HETATM    4  C5  UNL     1      30.814  11.155  47.908  1.00  0.00     0.086 A 
HETATM    5  C6  UNL     1      30.972   9.769  48.228  1.00  0.00     0.002 A 
HETATM    6  C7  UNL     1      31.613   8.774  47.524  1.00  0.00    -0.014 A 
HETATM    7  C8  UNL     1      31.405   7.273  47.797  1.00  0.00     0.042 C 
HETATM    8  C9  UNL     1      29.954   7.191  48.042  1.00  0.00     0.006 C 
HETATM    9  C10 UNL     1      29.025   6.056  48.036  1.00  0.00     0.020 C 
HETATM   10  C11 UNL     1      27.666   6.736  48.312  1.00  0.00     0.121 C 
HETATM   11  N1  UNL     1      27.580   7.591  49.476  1.00  0.00    -0.373 N 
HETATM   12  C12 UNL     1      27.396   9.021  49.255  1.00  0.00     0.155 A 
HETATM   13  N2  UNL     1      26.248   9.603  48.957  1.00  0.00    -0.222 NA
HETATM   14  C13 UNL     1      26.269  10.940  48.643  1.00  0.00     0.238 A 
HETATM   15  N3  UNL     1      27.265  11.841  48.564  1.00  0.00    -0.215 NA
HETATM   16  C14 UNL     1      28.562  11.434  48.838  1.00  0.00     0.202 A 
HETATM   17  C15 UNL     1      28.292  10.063  49.135  1.00  0.00     0.128 A 
HETATM   18  N4  UNL     1      29.303   9.381  49.961  1.00  0.00    -0.379 N 
HETATM   19  C16 UNL     1      30.681   9.350  49.674  1.00  0.00     0.162 C 
HETATM   20  O2  UNL     1      29.984  11.935  48.885  1.00  0.00    -0.289 OA
HETATM   21  H14 UNL     1      27.571   7.806  50.491  1.00  0.00     0.161 HD
HETATM   22  H16 UNL     1      29.288   8.823  50.875  1.00  0.00     0.160 HD
ENDROOT
BRANCH   1  23
HETATM   23  O1  UNL     1      32.896   8.368  45.536  1.00  0.00    -0.355 OA
HETATM   24  C1  UNL     1      34.162   8.545  44.988  1.00  0.00     0.210 C 
ENDBRANCH   1  23
TORSDOF 1
ENDMDL
