MODEL 1
REMARK VINA RESULT:      -9.1      0.000      0.000
REMARK  5 active torsions:
REMARK  status: ('A' for Active; 'I' for Inactive)
REMARK    1  A    between atoms: N1_1  and  C1_2 
REMARK    2  A    between atoms: C1_2  and  N2_4 
REMARK    3  A    between atoms: C2_5  and  C3_6 
REMARK    4  A    between atoms: C2_5  and  C15_18 
REMARK    5  A    between atoms: C4_7  and  C5_8 
ROOT
HETATM    1  N2  UNL     1      22.623   2.639  52.050  1.00  0.00    -0.221 NA
HETATM    2  C2  UNL     1      22.913   1.523  52.693  1.00  0.00     0.070 C 
ENDROOT
BRANCH   2   3
HETATM    3  C3  UNL     1      24.323   1.465  52.947  1.00  0.00     0.033 C 
HETATM    4  C4  UNL     1      25.457   0.854  52.752  1.00  0.00     0.014 C 
BRANCH   4   5
HETATM    5  C5  UNL     1      26.854   0.940  53.105  1.00  0.00    -0.025 A 
HETATM    6  C6  UNL     1      27.362   2.181  53.402  1.00  0.00     0.012 A 
HETATM    7  C7  UNL     1      28.691   2.302  53.744  1.00  0.00     0.002 A 
HETATM    8  C8  UNL     1      29.435   1.145  53.764  1.00  0.00     0.012 A 
HETATM    9  C9  UNL     1      28.881  -0.074  53.459  1.00  0.00    -0.025 A 
HETATM   10  C10 UNL     1      29.710  -1.179  53.507  1.00  0.00     0.012 A 
HETATM   11  C14 UNL     1      27.562  -0.229  53.116  1.00  0.00    -0.016 A 
HETATM   12  C11 UNL     1      29.280  -2.459  53.223  1.00  0.00     0.001 A 
HETATM   13  C12 UNL     1      27.948  -2.593  52.880  1.00  0.00     0.001 A 
HETATM   14  C13 UNL     1      27.126  -1.488  52.833  1.00  0.00     0.013 A 
ENDBRANCH   4   5
ENDBRANCH   2   3
BRANCH   2  15
HETATM   15  C15 UNL     1      21.809   0.638  52.992  1.00  0.00    -0.007 A 
HETATM   16  C16 UNL     1      20.500   0.693  52.576  1.00  0.00     0.014 A 
HETATM   17  C17 UNL     1      19.494  -0.186  52.899  1.00  0.00     0.001 A 
HETATM   18  C18 UNL     1      19.847  -1.230  53.726  1.00  0.00     0.000 A 
HETATM   19  C19 UNL     1      21.130  -1.384  54.203  1.00  0.00     0.001 A 
HETATM   20  C20 UNL     1      22.051  -0.442  53.812  1.00  0.00     0.014 A 
ENDBRANCH   2  15
BRANCH   1  21
HETATM   21  C1  UNL     1      23.677   3.535  51.739  1.00  0.00     0.192 C 
HETATM   22  S1  UNL     1      24.754   3.796  50.543  1.00  0.00    -0.039 SA
BRANCH  21  23
HETATM   23  N1  UNL     1      23.801   4.474  52.824  1.00  0.00    -0.375 N 
HETATM   24  H1  UNL     1      24.342   4.355  53.727  1.00  0.00     0.158 HD
HETATM   25  H2  UNL     1      23.430   5.433  53.004  1.00  0.00     0.158 HD
ENDBRANCH  21  23
ENDBRANCH   1  21
TORSDOF 5
ENDMDL
MODEL 2
REMARK VINA RESULT:      -8.7      2.618      7.031
REMARK  5 active torsions:
REMARK  status: ('A' for Active; 'I' for Inactive)
REMARK    1  A    between atoms: N1_1  and  C1_2 
REMARK    2  A    between atoms: C1_2  and  N2_4 
REMARK    3  A    between atoms: C2_5  and  C3_6 
REMARK    4  A    between atoms: C2_5  and  C15_18 
REMARK    5  A    between atoms: C4_7  and  C5_8 
ROOT
HETATM    1  N2  UNL     1      27.093   1.821  52.020  1.00  0.00    -0.221 NA
HETATM    2  C2  UNL     1      25.900   2.234  51.633  1.00  0.00     0.070 C 
ENDROOT
BRANCH   2   3
HETATM    3  C3  UNL     1      24.886   1.454  52.281  1.00  0.00     0.033 C 
HETATM    4  C4  UNL     1      23.685   0.949  52.241  1.00  0.00     0.014 C 
BRANCH   4   5
HETATM    5  C5  UNL     1      22.779   0.146  53.026  1.00  0.00    -0.025 A 
HETATM    6  C6  UNL     1      23.293  -0.524  54.109  1.00  0.00     0.012 A 
HETATM    7  C7  UNL     1      22.458  -1.301  54.882  1.00  0.00     0.002 A 
HETATM    8  C8  UNL     1      21.136  -1.353  54.506  1.00  0.00     0.012 A 
HETATM    9  C9  UNL     1      20.667  -0.664  53.414  1.00  0.00    -0.025 A 
HETATM   10  C10 UNL     1      19.323  -0.779  53.117  1.00  0.00     0.012 A 
HETATM   11  C14 UNL     1      21.473   0.117  52.625  1.00  0.00    -0.016 A 
HETATM   12  C11 UNL     1      18.727  -0.141  52.049  1.00  0.00     0.001 A 
HETATM   13  C12 UNL     1      19.555   0.642  51.267  1.00  0.00     0.001 A 
HETATM   14  C13 UNL     1      20.896   0.753  51.567  1.00  0.00     0.013 A 
ENDBRANCH   4   5
ENDBRANCH   2   3
BRANCH   2  15
HETATM   15  C15 UNL     1      25.864   3.327  50.687  1.00  0.00    -0.007 A 
HETATM   16  C16 UNL     1      26.819   3.745  49.790  1.00  0.00     0.014 A 
HETATM   17  C17 UNL     1      26.721   4.799  48.914  1.00  0.00     0.001 A 
HETATM   18  C18 UNL     1      25.537   5.503  48.946  1.00  0.00     0.000 A 
HETATM   19  C19 UNL     1      24.512   5.173  49.804  1.00  0.00     0.001 A 
HETATM   20  C20 UNL     1      24.725   4.099  50.635  1.00  0.00     0.014 A 
ENDBRANCH   2  15
BRANCH   1  21
HETATM   21  C1  UNL     1      27.171   0.750  52.948  1.00  0.00     0.192 C 
HETATM   22  S1  UNL     1      27.049  -0.875  52.961  1.00  0.00    -0.039 SA
BRANCH  21  23
HETATM   23  N1  UNL     1      27.438   1.306  54.250  1.00  0.00    -0.375 N 
HETATM   24  H1  UNL     1      27.523   2.329  54.514  1.00  0.00     0.158 HD
HETATM   25  H2  UNL     1      27.605   0.899  55.196  1.00  0.00     0.158 HD
ENDBRANCH  21  23
ENDBRANCH   1  21
TORSDOF 5
ENDMDL
MODEL 3
REMARK VINA RESULT:      -8.7      1.585      6.969
REMARK  5 active torsions:
REMARK  status: ('A' for Active; 'I' for Inactive)
REMARK    1  A    between atoms: N1_1  and  C1_2 
REMARK    2  A    between atoms: C1_2  and  N2_4 
REMARK    3  A    between atoms: C2_5  and  C3_6 
REMARK    4  A    between atoms: C2_5  and  C15_18 
REMARK    5  A    between atoms: C4_7  and  C5_8 
ROOT
HETATM    1  N2  UNL     1      26.268   2.233  52.120  1.00  0.00    -0.221 NA
HETATM    2  C2  UNL     1      26.180   1.049  52.697  1.00  0.00     0.070 C 
ENDROOT
BRANCH   2   3
HETATM    3  C3  UNL     1      24.801   0.705  52.885  1.00  0.00     0.033 C 
HETATM    4  C4  UNL     1      23.856  -0.183  52.758  1.00  0.00     0.014 C 
BRANCH   4   5
HETATM    5  C5  UNL     1      22.447  -0.368  53.015  1.00  0.00    -0.025 A 
HETATM    6  C6  UNL     1      22.088  -1.001  54.180  1.00  0.00     0.012 A 
HETATM    7  C7  UNL     1      20.753  -1.194  54.459  1.00  0.00     0.002 A 
HETATM    8  C8  UNL     1      19.851  -0.730  53.530  1.00  0.00     0.012 A 
HETATM    9  C9  UNL     1      20.259  -0.102  52.378  1.00  0.00    -0.025 A 
HETATM   10  C10 UNL     1      19.277   0.329  51.506  1.00  0.00     0.012 A 
HETATM   11  C14 UNL     1      21.579   0.106  52.071  1.00  0.00    -0.016 A 
HETATM   12  C11 UNL     1      19.552   0.972  50.317  1.00  0.00     0.001 A 
HETATM   13  C12 UNL     1      20.889   1.173  50.027  1.00  0.00     0.001 A 
HETATM   14  C13 UNL     1      21.863   0.740  50.899  1.00  0.00     0.013 A 
ENDBRANCH   4   5
ENDBRANCH   2   3
BRANCH   2  15
HETATM   15  C15 UNL     1      27.425   0.379  53.003  1.00  0.00    -0.007 A 
HETATM   16  C16 UNL     1      28.622   0.902  53.431  1.00  0.00     0.014 A 
HETATM   17  C17 UNL     1      29.775   0.206  53.706  1.00  0.00     0.001 A 
HETATM   18  C18 UNL     1      29.712  -1.159  53.531  1.00  0.00     0.000 A 
HETATM   19  C19 UNL     1      28.564  -1.790  53.106  1.00  0.00     0.001 A 
HETATM   20  C20 UNL     1      27.474  -0.990  52.862  1.00  0.00     0.014 A 
ENDBRANCH   2  15
BRANCH   1  21
HETATM   21  C1  UNL     1      25.069   2.922  51.803  1.00  0.00     0.192 C 
HETATM   22  S1  UNL     1      23.858   3.698  52.570  1.00  0.00    -0.039 SA
BRANCH  21  23
HETATM   23  N1  UNL     1      24.914   2.912  50.371  1.00  0.00    -0.375 N 
HETATM   24  H1  UNL     1      24.127   2.479  49.806  1.00  0.00     0.158 HD
HETATM   25  H2  UNL     1      25.473   3.286  49.573  1.00  0.00     0.158 HD
ENDBRANCH  21  23
ENDBRANCH   1  21
TORSDOF 5
ENDMDL
MODEL 4
REMARK VINA RESULT:      -8.5      4.148      7.980
REMARK  5 active torsions:
REMARK  status: ('A' for Active; 'I' for Inactive)
REMARK    1  A    between atoms: N1_1  and  C1_2 
REMARK    2  A    between atoms: C1_2  and  N2_4 
REMARK    3  A    between atoms: C2_5  and  C3_6 
REMARK    4  A    between atoms: C2_5  and  C15_18 
REMARK    5  A    between atoms: C4_7  and  C5_8 
ROOT
HETATM    1  N2  UNL     1      25.360   6.869  50.206  1.00  0.00    -0.221 NA
HETATM    2  C2  UNL     1      25.757   5.887  49.418  1.00  0.00     0.070 C 
ENDROOT
BRANCH   2   3
HETATM    3  C3  UNL     1      24.767   4.850  49.404  1.00  0.00     0.033 C 
HETATM    4  C4  UNL     1      24.487   3.587  49.565  1.00  0.00     0.014 C 
BRANCH   4   5
HETATM    5  C5  UNL     1      23.375   2.669  49.507  1.00  0.00    -0.025 A 
HETATM    6  C6  UNL     1      22.669   2.594  48.332  1.00  0.00     0.012 A 
HETATM    7  C7  UNL     1      21.601   1.728  48.239  1.00  0.00     0.002 A 
HETATM    8  C8  UNL     1      21.310   0.980  49.357  1.00  0.00     0.012 A 
HETATM    9  C9  UNL     1      22.046   1.090  50.511  1.00  0.00    -0.025 A 
HETATM   10  C10 UNL     1      21.675   0.297  51.581  1.00  0.00     0.012 A 
HETATM   11  C14 UNL     1      23.114   1.942  50.635  1.00  0.00    -0.016 A 
HETATM   12  C11 UNL     1      22.330   0.311  52.795  1.00  0.00     0.001 A 
HETATM   13  C12 UNL     1      23.404   1.176  52.899  1.00  0.00     0.001 A 
HETATM   14  C13 UNL     1      23.768   1.965  51.830  1.00  0.00     0.013 A 
ENDBRANCH   4   5
ENDBRANCH   2   3
BRANCH   2  15
HETATM   15  C15 UNL     1      27.039   6.051  48.768  1.00  0.00    -0.007 A 
HETATM   16  C16 UNL     1      28.081   5.163  48.643  1.00  0.00     0.014 A 
HETATM   17  C17 UNL     1      29.280   5.384  48.009  1.00  0.00     0.001 A 
HETATM   18  C18 UNL     1      29.443   6.629  47.442  1.00  0.00     0.000 A 
HETATM   19  C19 UNL     1      28.465   7.596  47.505  1.00  0.00     0.001 A 
HETATM   20  C20 UNL     1      27.308   7.260  48.166  1.00  0.00     0.014 A 
ENDBRANCH   2  15
BRANCH   1  21
HETATM   21  C1  UNL     1      24.109   6.747  50.862  1.00  0.00     0.192 C 
HETATM   22  S1  UNL     1      22.520   6.834  50.505  1.00  0.00    -0.039 SA
BRANCH  21  23
HETATM   23  N1  UNL     1      24.359   6.462  52.252  1.00  0.00    -0.375 N 
HETATM   24  H1  UNL     1      23.684   6.551  53.065  1.00  0.00     0.158 HD
HETATM   25  H2  UNL     1      25.188   6.126  52.790  1.00  0.00     0.158 HD
ENDBRANCH  21  23
ENDBRANCH   1  21
TORSDOF 5
ENDMDL
MODEL 5
REMARK VINA RESULT:      -8.5      3.524      6.728
REMARK  5 active torsions:
REMARK  status: ('A' for Active; 'I' for Inactive)
REMARK    1  A    between atoms: N1_1  and  C1_2 
REMARK    2  A    between atoms: C1_2  and  N2_4 
REMARK    3  A    between atoms: C2_5  and  C3_6 
REMARK    4  A    between atoms: C2_5  and  C15_18 
REMARK    5  A    between atoms: C4_7  and  C5_8 
ROOT
HETATM    1  N2  UNL     1      24.350   4.786  48.925  1.00  0.00    -0.221 NA
HETATM    2  C2  UNL     1      25.583   4.495  49.298  1.00  0.00     0.070 C 
ENDROOT
BRANCH   2   3
HETATM    3  C3  UNL     1      25.578   3.298  50.088  1.00  0.00     0.033 C 
HETATM    4  C4  UNL     1      25.770   2.740  51.250  1.00  0.00     0.014 C 
BRANCH   4   5
HETATM    5  C5  UNL     1      25.715   1.451  51.899  1.00  0.00    -0.025 A 
HETATM    6  C6  UNL     1      26.855   0.685  51.893  1.00  0.00     0.012 A 
HETATM    7  C7  UNL     1      26.840  -0.551  52.503  1.00  0.00     0.002 A 
HETATM    8  C8  UNL     1      25.658  -0.940  53.089  1.00  0.00     0.012 A 
HETATM    9  C9  UNL     1      24.543  -0.137  53.069  1.00  0.00    -0.025 A 
HETATM   10  C10 UNL     1      23.402  -0.615  53.685  1.00  0.00     0.012 A 
HETATM   11  C14 UNL     1      24.526   1.098  52.471  1.00  0.00    -0.016 A 
HETATM   12  C11 UNL     1      22.218   0.090  53.735  1.00  0.00     0.001 A 
HETATM   13  C12 UNL     1      22.221   1.332  53.127  1.00  0.00     0.001 A 
HETATM   14  C13 UNL     1      23.361   1.804  52.514  1.00  0.00     0.013 A 
ENDBRANCH   4   5
ENDBRANCH   2   3
BRANCH   2  15
HETATM   15  C15 UNL     1      26.626   5.394  48.858  1.00  0.00    -0.007 A 
HETATM   16  C16 UNL     1      26.582   6.749  48.632  1.00  0.00     0.014 A 
HETATM   17  C17 UNL     1      27.617   7.550  48.211  1.00  0.00     0.001 A 
HETATM   18  C18 UNL     1      28.821   6.916  47.996  1.00  0.00     0.000 A 
HETATM   19  C19 UNL     1      28.980   5.562  48.190  1.00  0.00     0.001 A 
HETATM   20  C20 UNL     1      27.874   4.865  48.613  1.00  0.00     0.014 A 
ENDBRANCH   2  15
BRANCH   1  21
HETATM   21  C1  UNL     1      23.298   3.928  49.337  1.00  0.00     0.192 C 
HETATM   22  S1  UNL     1      22.655   2.487  48.927  1.00  0.00    -0.039 SA
BRANCH  21  23
HETATM   23  N1  UNL     1      22.623   4.551  50.446  1.00  0.00    -0.375 N 
HETATM   24  H1  UNL     1      23.044   5.162  51.203  1.00  0.00     0.158 HD
HETATM   25  H2  UNL     1      21.634   4.571  50.780  1.00  0.00     0.158 HD
ENDBRANCH  21  23
ENDBRANCH   1  21
TORSDOF 5
ENDMDL
MODEL 6
REMARK VINA RESULT:      -8.5      1.489      6.604
REMARK  5 active torsions:
REMARK  status: ('A' for Active; 'I' for Inactive)
REMARK    1  A    between atoms: N1_1  and  C1_2 
REMARK    2  A    between atoms: C1_2  and  N2_4 
REMARK    3  A    between atoms: C2_5  and  C3_6 
REMARK    4  A    between atoms: C2_5  and  C15_18 
REMARK    5  A    between atoms: C4_7  and  C5_8 
ROOT
HETATM    1  N2  UNL     1      26.701   2.865  51.026  1.00  0.00    -0.221 NA
HETATM    2  C2  UNL     1      26.349   1.987  51.947  1.00  0.00     0.070 C 
ENDROOT
BRANCH   2   3
HETATM    3  C3  UNL     1      24.919   1.915  52.023  1.00  0.00     0.033 C 
HETATM    4  C4  UNL     1      23.850   1.940  52.767  1.00  0.00     0.014 C 
BRANCH   4   5
HETATM    5  C5  UNL     1      22.412   1.848  52.669  1.00  0.00    -0.025 A 
HETATM    6  C6  UNL     1      21.741   2.907  52.108  1.00  0.00     0.012 A 
HETATM    7  C7  UNL     1      20.369   2.854  51.998  1.00  0.00     0.002 A 
HETATM    8  C8  UNL     1      19.751   1.718  52.468  1.00  0.00     0.012 A 
HETATM    9  C9  UNL     1      20.467   0.684  53.022  1.00  0.00    -0.025 A 
HETATM   10  C10 UNL     1      19.757  -0.415  53.466  1.00  0.00     0.012 A 
HETATM   11  C14 UNL     1      21.833   0.706  53.145  1.00  0.00    -0.016 A 
HETATM   12  C11 UNL     1      20.353  -1.518  54.041  1.00  0.00     0.001 A 
HETATM   13  C12 UNL     1      21.730  -1.477  54.156  1.00  0.00     0.001 A 
HETATM   14  C13 UNL     1      22.433  -0.378  53.712  1.00  0.00     0.013 A 
ENDBRANCH   4   5
ENDBRANCH   2   3
BRANCH   2  15
HETATM   15  C15 UNL     1      27.420   1.315  52.649  1.00  0.00    -0.007 A 
HETATM   16  C16 UNL     1      28.481   1.843  53.348  1.00  0.00     0.014 A 
HETATM   17  C17 UNL     1      29.470   1.144  53.997  1.00  0.00     0.001 A 
HETATM   18  C18 UNL     1      29.380  -0.229  53.935  1.00  0.00     0.000 A 
HETATM   19  C19 UNL     1      28.360  -0.866  53.264  1.00  0.00     0.001 A 
HETATM   20  C20 UNL     1      27.427  -0.062  52.652  1.00  0.00     0.014 A 
ENDBRANCH   2  15
BRANCH   1  21
HETATM   21  C1  UNL     1      25.681   3.546  50.314  1.00  0.00     0.192 C 
HETATM   22  S1  UNL     1      24.463   3.204  49.285  1.00  0.00    -0.039 SA
BRANCH  21  23
HETATM   23  N1  UNL     1      25.786   4.950  50.615  1.00  0.00    -0.375 N 
HETATM   24  H1  UNL     1      25.189   5.517  51.284  1.00  0.00     0.158 HD
HETATM   25  H2  UNL     1      26.412   5.720  50.293  1.00  0.00     0.158 HD
ENDBRANCH  21  23
ENDBRANCH   1  21
TORSDOF 5
ENDMDL
MODEL 7
REMARK VINA RESULT:      -8.4      3.417      6.230
REMARK  5 active torsions:
REMARK  status: ('A' for Active; 'I' for Inactive)
REMARK    1  A    between atoms: N1_1  and  C1_2 
REMARK    2  A    between atoms: C1_2  and  N2_4 
REMARK    3  A    between atoms: C2_5  and  C3_6 
REMARK    4  A    between atoms: C2_5  and  C15_18 
REMARK    5  A    between atoms: C4_7  and  C5_8 
ROOT
HETATM    1  N2  UNL     1      24.079   4.925  49.230  1.00  0.00    -0.221 NA
HETATM    2  C2  UNL     1      25.304   4.641  49.633  1.00  0.00     0.070 C 
ENDROOT
BRANCH   2   3
HETATM    3  C3  UNL     1      25.257   3.607  50.626  1.00  0.00     0.033 C 
HETATM    4  C4  UNL     1      25.751   2.491  51.084  1.00  0.00     0.014 C 
BRANCH   4   5
HETATM    5  C5  UNL     1      25.569   1.539  52.153  1.00  0.00    -0.025 A 
HETATM    6  C6  UNL     1      24.336   0.947  52.278  1.00  0.00     0.012 A 
HETATM    7  C7  UNL     1      24.126   0.033  53.287  1.00  0.00     0.002 A 
HETATM    8  C8  UNL     1      25.190  -0.231  54.118  1.00  0.00     0.012 A 
HETATM    9  C9  UNL     1      26.406   0.387  53.953  1.00  0.00    -0.025 A 
HETATM   10  C10 UNL     1      27.414   0.057  54.839  1.00  0.00     0.012 A 
HETATM   11  C14 UNL     1      26.647   1.301  52.959  1.00  0.00    -0.016 A 
HETATM   12  C11 UNL     1      28.678   0.605  54.783  1.00  0.00     0.001 A 
HETATM   13  C12 UNL     1      28.902   1.523  53.774  1.00  0.00     0.001 A 
HETATM   14  C13 UNL     1      27.893   1.849  52.894  1.00  0.00     0.013 A 
ENDBRANCH   4   5
ENDBRANCH   2   3
BRANCH   2  15
HETATM   15  C15 UNL     1      26.380   5.390  49.024  1.00  0.00    -0.007 A 
HETATM   16  C16 UNL     1      26.424   6.707  48.633  1.00  0.00     0.014 A 
HETATM   17  C17 UNL     1      27.486   7.362  48.057  1.00  0.00     0.001 A 
HETATM   18  C18 UNL     1      28.621   6.609  47.854  1.00  0.00     0.000 A 
HETATM   19  C19 UNL     1      28.691   5.280  48.207  1.00  0.00     0.001 A 
HETATM   20  C20 UNL     1      27.565   4.733  48.777  1.00  0.00     0.014 A 
ENDBRANCH   2  15
BRANCH   1  21
HETATM   21  C1  UNL     1      22.995   4.212  49.803  1.00  0.00     0.192 C 
HETATM   22  S1  UNL     1      22.078   4.245  51.150  1.00  0.00    -0.039 SA
BRANCH  21  23
HETATM   23  N1  UNL     1      22.626   3.156  48.895  1.00  0.00    -0.375 N 
HETATM   24  H1  UNL     1      22.664   3.168  47.836  1.00  0.00     0.158 HD
HETATM   25  H2  UNL     1      22.255   2.188  49.015  1.00  0.00     0.158 HD
ENDBRANCH  21  23
ENDBRANCH   1  21
TORSDOF 5
ENDMDL
MODEL 8
REMARK VINA RESULT:      -8.4      6.819     10.443
REMARK  5 active torsions:
REMARK  status: ('A' for Active; 'I' for Inactive)
REMARK    1  A    between atoms: N1_1  and  C1_2 
REMARK    2  A    between atoms: C1_2  and  N2_4 
REMARK    3  A    between atoms: C2_5  and  C3_6 
REMARK    4  A    between atoms: C2_5  and  C15_18 
REMARK    5  A    between atoms: C4_7  and  C5_8 
ROOT
HETATM    1  N2  UNL     1      32.296   7.098  48.348  1.00  0.00    -0.221 NA
HETATM    2  C2  UNL     1      31.648   5.994  48.024  1.00  0.00     0.070 C 
ENDROOT
BRANCH   2   3
HETATM    3  C3  UNL     1      30.235   6.228  48.088  1.00  0.00     0.033 C 
HETATM    4  C4  UNL     1      29.038   5.733  48.233  1.00  0.00     0.014 C 
BRANCH   4   5
HETATM    5  C5  UNL     1      27.653   6.138  48.272  1.00  0.00    -0.025 A 
HETATM    6  C6  UNL     1      27.340   7.388  47.797  1.00  0.00     0.012 A 
HETATM    7  C7  UNL     1      26.028   7.809  47.819  1.00  0.00     0.002 A 
HETATM    8  C8  UNL     1      25.102   6.928  48.327  1.00  0.00     0.012 A 
HETATM    9  C9  UNL     1      25.464   5.686  48.790  1.00  0.00    -0.025 A 
HETATM   10  C10 UNL     1      24.461   4.872  49.282  1.00  0.00     0.012 A 
HETATM   11  C14 UNL     1      26.760   5.238  48.782  1.00  0.00    -0.016 A 
HETATM   12  C11 UNL     1      24.690   3.605  49.777  1.00  0.00     0.001 A 
HETATM   13  C12 UNL     1      26.003   3.172  49.760  1.00  0.00     0.001 A 
HETATM   14  C13 UNL     1      26.999   3.988  49.269  1.00  0.00     0.013 A 
ENDBRANCH   4   5
ENDBRANCH   2   3
BRANCH   2  15
HETATM   15  C15 UNL     1      32.454   4.841  47.689  1.00  0.00    -0.007 A 
HETATM   16  C16 UNL     1      33.793   4.612  47.901  1.00  0.00     0.014 A 
HETATM   17  C17 UNL     1      34.502   3.486  47.556  1.00  0.00     0.001 A 
HETATM   18  C18 UNL     1      33.784   2.488  46.934  1.00  0.00     0.000 A 
HETATM   19  C19 UNL     1      32.438   2.609  46.671  1.00  0.00     0.001 A 
HETATM   20  C20 UNL     1      31.836   3.781  47.063  1.00  0.00     0.014 A 
ENDBRANCH   2  15
BRANCH   1  21
HETATM   21  C1  UNL     1      31.542   8.252  48.683  1.00  0.00     0.192 C 
HETATM   22  S1  UNL     1      30.784   9.485  47.932  1.00  0.00    -0.039 SA
BRANCH  21  23
HETATM   23  N1  UNL     1      31.440   8.318  50.118  1.00  0.00    -0.375 N 
HETATM   24  H1  UNL     1      30.937   9.047  50.700  1.00  0.00     0.158 HD
HETATM   25  H2  UNL     1      31.796   7.728  50.902  1.00  0.00     0.158 HD
ENDBRANCH  21  23
ENDBRANCH   1  21
TORSDOF 5
ENDMDL
MODEL 9
REMARK VINA RESULT:      -8.4      4.079      7.011
REMARK  5 active torsions:
REMARK  status: ('A' for Active; 'I' for Inactive)
REMARK    1  A    between atoms: N1_1  and  C1_2 
REMARK    2  A    between atoms: C1_2  and  N2_4 
REMARK    3  A    between atoms: C2_5  and  C3_6 
REMARK    4  A    between atoms: C2_5  and  C15_18 
REMARK    5  A    between atoms: C4_7  and  C5_8 
ROOT
HETATM    1  N2  UNL     1      24.203   1.705  51.733  1.00  0.00    -0.221 NA
HETATM    2  C2  UNL     1      25.460   2.071  51.559  1.00  0.00     0.070 C 
ENDROOT
BRANCH   2   3
HETATM    3  C3  UNL     1      25.509   3.273  50.779  1.00  0.00     0.033 C 
HETATM    4  C4  UNL     1      25.992   3.899  49.744  1.00  0.00     0.014 C 
BRANCH   4   5
HETATM    5  C5  UNL     1      25.928   5.177  49.075  1.00  0.00    -0.025 A 
HETATM    6  C6  UNL     1      24.706   5.799  49.001  1.00  0.00     0.012 A 
HETATM    7  C7  UNL     1      24.607   7.020  48.371  1.00  0.00     0.002 A 
HETATM    8  C8  UNL     1      25.766   7.544  47.847  1.00  0.00     0.012 A 
HETATM    9  C9  UNL     1      26.967   6.883  47.946  1.00  0.00    -0.025 A 
HETATM   10  C10 UNL     1      28.076   7.490  47.387  1.00  0.00     0.012 A 
HETATM   11  C14 UNL     1      27.099   5.668  48.567  1.00  0.00    -0.016 A 
HETATM   12  C11 UNL     1      29.337   6.934  47.418  1.00  0.00     0.001 A 
HETATM   13  C12 UNL     1      29.449   5.709  48.049  1.00  0.00     0.001 A 
HETATM   14  C13 UNL     1      28.340   5.108  48.603  1.00  0.00     0.013 A 
ENDBRANCH   4   5
ENDBRANCH   2   3
BRANCH   2  15
HETATM   15  C15 UNL     1      26.472   1.228  52.158  1.00  0.00    -0.007 A 
HETATM   16  C16 UNL     1      26.555  -0.143  52.212  1.00  0.00     0.014 A 
HETATM   17  C17 UNL     1      27.550  -0.886  52.800  1.00  0.00     0.001 A 
HETATM   18  C18 UNL     1      28.566  -0.171  53.396  1.00  0.00     0.000 A 
HETATM   19  C19 UNL     1      28.585   1.206  53.402  1.00  0.00     0.001 A 
HETATM   20  C20 UNL     1      27.536   1.841  52.782  1.00  0.00     0.014 A 
ENDBRANCH   2  15
BRANCH   1  21
HETATM   21  C1  UNL     1      23.180   2.505  51.162  1.00  0.00     0.192 C 
HETATM   22  S1  UNL     1      22.370   3.881  51.488  1.00  0.00    -0.039 SA
BRANCH  21  23
HETATM   23  N1  UNL     1      22.761   1.883  49.932  1.00  0.00    -0.375 N 
HETATM   24  H1  UNL     1      22.395   0.897  49.795  1.00  0.00     0.158 HD
HETATM   25  H2  UNL     1      22.709   2.195  48.937  1.00  0.00     0.158 HD
ENDBRANCH  21  23
ENDBRANCH   1  21
TORSDOF 5
ENDMDL
