MODEL 1
REMARK VINA RESULT:      -9.0      0.000      0.000
REMARK  4 active torsions:
REMARK  status: ('A' for Active; 'I' for Inactive)
REMARK    1  A    between atoms: O1_1  and  C1_2 
REMARK    2  A    between atoms: C5_6  and  C6_7 
REMARK    3  A    between atoms: C9_11  and  O2_12 
REMARK    4  A    between atoms: C9_11  and  C10_13 
ROOT
HETATM    1  C6  UNL     1      25.567  -0.460  54.021  1.00  0.00     0.087 A 
HETATM    2  C7  UNL     1      25.271   0.258  53.234  1.00  0.00     0.230 A 
HETATM    3  N1  UNL     1      24.942   1.089  52.324  1.00  0.00     0.016 N 
HETATM    4  C8  UNL     1      25.043   1.990  51.439  1.00  0.00     0.299 A 
HETATM    5  C9  UNL     1      23.990   1.242  51.964  1.00  0.00     0.302 A 
HETATM    6  C10 UNL     1      24.676   0.385  52.977  1.00  0.00     0.231 A 
HETATM    7  C11 UNL     1      23.146  -0.224  53.088  1.00  0.00    -0.029 A 
HETATM    8  C12 UNL     1      21.955  -0.603  52.954  1.00  0.00     0.006 A 
HETATM    9  C13 UNL     1      21.216  -1.326  53.989  1.00  0.00    -0.003 A 
HETATM   10  C14 UNL     1      22.175  -1.332  54.903  1.00  0.00    -0.017 A 
HETATM   11  C15 UNL     1      23.352  -0.700  54.611  1.00  0.00     0.051 A 
HETATM   12  O3  UNL     1      24.661  -0.944  54.301  1.00  0.00     0.000 OA
ENDROOT
BRANCH   1  13
HETATM   13  C5  UNL     1      27.118  -0.214  53.925  1.00  0.00    -0.040 A 
HETATM   14  C4  UNL     1      28.043  -1.153  53.369  1.00  0.00     0.008 A 
HETATM   15  C3  UNL     1      29.354  -1.065  53.212  1.00  0.00     0.003 A 
HETATM   16  C2  UNL     1      29.859   0.124  53.668  1.00  0.00     0.036 A 
HETATM   17  C1  UNL     1      29.187   1.142  54.222  1.00  0.00     0.066 A 
HETATM   18  C16 UNL     1      27.859   0.954  54.335  1.00  0.00     0.044 A 
BRANCH  17  19
HETATM   19  O1  UNL     1      29.646   2.344  54.691  1.00  0.00    -0.361 OA
HETATM   20  H1  UNL     1      29.531   2.675  55.624  1.00  0.00     0.217 HD
ENDBRANCH  17  19
ENDBRANCH   1  13
BRANCH   5  21
HETATM   21  O2  UNL     1      22.814   1.677  51.265  1.00  0.00    -0.361 OA
HETATM   22  H6  UNL     1      22.099   2.224  51.732  1.00  0.00     0.212 HD
ENDBRANCH   5  21
TORSDOF 4
ENDMDL
MODEL 2
REMARK VINA RESULT:      -9.0      1.306      5.639
REMARK  4 active torsions:
REMARK  status: ('A' for Active; 'I' for Inactive)
REMARK    1  A    between atoms: O1_1  and  C1_2 
REMARK    2  A    between atoms: C5_6  and  C6_7 
REMARK    3  A    between atoms: C9_11  and  O2_12 
REMARK    4  A    between atoms: C9_11  and  C10_13 
ROOT
HETATM    1  C6  UNL     1      25.429  -0.808  53.572  1.00  0.00     0.087 A 
HETATM    2  C7  UNL     1      25.638   0.275  53.657  1.00  0.00     0.230 A 
HETATM    3  N1  UNL     1      25.866   1.525  53.756  1.00  0.00     0.016 N 
HETATM    4  C8  UNL     1      25.658   2.773  53.830  1.00  0.00     0.299 A 
HETATM    5  C9  UNL     1      26.794   1.965  53.834  1.00  0.00     0.302 A 
HETATM    6  C10 UNL     1      26.214   0.593  53.709  1.00  0.00     0.231 A 
HETATM    7  C11 UNL     1      27.809   0.205  53.884  1.00  0.00    -0.029 A 
HETATM    8  C12 UNL     1      29.040   0.121  54.124  1.00  0.00     0.006 A 
HETATM    9  C13 UNL     1      29.855  -1.037  53.760  1.00  0.00    -0.003 A 
HETATM   10  C14 UNL     1      28.896  -1.737  53.172  1.00  0.00    -0.017 A 
HETATM   11  C15 UNL     1      27.651  -1.180  53.083  1.00  0.00     0.051 A 
HETATM   12  O3  UNL     1      26.387  -1.271  53.597  1.00  0.00     0.000 OA
ENDROOT
BRANCH   1  13
HETATM   13  C5  UNL     1      23.861  -0.701  53.626  1.00  0.00    -0.040 A 
HETATM   14  C4  UNL     1      23.076  -1.037  54.774  1.00  0.00     0.008 A 
HETATM   15  C3  UNL     1      21.766  -0.977  54.957  1.00  0.00     0.003 A 
HETATM   16  C2  UNL     1      21.102  -0.517  53.851  1.00  0.00     0.036 A 
HETATM   17  C1  UNL     1      21.626  -0.145  52.675  1.00  0.00     0.066 A 
HETATM   18  C16 UNL     1      22.965  -0.243  52.592  1.00  0.00     0.044 A 
BRANCH  17  19
HETATM   19  O1  UNL     1      21.005   0.318  51.546  1.00  0.00    -0.361 OA
HETATM   20  H1  UNL     1      21.257   1.148  51.055  1.00  0.00     0.217 HD
ENDBRANCH  17  19
ENDBRANCH   1  13
BRANCH   5  21
HETATM   21  O2  UNL     1      27.911   2.858  53.957  1.00  0.00    -0.361 OA
HETATM   22  H6  UNL     1      27.869   3.668  54.565  1.00  0.00     0.212 HD
ENDBRANCH   5  21
TORSDOF 4
ENDMDL
MODEL 3
REMARK VINA RESULT:      -8.8      1.835      3.143
REMARK  4 active torsions:
REMARK  status: ('A' for Active; 'I' for Inactive)
REMARK    1  A    between atoms: O1_1  and  C1_2 
REMARK    2  A    between atoms: C5_6  and  C6_7 
REMARK    3  A    between atoms: C9_11  and  O2_12 
REMARK    4  A    between atoms: C9_11  and  C10_13 
ROOT
HETATM    1  C6  UNL     1      23.791   0.549  52.409  1.00  0.00     0.087 A 
HETATM    2  C7  UNL     1      23.460  -0.067  53.266  1.00  0.00     0.230 A 
HETATM    3  N1  UNL     1      23.091  -0.778  54.258  1.00  0.00     0.016 N 
HETATM    4  C8  UNL     1      23.155  -1.486  55.306  1.00  0.00     0.299 A 
HETATM    5  C9  UNL     1      22.120  -1.031  54.490  1.00  0.00     0.302 A 
HETATM    6  C10 UNL     1      22.853  -0.250  53.447  1.00  0.00     0.231 A 
HETATM    7  C11 UNL     1      21.298   0.058  52.985  1.00  0.00    -0.029 A 
HETATM    8  C12 UNL     1      20.062   0.243  52.858  1.00  0.00     0.006 A 
HETATM    9  C13 UNL     1      19.430   0.643  51.600  1.00  0.00    -0.003 A 
HETATM   10  C14 UNL     1      20.530   0.661  50.861  1.00  0.00    -0.017 A 
HETATM   11  C15 UNL     1      21.710   0.300  51.449  1.00  0.00     0.051 A 
HETATM   12  O3  UNL     1      22.893   0.815  51.904  1.00  0.00     0.000 OA
ENDROOT
BRANCH   1  13
HETATM   13  C5  UNL     1      25.317   0.594  52.789  1.00  0.00    -0.040 A 
HETATM   14  C4  UNL     1      26.222  -0.497  52.593  1.00  0.00     0.008 A 
HETATM   15  C3  UNL     1      27.518  -0.584  52.849  1.00  0.00     0.003 A 
HETATM   16  C2  UNL     1      28.026   0.571  53.384  1.00  0.00     0.036 A 
HETATM   17  C1  UNL     1      27.371   1.708  53.652  1.00  0.00     0.066 A 
HETATM   18  C16 UNL     1      26.060   1.694  53.354  1.00  0.00     0.044 A 
BRANCH  17  19
HETATM   19  O1  UNL     1      27.835   2.882  54.184  1.00  0.00    -0.361 OA
HETATM   20  H1  UNL     1      27.780   3.134  55.147  1.00  0.00     0.217 HD
ENDBRANCH  17  19
ENDBRANCH   1  13
BRANCH   5  21
HETATM   21  O2  UNL     1      20.910  -1.539  55.070  1.00  0.00    -0.361 OA
HETATM   22  H6  UNL     1      20.923  -2.336  55.697  1.00  0.00     0.212 HD
ENDBRANCH   5  21
TORSDOF 4
ENDMDL
MODEL 4
REMARK VINA RESULT:      -8.5      1.977      3.300
REMARK  4 active torsions:
REMARK  status: ('A' for Active; 'I' for Inactive)
REMARK    1  A    between atoms: O1_1  and  C1_2 
REMARK    2  A    between atoms: C5_6  and  C6_7 
REMARK    3  A    between atoms: C9_11  and  O2_12 
REMARK    4  A    between atoms: C9_11  and  C10_13 
ROOT
HETATM    1  C6  UNL     1      24.714   0.322  52.609  1.00  0.00     0.087 A 
HETATM    2  C7  UNL     1      24.206  -0.204  53.438  1.00  0.00     0.230 A 
HETATM    3  N1  UNL     1      23.632  -0.816  54.398  1.00  0.00     0.016 N 
HETATM    4  C8  UNL     1      23.467  -1.575  55.399  1.00  0.00     0.299 A 
HETATM    5  C9  UNL     1      22.636  -0.746  54.648  1.00  0.00     0.302 A 
HETATM    6  C10 UNL     1      23.575  -0.185  53.629  1.00  0.00     0.231 A 
HETATM    7  C11 UNL     1      22.209   0.655  53.239  1.00  0.00    -0.029 A 
HETATM    8  C12 UNL     1      21.104   1.251  53.166  1.00  0.00     0.006 A 
HETATM    9  C13 UNL     1      20.629   1.923  51.957  1.00  0.00    -0.003 A 
HETATM   10  C14 UNL     1      21.662   1.623  51.183  1.00  0.00    -0.017 A 
HETATM   11  C15 UNL     1      22.659   0.849  51.707  1.00  0.00     0.051 A 
HETATM   12  O3  UNL     1      23.952   0.907  52.152  1.00  0.00     0.000 OA
ENDROOT
BRANCH   1  13
HETATM   13  C5  UNL     1      26.171  -0.171  52.939  1.00  0.00    -0.040 A 
HETATM   14  C4  UNL     1      27.183   0.658  53.518  1.00  0.00     0.008 A 
HETATM   15  C3  UNL     1      28.429   0.367  53.859  1.00  0.00     0.003 A 
HETATM   16  C2  UNL     1      28.754  -0.938  53.598  1.00  0.00     0.036 A 
HETATM   17  C1  UNL     1      27.974  -1.886  53.063  1.00  0.00     0.066 A 
HETATM   18  C16 UNL     1      26.726  -1.490  52.754  1.00  0.00     0.044 A 
BRANCH  17  19
HETATM   19  O1  UNL     1      28.253  -3.198  52.785  1.00  0.00    -0.361 OA
HETATM   20  H1  UNL     1      29.137  -3.541  52.477  1.00  0.00     0.217 HD
ENDBRANCH  17  19
ENDBRANCH   1  13
BRANCH   5  21
HETATM   21  O2  UNL     1      21.332  -0.858  55.237  1.00  0.00    -0.361 OA
HETATM   22  H6  UNL     1      20.945  -1.762  55.485  1.00  0.00     0.212 HD
ENDBRANCH   5  21
TORSDOF 4
ENDMDL
MODEL 5
REMARK VINA RESULT:      -8.5      1.645      5.591
REMARK  4 active torsions:
REMARK  status: ('A' for Active; 'I' for Inactive)
REMARK    1  A    between atoms: O1_1  and  C1_2 
REMARK    2  A    between atoms: C5_6  and  C6_7 
REMARK    3  A    between atoms: C9_11  and  O2_12 
REMARK    4  A    between atoms: C9_11  and  C10_13 
ROOT
HETATM    1  C6  UNL     1      25.562  -0.633  53.311  1.00  0.00     0.087 A 
HETATM    2  C7  UNL     1      25.803   0.399  52.995  1.00  0.00     0.230 A 
HETATM    3  N1  UNL     1      26.067   1.592  52.630  1.00  0.00     0.016 N 
HETATM    4  C8  UNL     1      25.897   2.783  52.232  1.00  0.00     0.299 A 
HETATM    5  C9  UNL     1      27.007   2.007  52.563  1.00  0.00     0.302 A 
HETATM    6  C10 UNL     1      26.387   0.701  52.940  1.00  0.00     0.231 A 
HETATM    7  C11 UNL     1      27.966   0.369  53.287  1.00  0.00    -0.029 A 
HETATM    8  C12 UNL     1      29.191   0.351  53.571  1.00  0.00     0.006 A 
HETATM    9  C13 UNL     1      29.976  -0.878  53.683  1.00  0.00    -0.003 A 
HETATM   10  C14 UNL     1      29.004  -1.724  53.372  1.00  0.00    -0.017 A 
HETATM   11  C15 UNL     1      27.778  -1.211  53.051  1.00  0.00     0.051 A 
HETATM   12  O3  UNL     1      26.504  -1.075  53.531  1.00  0.00     0.000 OA
ENDROOT
BRANCH   1  13
HETATM   13  C5  UNL     1      23.997  -0.477  53.282  1.00  0.00    -0.040 A 
HETATM   14  C4  UNL     1      23.288   0.291  52.305  1.00  0.00     0.008 A 
HETATM   15  C3  UNL     1      21.988   0.488  52.157  1.00  0.00     0.003 A 
HETATM   16  C2  UNL     1      21.246  -0.161  53.109  1.00  0.00     0.036 A 
HETATM   17  C1  UNL     1      21.691  -0.930  54.112  1.00  0.00     0.066 A 
HETATM   18  C16 UNL     1      23.028  -1.068  54.173  1.00  0.00     0.044 A 
BRANCH  17  19
HETATM   19  O1  UNL     1      20.992  -1.595  55.083  1.00  0.00    -0.361 OA
HETATM   20  H1  UNL     1      20.607  -2.509  54.985  1.00  0.00     0.217 HD
ENDBRANCH  17  19
ENDBRANCH   1  13
BRANCH   5  21
HETATM   21  O2  UNL     1      28.149   2.857  52.376  1.00  0.00    -0.361 OA
HETATM   22  H6  UNL     1      29.061   2.469  52.163  1.00  0.00     0.212 HD
ENDBRANCH   5  21
TORSDOF 4
ENDMDL
MODEL 6
REMARK VINA RESULT:      -8.2      1.491      1.868
REMARK  4 active torsions:
REMARK  status: ('A' for Active; 'I' for Inactive)
REMARK    1  A    between atoms: O1_1  and  C1_2 
REMARK    2  A    between atoms: C5_6  and  C6_7 
REMARK    3  A    between atoms: C9_11  and  O2_12 
REMARK    4  A    between atoms: C9_11  and  C10_13 
ROOT
HETATM    1  C6  UNL     1      24.778  -0.519  53.736  1.00  0.00     0.087 A 
HETATM    2  C7  UNL     1      24.709   0.300  52.997  1.00  0.00     0.230 A 
HETATM    3  N1  UNL     1      24.643   1.245  52.144  1.00  0.00     0.016 N 
HETATM    4  C8  UNL     1      25.009   2.161  51.348  1.00  0.00     0.299 A 
HETATM    5  C9  UNL     1      23.779   1.633  51.739  1.00  0.00     0.302 A 
HETATM    6  C10 UNL     1      24.179   0.574  52.715  1.00  0.00     0.231 A 
HETATM    7  C11 UNL     1      22.550   0.316  52.677  1.00  0.00    -0.029 A 
HETATM    8  C12 UNL     1      21.319   0.222  52.436  1.00  0.00     0.006 A 
HETATM    9  C13 UNL     1      20.361  -0.388  53.356  1.00  0.00    -0.003 A 
HETATM   10  C14 UNL     1      21.218  -0.672  54.325  1.00  0.00    -0.017 A 
HETATM   11  C15 UNL     1      22.524  -0.300  54.163  1.00  0.00     0.051 A 
HETATM   12  O3  UNL     1      23.770  -0.807  53.916  1.00  0.00     0.000 OA
ENDROOT
BRANCH   1  13
HETATM   13  C5  UNL     1      26.348  -0.619  53.759  1.00  0.00    -0.040 A 
HETATM   14  C4  UNL     1      27.198   0.309  54.440  1.00  0.00     0.008 A 
HETATM   15  C3  UNL     1      28.517   0.331  54.553  1.00  0.00     0.003 A 
HETATM   16  C2  UNL     1      29.117  -0.714  53.901  1.00  0.00     0.036 A 
HETATM   17  C1  UNL     1      28.526  -1.694  53.205  1.00  0.00     0.066 A 
HETATM   18  C16 UNL     1      27.184  -1.626  53.152  1.00  0.00     0.044 A 
BRANCH  17  19
HETATM   19  O1  UNL     1      29.081  -2.754  52.539  1.00  0.00    -0.361 OA
HETATM   20  H1  UNL     1      30.009  -3.092  52.675  1.00  0.00     0.217 HD
ENDBRANCH  17  19
ENDBRANCH   1  13
BRANCH   5  21
HETATM   21  O2  UNL     1      22.786   2.367  51.008  1.00  0.00    -0.361 OA
HETATM   22  H6  UNL     1      22.165   3.018  51.476  1.00  0.00     0.212 HD
ENDBRANCH   5  21
TORSDOF 4
ENDMDL
MODEL 7
REMARK VINA RESULT:      -8.0      2.096      4.619
REMARK  4 active torsions:
REMARK  status: ('A' for Active; 'I' for Inactive)
REMARK    1  A    between atoms: O1_1  and  C1_2 
REMARK    2  A    between atoms: C5_6  and  C6_7 
REMARK    3  A    between atoms: C9_11  and  O2_12 
REMARK    4  A    between atoms: C9_11  and  C10_13 
ROOT
HETATM    1  C6  UNL     1      22.964   1.819  52.256  1.00  0.00     0.087 A 
HETATM    2  C7  UNL     1      23.934   1.368  52.536  1.00  0.00     0.230 A 
HETATM    3  N1  UNL     1      25.058   0.859  52.854  1.00  0.00     0.016 N 
HETATM    4  C8  UNL     1      26.312   0.688  52.929  1.00  0.00     0.299 A 
HETATM    5  C9  UNL     1      25.198   0.019  53.433  1.00  0.00     0.302 A 
HETATM    6  C10 UNL     1      24.064   0.835  52.903  1.00  0.00     0.231 A 
HETATM    7  C11 UNL     1      23.222  -0.243  53.827  1.00  0.00    -0.029 A 
HETATM    8  C12 UNL     1      22.784  -1.087  54.650  1.00  0.00     0.006 A 
HETATM    9  C13 UNL     1      21.408  -1.580  54.644  1.00  0.00    -0.003 A 
HETATM   10  C14 UNL     1      20.991  -0.897  53.588  1.00  0.00    -0.017 A 
HETATM   11  C15 UNL     1      21.893  -0.108  52.931  1.00  0.00     0.051 A 
HETATM   12  O3  UNL     1      22.233   1.200  52.721  1.00  0.00     0.000 OA
ENDROOT
BRANCH   1  13
HETATM   13  C5  UNL     1      23.549   3.077  51.516  1.00  0.00    -0.040 A 
HETATM   14  C4  UNL     1      23.988   3.071  50.154  1.00  0.00     0.008 A 
HETATM   15  C3  UNL     1      24.478   4.053  49.413  1.00  0.00     0.003 A 
HETATM   16  C2  UNL     1      24.561   5.236  50.098  1.00  0.00     0.036 A 
HETATM   17  C1  UNL     1      24.211   5.475  51.369  1.00  0.00     0.066 A 
HETATM   18  C16 UNL     1      23.722   4.413  52.034  1.00  0.00     0.044 A 
BRANCH  17  19
HETATM   19  O1  UNL     1      24.274   6.636  52.093  1.00  0.00    -0.361 OA
HETATM   20  H1  UNL     1      25.061   7.248  52.123  1.00  0.00     0.217 HD
ENDBRANCH  17  19
ENDBRANCH   1  13
BRANCH   5  21
HETATM   21  O2  UNL     1      25.713  -1.086  54.190  1.00  0.00    -0.361 OA
HETATM   22  H6  UNL     1      25.773  -1.046  55.202  1.00  0.00     0.212 HD
ENDBRANCH   5  21
TORSDOF 4
ENDMDL
MODEL 8
REMARK VINA RESULT:      -7.9      1.565      2.894
REMARK  4 active torsions:
REMARK  status: ('A' for Active; 'I' for Inactive)
REMARK    1  A    between atoms: O1_1  and  C1_2 
REMARK    2  A    between atoms: C5_6  and  C6_7 
REMARK    3  A    between atoms: C9_11  and  O2_12 
REMARK    4  A    between atoms: C9_11  and  C10_13 
ROOT
HETATM    1  C6  UNL     1      25.615   1.362  52.140  1.00  0.00     0.087 A 
HETATM    2  C7  UNL     1      24.957   0.757  52.792  1.00  0.00     0.230 A 
HETATM    3  N1  UNL     1      24.211   0.055  53.551  1.00  0.00     0.016 N 
HETATM    4  C8  UNL     1      23.859  -0.768  54.448  1.00  0.00     0.299 A 
HETATM    5  C9  UNL     1      23.181   0.045  53.541  1.00  0.00     0.302 A 
HETATM    6  C10 UNL     1      24.299   0.723  52.817  1.00  0.00     0.231 A 
HETATM    7  C11 UNL     1      23.013   1.491  52.124  1.00  0.00    -0.029 A 
HETATM    8  C12 UNL     1      21.919   2.016  51.794  1.00  0.00     0.006 A 
HETATM    9  C13 UNL     1      21.711   2.722  50.530  1.00  0.00    -0.003 A 
HETATM   10  C14 UNL     1      22.926   2.535  50.034  1.00  0.00    -0.017 A 
HETATM   11  C15 UNL     1      23.817   1.801  50.766  1.00  0.00     0.051 A 
HETATM   12  O3  UNL     1      24.948   1.919  51.526  1.00  0.00     0.000 OA
ENDROOT
BRANCH   1  13
HETATM   13  C5  UNL     1      26.976   0.948  52.812  1.00  0.00    -0.040 A 
HETATM   14  C4  UNL     1      27.531  -0.369  52.747  1.00  0.00     0.008 A 
HETATM   15  C3  UNL     1      28.663  -0.841  53.246  1.00  0.00     0.003 A 
HETATM   16  C2  UNL     1      29.378   0.114  53.920  1.00  0.00     0.036 A 
HETATM   17  C1  UNL     1      29.056   1.401  54.107  1.00  0.00     0.066 A 
HETATM   18  C16 UNL     1      27.887   1.781  53.559  1.00  0.00     0.044 A 
BRANCH  17  19
HETATM   19  O1  UNL     1      29.735   2.387  54.771  1.00  0.00    -0.361 OA
HETATM   20  H1  UNL     1      29.603   3.365  54.631  1.00  0.00     0.217 HD
ENDBRANCH  17  19
ENDBRANCH   1  13
BRANCH   5  21
HETATM   21  O2  UNL     1      21.784  -0.186  53.775  1.00  0.00    -0.361 OA
HETATM   22  H6  UNL     1      21.421  -1.126  53.893  1.00  0.00     0.212 HD
ENDBRANCH   5  21
TORSDOF 4
ENDMDL
MODEL 9
REMARK VINA RESULT:      -7.8      2.034      5.748
REMARK  4 active torsions:
REMARK  status: ('A' for Active; 'I' for Inactive)
REMARK    1  A    between atoms: O1_1  and  C1_2 
REMARK    2  A    between atoms: C5_6  and  C6_7 
REMARK    3  A    between atoms: C9_11  and  O2_12 
REMARK    4  A    between atoms: C9_11  and  C10_13 
ROOT
HETATM    1  C6  UNL     1      23.619   1.285  52.052  1.00  0.00     0.087 A 
HETATM    2  C7  UNL     1      24.496   1.368  52.721  1.00  0.00     0.230 A 
HETATM    3  N1  UNL     1      25.501   1.455  53.500  1.00  0.00     0.016 N 
HETATM    4  C8  UNL     1      26.231   1.311  54.526  1.00  0.00     0.299 A 
HETATM    5  C9  UNL     1      26.385   1.941  53.292  1.00  0.00     0.302 A 
HETATM    6  C10 UNL     1      25.076   1.668  52.624  1.00  0.00     0.231 A 
HETATM    7  C11 UNL     1      25.861   2.436  51.393  1.00  0.00    -0.029 A 
HETATM    8  C12 UNL     1      26.655   2.950  50.565  1.00  0.00     0.006 A 
HETATM    9  C13 UNL     1      26.220   3.685  49.378  1.00  0.00    -0.003 A 
HETATM   10  C14 UNL     1      24.916   3.589  49.592  1.00  0.00    -0.017 A 
HETATM   11  C15 UNL     1      24.492   2.958  50.728  1.00  0.00     0.051 A 
HETATM   12  O3  UNL     1      23.903   1.805  51.168  1.00  0.00     0.000 OA
ENDROOT
BRANCH   1  13
HETATM   13  C5  UNL     1      22.769   0.337  52.976  1.00  0.00    -0.040 A 
HETATM   14  C4  UNL     1      21.366   0.111  52.813  1.00  0.00     0.008 A 
HETATM   15  C3  UNL     1      20.543  -0.666  53.500  1.00  0.00     0.003 A 
HETATM   16  C2  UNL     1      21.178  -1.336  54.513  1.00  0.00     0.036 A 
HETATM   17  C1  UNL     1      22.473  -1.280  54.848  1.00  0.00     0.066 A 
HETATM   18  C16 UNL     1      23.224  -0.463  54.087  1.00  0.00     0.044 A 
BRANCH  17  19
HETATM   19  O1  UNL     1      23.150  -1.927  55.848  1.00  0.00    -0.361 OA
HETATM   20  H1  UNL     1      23.694  -1.480  56.552  1.00  0.00     0.217 HD
ENDBRANCH  17  19
ENDBRANCH   1  13
BRANCH   5  21
HETATM   21  O2  UNL     1      27.702   2.512  53.305  1.00  0.00    -0.361 OA
HETATM   22  H6  UNL     1      27.925   3.327  52.744  1.00  0.00     0.212 HD
ENDBRANCH   5  21
TORSDOF 4
ENDMDL
