MODEL 1
REMARK VINA RESULT:      -9.3      0.000      0.000
REMARK  5 active torsions:
REMARK  status: ('A' for Active; 'I' for Inactive)
REMARK    1  A    between atoms: C12_12  and  O1_13 
REMARK    2  A    between atoms: O1_13  and  C13_14 
REMARK    3  A    between atoms: C13_14  and  C14_15 
REMARK    4  A    between atoms: C23_25  and  C24_26 
REMARK    5  A    between atoms: C24_26  and  N1_27 
ROOT
HETATM    1  C1  UNL     1      23.526   3.698  51.670  1.00  0.00     0.017 C 
HETATM    2  C2  UNL     1      24.699   3.117  50.874  1.00  0.00    -0.025 A 
HETATM    3  C3  UNL     1      25.833   2.823  51.698  1.00  0.00     0.021 A 
HETATM    4  C4  UNL     1      27.024   2.507  52.502  1.00  0.00     0.036 A 
HETATM    5  C5  UNL     1      26.783   2.461  51.129  1.00  0.00     0.018 A 
HETATM    6  C6  UNL     1      25.929   2.642  50.151  1.00  0.00     0.012 A 
HETATM    7  C7  UNL     1      24.877   2.913  49.450  1.00  0.00    -0.018 A 
HETATM    8  C8  UNL     1      23.511   3.340  48.952  1.00  0.00     0.017 C 
HETATM    9  C9  UNL     1      22.376   2.649  49.564  1.00  0.00    -0.004 C 
HETATM   10  C10 UNL     1      21.538   1.872  50.293  1.00  0.00     0.006 C 
HETATM   11  C11 UNL     1      21.116   0.902  51.270  1.00  0.00     0.058 C 
HETATM   12  C12 UNL     1      21.503   0.097  52.239  1.00  0.00     0.052 C 
HETATM   13  C20 UNL     1      22.512  -0.485  53.198  1.00  0.00     0.036 C 
HETATM   14  C21 UNL     1      23.770   0.067  53.146  1.00  0.00     0.054 C 
HETATM   15  C22 UNL     1      24.695  -0.547  54.146  1.00  0.00     0.164 C 
HETATM   16  O2  UNL     1      25.295  -1.191  55.040  1.00  0.00    -0.292 OA
HETATM   17  C23 UNL     1      25.930   0.227  53.906  1.00  0.00     0.139 C 
HETATM   18  S1  UNL     1      25.647   2.050  53.709  1.00  0.00    -0.142 SA
ENDROOT
BRANCH  12  19
HETATM   19  O1  UNL     1      20.488  -0.629  52.716  1.00  0.00    -0.350 OA
BRANCH  19  20
HETATM   20  C13 UNL     1      19.562  -0.677  53.683  1.00  0.00     0.214 C 
BRANCH  20  21
HETATM   21  C14 UNL     1      18.240  -1.255  53.217  1.00  0.00    -0.034 A 
HETATM   22  C15 UNL     1      17.249  -0.621  52.393  1.00  0.00     0.009 A 
HETATM   23  C16 UNL     1      16.334  -1.570  52.294  1.00  0.00     0.001 A 
HETATM   24  C17 UNL     1      15.902  -2.793  52.582  1.00  0.00     0.000 A 
HETATM   25  C18 UNL     1      16.980  -3.332  53.408  1.00  0.00     0.001 A 
HETATM   26  C19 UNL     1      18.128  -2.569  53.719  1.00  0.00     0.009 A 
ENDBRANCH  20  21
ENDBRANCH  19  20
ENDBRANCH  12  19
BRANCH  17  27
HETATM   27  C24 UNL     1      27.072   0.031  54.836  1.00  0.00     0.139 C 
BRANCH  27  28
HETATM   28  N1  UNL     1      28.308  -0.294  54.282  1.00  0.00    -0.419 N 
HETATM   29  C25 UNL     1      28.128  -1.021  53.046  1.00  0.00     0.142 C 
HETATM   30  C26 UNL     1      29.355   0.615  54.189  1.00  0.00     0.142 C 
ENDBRANCH  27  28
ENDBRANCH  17  27
TORSDOF 5
ENDMDL
MODEL 2
REMARK VINA RESULT:      -8.9      3.121      8.128
REMARK  5 active torsions:
REMARK  status: ('A' for Active; 'I' for Inactive)
REMARK    1  A    between atoms: C12_12  and  O1_13 
REMARK    2  A    between atoms: O1_13  and  C13_14 
REMARK    3  A    between atoms: C13_14  and  C14_15 
REMARK    4  A    between atoms: C23_25  and  C24_26 
REMARK    5  A    between atoms: C24_26  and  N1_27 
ROOT
HETATM    1  C1  UNL     1      20.086   2.154  52.888  1.00  0.00     0.017 C 
HETATM    2  C2  UNL     1      19.649   1.531  51.558  1.00  0.00    -0.025 A 
HETATM    3  C3  UNL     1      19.733   2.451  50.464  1.00  0.00     0.021 A 
HETATM    4  C4  UNL     1      19.798   3.360  49.309  1.00  0.00     0.036 A 
HETATM    5  C5  UNL     1      19.329   2.054  49.446  1.00  0.00     0.018 A 
HETATM    6  C6  UNL     1      19.138   1.026  50.238  1.00  0.00     0.012 A 
HETATM    7  C7  UNL     1      19.090   0.229  51.253  1.00  0.00    -0.018 A 
HETATM    8  C8  UNL     1      19.154  -0.410  52.626  1.00  0.00     0.017 C 
HETATM    9  C9  UNL     1      20.474  -0.409  53.258  1.00  0.00    -0.004 C 
HETATM   10  C10 UNL     1      21.777  -0.258  53.595  1.00  0.00     0.006 C 
HETATM   11  C11 UNL     1      23.154   0.152  53.486  1.00  0.00     0.058 C 
HETATM   12  C12 UNL     1      24.034   0.822  52.769  1.00  0.00     0.052 C 
HETATM   13  C20 UNL     1      24.457   1.725  51.637  1.00  0.00     0.036 C 
HETATM   14  C21 UNL     1      23.440   2.204  50.846  1.00  0.00     0.054 C 
HETATM   15  C22 UNL     1      23.943   3.111  49.771  1.00  0.00     0.164 C 
HETATM   16  O2  UNL     1      24.569   3.827  48.953  1.00  0.00    -0.292 OA
HETATM   17  C23 UNL     1      22.681   3.497  49.108  1.00  0.00     0.139 C 
HETATM   18  S1  UNL     1      21.312   3.918  50.289  1.00  0.00    -0.142 SA
ENDROOT
BRANCH  12  19
HETATM   19  O1  UNL     1      25.266   0.720  53.276  1.00  0.00    -0.350 OA
BRANCH  19  20
HETATM   20  C13 UNL     1      26.268   1.428  53.817  1.00  0.00     0.214 C 
BRANCH  20  21
HETATM   21  C14 UNL     1      27.609   0.726  53.732  1.00  0.00    -0.034 A 
HETATM   22  C15 UNL     1      28.902   1.269  54.041  1.00  0.00     0.009 A 
HETATM   23  C16 UNL     1      29.690   0.233  53.809  1.00  0.00     0.001 A 
HETATM   24  C17 UNL     1      29.857  -1.032  53.438  1.00  0.00     0.000 A 
HETATM   25  C18 UNL     1      28.493  -1.471  53.157  1.00  0.00     0.001 A 
HETATM   26  C19 UNL     1      27.389  -0.599  53.302  1.00  0.00     0.009 A 
ENDBRANCH  20  21
ENDBRANCH  19  20
ENDBRANCH  12  19
BRANCH  17  27
HETATM   27  C24 UNL     1      22.732   4.550  48.061  1.00  0.00     0.139 C 
BRANCH  27  28
HETATM   28  N1  UNL     1      21.816   4.467  47.015  1.00  0.00    -0.419 N 
HETATM   29  C25 UNL     1      21.438   5.790  46.575  1.00  0.00     0.142 C 
HETATM   30  C26 UNL     1      21.975   3.600  45.941  1.00  0.00     0.142 C 
ENDBRANCH  27  28
ENDBRANCH  17  27
TORSDOF 5
ENDMDL
MODEL 3
REMARK VINA RESULT:      -8.8      3.642      9.060
REMARK  5 active torsions:
REMARK  status: ('A' for Active; 'I' for Inactive)
REMARK    1  A    between atoms: C12_12  and  O1_13 
REMARK    2  A    between atoms: O1_13  and  C13_14 
REMARK    3  A    between atoms: C13_14  and  C14_15 
REMARK    4  A    between atoms: C23_25  and  C24_26 
REMARK    5  A    between atoms: C24_26  and  N1_27 
ROOT
HETATM    1  C1  UNL     1      24.883   1.869  53.765  1.00  0.00     0.017 C 
HETATM    2  C2  UNL     1      24.433   0.457  53.377  1.00  0.00    -0.025 A 
HETATM    3  C3  UNL     1      23.011   0.296  53.435  1.00  0.00     0.021 A 
HETATM    4  C4  UNL     1      21.556   0.081  53.483  1.00  0.00     0.036 A 
HETATM    5  C5  UNL     1      22.622  -0.783  53.234  1.00  0.00     0.018 A 
HETATM    6  C6  UNL     1      23.919  -0.931  53.112  1.00  0.00     0.012 A 
HETATM    7  C7  UNL     1      25.196  -0.735  53.063  1.00  0.00    -0.018 A 
HETATM    8  C8  UNL     1      26.600  -0.168  53.118  1.00  0.00     0.017 C 
HETATM    9  C9  UNL     1      26.841   0.995  52.262  1.00  0.00    -0.004 C 
HETATM   10  C10 UNL     1      26.773   2.040  51.403  1.00  0.00     0.006 C 
HETATM   11  C11 UNL     1      26.198   2.982  50.477  1.00  0.00     0.058 C 
HETATM   12  C12 UNL     1      25.091   3.389  49.889  1.00  0.00     0.052 C 
HETATM   13  C20 UNL     1      23.600   3.392  49.655  1.00  0.00     0.036 C 
HETATM   14  C21 UNL     1      22.869   2.555  50.464  1.00  0.00     0.054 C 
HETATM   15  C22 UNL     1      21.404   2.642  50.186  1.00  0.00     0.164 C 
HETATM   16  O2  UNL     1      20.234   2.864  49.794  1.00  0.00    -0.292 OA
HETATM   17  C23 UNL     1      20.866   1.696  51.184  1.00  0.00     0.139 C 
HETATM   18  S1  UNL     1      21.633   1.863  52.866  1.00  0.00    -0.142 SA
ENDROOT
BRANCH  12  19
HETATM   19  O1  UNL     1      25.328   4.369  49.012  1.00  0.00    -0.350 OA
BRANCH  19  20
HETATM   20  C13 UNL     1      25.552   5.686  48.905  1.00  0.00     0.214 C 
BRANCH  20  21
HETATM   21  C14 UNL     1      26.955   6.017  48.438  1.00  0.00    -0.034 A 
HETATM   22  C15 UNL     1      28.121   5.181  48.504  1.00  0.00     0.009 A 
HETATM   23  C16 UNL     1      29.039   5.955  47.951  1.00  0.00     0.001 A 
HETATM   24  C17 UNL     1      29.392   7.102  47.381  1.00  0.00     0.000 A 
HETATM   25  C18 UNL     1      28.142   7.856  47.365  1.00  0.00     0.001 A 
HETATM   26  C19 UNL     1      26.945   7.317  47.889  1.00  0.00     0.009 A 
ENDBRANCH  20  21
ENDBRANCH  19  20
ENDBRANCH  12  19
BRANCH  17  27
HETATM   27  C24 UNL     1      19.392   1.615  51.351  1.00  0.00     0.139 C 
BRANCH  27  28
HETATM   28  N1  UNL     1      18.771   0.408  51.035  1.00  0.00    -0.419 N 
HETATM   29  C25 UNL     1      18.386  -0.287  52.241  1.00  0.00     0.142 C 
HETATM   30  C26 UNL     1      17.796   0.298  50.051  1.00  0.00     0.142 C 
ENDBRANCH  27  28
ENDBRANCH  17  27
TORSDOF 5
ENDMDL
MODEL 4
REMARK VINA RESULT:      -8.7      4.307      9.634
REMARK  5 active torsions:
REMARK  status: ('A' for Active; 'I' for Inactive)
REMARK    1  A    between atoms: C12_12  and  O1_13 
REMARK    2  A    between atoms: O1_13  and  C13_14 
REMARK    3  A    between atoms: C13_14  and  C14_15 
REMARK    4  A    between atoms: C23_25  and  C24_26 
REMARK    5  A    between atoms: C24_26  and  N1_27 
ROOT
HETATM    1  C1  UNL     1      24.547   2.608  53.427  1.00  0.00     0.017 C 
HETATM    2  C2  UNL     1      23.698   1.435  52.926  1.00  0.00    -0.025 A 
HETATM    3  C3  UNL     1      22.310   1.770  52.811  1.00  0.00     0.021 A 
HETATM    4  C4  UNL     1      20.874   2.063  52.679  1.00  0.00     0.036 A 
HETATM    5  C5  UNL     1      21.607   0.888  52.518  1.00  0.00     0.018 A 
HETATM    6  C6  UNL     1      22.782   0.307  52.541  1.00  0.00     0.012 A 
HETATM    7  C7  UNL     1      24.045   0.055  52.650  1.00  0.00    -0.018 A 
HETATM    8  C8  UNL     1      25.540   0.109  52.894  1.00  0.00     0.017 C 
HETATM    9  C9  UNL     1      26.265   1.122  52.125  1.00  0.00    -0.004 C 
HETATM   10  C10 UNL     1      26.662   2.130  51.312  1.00  0.00     0.006 C 
HETATM   11  C11 UNL     1      26.560   3.213  50.368  1.00  0.00     0.058 C 
HETATM   12  C12 UNL     1      25.739   3.975  49.674  1.00  0.00     0.052 C 
HETATM   13  C20 UNL     1      24.378   4.488  49.268  1.00  0.00     0.036 C 
HETATM   14  C21 UNL     1      23.312   3.948  49.948  1.00  0.00     0.054 C 
HETATM   15  C22 UNL     1      22.010   4.531  49.506  1.00  0.00     0.164 C 
HETATM   16  O2  UNL     1      21.042   5.139  48.990  1.00  0.00    -0.292 OA
HETATM   17  C23 UNL     1      21.064   3.822  50.391  1.00  0.00     0.139 C 
HETATM   18  S1  UNL     1      21.626   3.714  52.156  1.00  0.00    -0.142 SA
ENDROOT
BRANCH  12  19
HETATM   19  O1  UNL     1      26.401   4.818  48.875  1.00  0.00    -0.350 OA
BRANCH  19  20
HETATM   20  C13 UNL     1      26.478   6.100  48.492  1.00  0.00     0.214 C 
BRANCH  20  21
HETATM   21  C14 UNL     1      27.866   6.506  48.042  1.00  0.00    -0.034 A 
HETATM   22  C15 UNL     1      28.268   7.759  47.465  1.00  0.00     0.009 A 
HETATM   23  C16 UNL     1      29.564   7.569  47.287  1.00  0.00     0.001 A 
HETATM   24  C17 UNL     1      30.643   6.800  47.382  1.00  0.00     0.000 A 
HETATM   25  C18 UNL     1      30.117   5.574  47.977  1.00  0.00     0.001 A 
HETATM   26  C19 UNL     1      28.748   5.435  48.298  1.00  0.00     0.009 A 
ENDBRANCH  20  21
ENDBRANCH  19  20
ENDBRANCH  12  19
BRANCH  17  27
HETATM   27  C24 UNL     1      19.640   4.249  50.381  1.00  0.00     0.139 C 
BRANCH  27  28
HETATM   28  N1  UNL     1      18.671   3.263  50.212  1.00  0.00    -0.419 N 
HETATM   29  C25 UNL     1      17.400   3.862  49.879  1.00  0.00     0.142 C 
HETATM   30  C26 UNL     1      18.894   2.104  49.478  1.00  0.00     0.142 C 
ENDBRANCH  27  28
ENDBRANCH  17  27
TORSDOF 5
ENDMDL
MODEL 5
REMARK VINA RESULT:      -8.6      5.595      8.376
REMARK  5 active torsions:
REMARK  status: ('A' for Active; 'I' for Inactive)
REMARK    1  A    between atoms: C12_12  and  O1_13 
REMARK    2  A    between atoms: O1_13  and  C13_14 
REMARK    3  A    between atoms: C13_14  and  C14_15 
REMARK    4  A    between atoms: C23_25  and  C24_26 
REMARK    5  A    between atoms: C24_26  and  N1_27 
ROOT
HETATM    1  C1  UNL     1      24.185   7.499  49.356  1.00  0.00     0.017 C 
HETATM    2  C2  UNL     1      24.354   7.603  47.837  1.00  0.00    -0.025 A 
HETATM    3  C3  UNL     1      25.606   8.187  47.460  1.00  0.00     0.021 A 
HETATM    4  C4  UNL     1      26.877   8.784  47.023  1.00  0.00     0.036 A 
HETATM    5  C5  UNL     1      25.748   8.370  46.318  1.00  0.00     0.018 A 
HETATM    6  C6  UNL     1      24.551   7.836  46.365  1.00  0.00     0.012 A 
HETATM    7  C7  UNL     1      23.439   7.304  46.753  1.00  0.00    -0.018 A 
HETATM    8  C8  UNL     1      22.273   6.743  47.543  1.00  0.00     0.017 C 
HETATM    9  C9  UNL     1      22.598   5.630  48.436  1.00  0.00    -0.004 C 
HETATM   10  C10 UNL     1      23.180   4.648  49.165  1.00  0.00     0.006 C 
HETATM   11  C11 UNL     1      24.221   3.802  49.691  1.00  0.00     0.058 C 
HETATM   12  C12 UNL     1      25.517   3.566  49.719  1.00  0.00     0.052 C 
HETATM   13  C20 UNL     1      26.960   3.872  49.401  1.00  0.00     0.036 C 
HETATM   14  C21 UNL     1      27.183   5.044  48.718  1.00  0.00     0.054 C 
HETATM   15  C22 UNL     1      28.637   5.283  48.472  1.00  0.00     0.164 C 
HETATM   16  O2  UNL     1      29.887   5.287  48.369  1.00  0.00    -0.292 OA
HETATM   17  C23 UNL     1      28.599   6.584  47.772  1.00  0.00     0.139 C 
HETATM   18  S1  UNL     1      27.442   7.814  48.540  1.00  0.00    -0.142 SA
ENDROOT
BRANCH  12  19
HETATM   19  O1  UNL     1      25.806   2.473  50.433  1.00  0.00    -0.350 OA
BRANCH  19  20
HETATM   20  C13 UNL     1      25.450   1.774  51.519  1.00  0.00     0.214 C 
BRANCH  20  21
HETATM   21  C14 UNL     1      26.632   1.194  52.269  1.00  0.00    -0.034 A 
HETATM   22  C15 UNL     1      27.710   1.909  52.895  1.00  0.00     0.009 A 
HETATM   23  C16 UNL     1      28.429   0.922  53.401  1.00  0.00     0.001 A 
HETATM   24  C17 UNL     1      28.630  -0.376  53.604  1.00  0.00     0.000 A 
HETATM   25  C18 UNL     1      27.485  -0.990  52.936  1.00  0.00     0.001 A 
HETATM   26  C19 UNL     1      26.505  -0.211  52.279  1.00  0.00     0.009 A 
ENDBRANCH  20  21
ENDBRANCH  19  20
ENDBRANCH  12  19
BRANCH  17  27
HETATM   27  C24 UNL     1      29.887   7.268  47.492  1.00  0.00     0.139 C 
BRANCH  27  28
HETATM   28  N1  UNL     1      30.123   8.486  48.124  1.00  0.00    -0.419 N 
HETATM   29  C25 UNL     1      30.996   8.300  49.260  1.00  0.00     0.142 C 
HETATM   30  C26 UNL     1      30.435   9.648  47.429  1.00  0.00     0.142 C 
ENDBRANCH  27  28
ENDBRANCH  17  27
TORSDOF 5
ENDMDL
MODEL 6
REMARK VINA RESULT:      -8.6      2.578      7.000
REMARK  5 active torsions:
REMARK  status: ('A' for Active; 'I' for Inactive)
REMARK    1  A    between atoms: C12_12  and  O1_13 
REMARK    2  A    between atoms: O1_13  and  C13_14 
REMARK    3  A    between atoms: C13_14  and  C14_15 
REMARK    4  A    between atoms: C23_25  and  C24_26 
REMARK    5  A    between atoms: C24_26  and  N1_27 
ROOT
HETATM    1  C1  UNL     1      21.946  -0.217  51.931  1.00  0.00     0.017 C 
HETATM    2  C2  UNL     1      21.853  -0.319  53.457  1.00  0.00    -0.025 A 
HETATM    3  C3  UNL     1      23.044  -0.853  54.047  1.00  0.00     0.021 A 
HETATM    4  C4  UNL     1      24.244  -1.400  54.700  1.00  0.00     0.036 A 
HETATM    5  C5  UNL     1      22.994  -1.034  55.196  1.00  0.00     0.018 A 
HETATM    6  C6  UNL     1      21.802  -0.550  54.941  1.00  0.00     0.012 A 
HETATM    7  C7  UNL     1      20.753  -0.062  54.365  1.00  0.00    -0.018 A 
HETATM    8  C8  UNL     1      19.720   0.453  53.383  1.00  0.00     0.017 C 
HETATM    9  C9  UNL     1      20.149   1.582  52.556  1.00  0.00    -0.004 C 
HETATM   10  C10 UNL     1      20.808   2.590  51.935  1.00  0.00     0.006 C 
HETATM   11  C11 UNL     1      21.889   3.479  51.594  1.00  0.00     0.058 C 
HETATM   12  C12 UNL     1      23.159   3.768  51.790  1.00  0.00     0.052 C 
HETATM   13  C20 UNL     1      24.537   3.520  52.353  1.00  0.00     0.036 C 
HETATM   14  C21 UNL     1      24.686   2.355  53.069  1.00  0.00     0.054 C 
HETATM   15  C22 UNL     1      26.083   2.175  53.565  1.00  0.00     0.164 C 
HETATM   16  O2  UNL     1      27.296   2.222  53.882  1.00  0.00    -0.292 OA
HETATM   17  C23 UNL     1      25.978   0.872  54.252  1.00  0.00     0.139 C 
HETATM   18  S1  UNL     1      25.023  -0.403  53.299  1.00  0.00    -0.142 SA
ENDROOT
BRANCH  12  19
HETATM   19  O1  UNL     1      23.523   4.874  51.133  1.00  0.00    -0.350 OA
BRANCH  19  20
HETATM   20  C13 UNL     1      23.564   5.438  49.918  1.00  0.00     0.214 C 
BRANCH  20  21
HETATM   21  C14 UNL     1      24.975   5.655  49.408  1.00  0.00    -0.034 A 
HETATM   22  C15 UNL     1      25.581   6.894  49.008  1.00  0.00     0.009 A 
HETATM   23  C16 UNL     1      26.799   6.503  48.677  1.00  0.00     0.001 A 
HETATM   24  C17 UNL     1      27.707   5.543  48.538  1.00  0.00     0.000 A 
HETATM   25  C18 UNL     1      26.986   4.349  48.973  1.00  0.00     0.001 A 
HETATM   26  C19 UNL     1      25.640   4.411  49.398  1.00  0.00     0.009 A 
ENDBRANCH  20  21
ENDBRANCH  19  20
ENDBRANCH  12  19
BRANCH  17  27
HETATM   27  C24 UNL     1      27.226   0.240  54.753  1.00  0.00     0.139 C 
BRANCH  27  28
HETATM   28  N1  UNL     1      28.103  -0.295  53.812  1.00  0.00    -0.419 N 
HETATM   29  C25 UNL     1      29.469  -0.132  54.252  1.00  0.00     0.142 C 
HETATM   30  C26 UNL     1      27.905  -1.534  53.217  1.00  0.00     0.142 C 
ENDBRANCH  27  28
ENDBRANCH  17  27
TORSDOF 5
ENDMDL
MODEL 7
REMARK VINA RESULT:      -8.2      4.025      8.991
REMARK  5 active torsions:
REMARK  status: ('A' for Active; 'I' for Inactive)
REMARK    1  A    between atoms: C12_12  and  O1_13 
REMARK    2  A    between atoms: O1_13  and  C13_14 
REMARK    3  A    between atoms: C13_14  and  C14_15 
REMARK    4  A    between atoms: C23_25  and  C24_26 
REMARK    5  A    between atoms: C24_26  and  N1_27 
ROOT
HETATM    1  C1  UNL     1      24.576   2.390  53.465  1.00  0.00     0.017 C 
HETATM    2  C2  UNL     1      23.778   1.154  53.036  1.00  0.00    -0.025 A 
HETATM    3  C3  UNL     1      22.375   1.417  52.921  1.00  0.00     0.021 A 
HETATM    4  C4  UNL     1      20.926   1.636  52.792  1.00  0.00     0.036 A 
HETATM    5  C5  UNL     1      21.712   0.489  52.683  1.00  0.00     0.018 A 
HETATM    6  C6  UNL     1      22.913  -0.035  52.722  1.00  0.00     0.012 A 
HETATM    7  C7  UNL     1      24.188  -0.221  52.829  1.00  0.00    -0.018 A 
HETATM    8  C8  UNL     1      25.681  -0.084  53.051  1.00  0.00     0.017 C 
HETATM    9  C9  UNL     1      26.350   0.919  52.221  1.00  0.00    -0.004 C 
HETATM   10  C10 UNL     1      26.691   1.900  51.351  1.00  0.00     0.006 C 
HETATM   11  C11 UNL     1      26.528   2.926  50.354  1.00  0.00     0.058 C 
HETATM   12  C12 UNL     1      25.665   3.611  49.631  1.00  0.00     0.052 C 
HETATM   13  C20 UNL     1      24.279   4.037  49.216  1.00  0.00     0.036 C 
HETATM   14  C21 UNL     1      23.246   3.486  49.936  1.00  0.00     0.054 C 
HETATM   15  C22 UNL     1      21.914   3.982  49.479  1.00  0.00     0.164 C 
HETATM   16  O2  UNL     1      20.913   4.517  48.944  1.00  0.00    -0.292 OA
HETATM   17  C23 UNL     1      21.010   3.278  50.412  1.00  0.00     0.139 C 
HETATM   18  S1  UNL     1      21.594   3.289  52.173  1.00  0.00    -0.142 SA
ENDROOT
BRANCH  12  19
HETATM   19  O1  UNL     1      26.279   4.440  48.781  1.00  0.00    -0.350 OA
BRANCH  19  20
HETATM   20  C13 UNL     1      27.147   5.459  48.710  1.00  0.00     0.214 C 
BRANCH  20  21
HETATM   21  C14 UNL     1      26.473   6.811  48.591  1.00  0.00    -0.034 A 
HETATM   22  C15 UNL     1      26.236   7.570  47.395  1.00  0.00     0.009 A 
HETATM   23  C16 UNL     1      25.614   8.635  47.871  1.00  0.00     0.001 A 
HETATM   24  C17 UNL     1      25.117   9.322  48.894  1.00  0.00     0.000 A 
HETATM   25  C18 UNL     1      25.410   8.460  50.036  1.00  0.00     0.001 A 
HETATM   26  C19 UNL     1      26.079   7.225  49.881  1.00  0.00     0.009 A 
ENDBRANCH  20  21
ENDBRANCH  19  20
ENDBRANCH  12  19
BRANCH  17  27
HETATM   27  C24 UNL     1      19.568   3.637  50.397  1.00  0.00     0.139 C 
BRANCH  27  28
HETATM   28  N1  UNL     1      18.645   2.612  50.595  1.00  0.00    -0.419 N 
HETATM   29  C25 UNL     1      17.607   3.043  51.503  1.00  0.00     0.142 C 
HETATM   30  C26 UNL     1      18.127   1.854  49.553  1.00  0.00     0.142 C 
ENDBRANCH  27  28
ENDBRANCH  17  27
TORSDOF 5
ENDMDL
MODEL 8
REMARK VINA RESULT:      -8.2      5.308      8.304
REMARK  5 active torsions:
REMARK  status: ('A' for Active; 'I' for Inactive)
REMARK    1  A    between atoms: C12_12  and  O1_13 
REMARK    2  A    between atoms: O1_13  and  C13_14 
REMARK    3  A    between atoms: C13_14  and  C14_15 
REMARK    4  A    between atoms: C23_25  and  C24_26 
REMARK    5  A    between atoms: C24_26  and  N1_27 
ROOT
HETATM    1  C1  UNL     1      23.136   6.807  48.998  1.00  0.00     0.017 C 
HETATM    2  C2  UNL     1      23.346   6.983  47.491  1.00  0.00    -0.025 A 
HETATM    3  C3  UNL     1      24.328   7.980  47.183  1.00  0.00     0.021 A 
HETATM    4  C4  UNL     1      25.326   8.996  46.816  1.00  0.00     0.036 A 
HETATM    5  C5  UNL     1      24.462   8.215  46.050  1.00  0.00     0.018 A 
HETATM    6  C6  UNL     1      23.533   7.290  46.031  1.00  0.00     0.012 A 
HETATM    7  C7  UNL     1      22.663   6.391  46.357  1.00  0.00    -0.018 A 
HETATM    8  C8  UNL     1      21.730   5.443  47.082  1.00  0.00     0.017 C 
HETATM    9  C9  UNL     1      22.377   4.507  48.003  1.00  0.00    -0.004 C 
HETATM   10  C10 UNL     1      23.227   3.787  48.775  1.00  0.00     0.006 C 
HETATM   11  C11 UNL     1      24.468   3.362  49.369  1.00  0.00     0.058 C 
HETATM   12  C12 UNL     1      25.759   3.603  49.476  1.00  0.00     0.052 C 
HETATM   13  C20 UNL     1      27.014   4.407  49.242  1.00  0.00     0.036 C 
HETATM   14  C21 UNL     1      26.845   5.590  48.562  1.00  0.00     0.054 C 
HETATM   15  C22 UNL     1      28.129   6.334  48.400  1.00  0.00     0.164 C 
HETATM   16  O2  UNL     1      29.300   6.784  48.371  1.00  0.00    -0.292 OA
HETATM   17  C23 UNL     1      27.671   7.544  47.687  1.00  0.00     0.139 C 
HETATM   18  S1  UNL     1      26.109   8.272  48.374  1.00  0.00    -0.142 SA
ENDROOT
BRANCH  12  19
HETATM   19  O1  UNL     1      26.376   2.676  50.216  1.00  0.00    -0.350 OA
BRANCH  19  20
HETATM   20  C13 UNL     1      26.855   2.423  51.442  1.00  0.00     0.214 C 
BRANCH  20  21
HETATM   21  C14 UNL     1      26.206   1.222  52.100  1.00  0.00    -0.034 A 
HETATM   22  C15 UNL     1      26.752  -0.099  52.245  1.00  0.00     0.009 A 
HETATM   23  C16 UNL     1      25.784  -0.720  52.897  1.00  0.00     0.001 A 
HETATM   24  C17 UNL     1      24.583  -0.711  53.465  1.00  0.00     0.000 A 
HETATM   25  C18 UNL     1      24.137   0.665  53.261  1.00  0.00     0.001 A 
HETATM   26  C19 UNL     1      24.940   1.612  52.586  1.00  0.00     0.009 A 
ENDBRANCH  20  21
ENDBRANCH  19  20
ENDBRANCH  12  19
BRANCH  17  27
HETATM   27  C24 UNL     1      28.646   8.646  47.477  1.00  0.00     0.139 C 
BRANCH  27  28
HETATM   28  N1  UNL     1      28.878   9.064  46.169  1.00  0.00    -0.419 N 
HETATM   29  C25 UNL     1      30.252   9.480  46.013  1.00  0.00     0.142 C 
HETATM   30  C26 UNL     1      28.432   8.354  45.061  1.00  0.00     0.142 C 
ENDBRANCH  27  28
ENDBRANCH  17  27
TORSDOF 5
ENDMDL
MODEL 9
REMARK VINA RESULT:      -7.9      3.527      8.299
REMARK  5 active torsions:
REMARK  status: ('A' for Active; 'I' for Inactive)
REMARK    1  A    between atoms: C12_12  and  O1_13 
REMARK    2  A    between atoms: O1_13  and  C13_14 
REMARK    3  A    between atoms: C13_14  and  C14_15 
REMARK    4  A    between atoms: C23_25  and  C24_26 
REMARK    5  A    between atoms: C24_26  and  N1_27 
ROOT
HETATM    1  C1  UNL     1      24.960   2.182  53.681  1.00  0.00     0.017 C 
HETATM    2  C2  UNL     1      24.547   0.748  53.333  1.00  0.00    -0.025 A 
HETATM    3  C3  UNL     1      23.129   0.554  53.391  1.00  0.00     0.021 A 
HETATM    4  C4  UNL     1      21.680   0.303  53.440  1.00  0.00     0.036 A 
HETATM    5  C5  UNL     1      22.768  -0.541  53.221  1.00  0.00     0.018 A 
HETATM    6  C6  UNL     1      24.070  -0.659  53.108  1.00  0.00     0.012 A 
HETATM    7  C7  UNL     1      25.341  -0.433  53.057  1.00  0.00    -0.018 A 
HETATM    8  C8  UNL     1      26.730   0.171  53.101  1.00  0.00     0.017 C 
HETATM    9  C9  UNL     1      26.946   1.314  52.211  1.00  0.00    -0.004 C 
HETATM   10  C10 UNL     1      26.855   2.331  51.321  1.00  0.00     0.006 C 
HETATM   11  C11 UNL     1      26.260   3.230  50.365  1.00  0.00     0.058 C 
HETATM   12  C12 UNL     1      25.146   3.591  49.762  1.00  0.00     0.052 C 
HETATM   13  C20 UNL     1      23.657   3.550  49.523  1.00  0.00     0.036 C 
HETATM   14  C21 UNL     1      22.943   2.719  50.354  1.00  0.00     0.054 C 
HETATM   15  C22 UNL     1      21.478   2.761  50.068  1.00  0.00     0.164 C 
HETATM   16  O2  UNL     1      20.304   2.941  49.665  1.00  0.00    -0.292 OA
HETATM   17  C23 UNL     1      20.960   1.831  51.092  1.00  0.00     0.139 C 
HETATM   18  S1  UNL     1      21.715   2.068  52.771  1.00  0.00    -0.142 SA
ENDROOT
BRANCH  12  19
HETATM   19  O1  UNL     1      25.362   4.551  48.857  1.00  0.00    -0.350 OA
BRANCH  19  20
HETATM   20  C13 UNL     1      25.855   5.786  48.696  1.00  0.00     0.214 C 
BRANCH  20  21
HETATM   21  C14 UNL     1      24.782   6.853  48.623  1.00  0.00    -0.034 A 
HETATM   22  C15 UNL     1      24.143   7.374  47.446  1.00  0.00     0.009 A 
HETATM   23  C16 UNL     1      23.298   8.249  47.964  1.00  0.00     0.001 A 
HETATM   24  C17 UNL     1      22.771   8.861  49.019  1.00  0.00     0.000 A 
HETATM   25  C18 UNL     1      23.487   8.255  50.138  1.00  0.00     0.001 A 
HETATM   26  C19 UNL     1      24.478   7.268  49.936  1.00  0.00     0.009 A 
ENDBRANCH  20  21
ENDBRANCH  19  20
ENDBRANCH  12  19
BRANCH  17  27
HETATM   27  C24 UNL     1      19.487   1.718  51.256  1.00  0.00     0.139 C 
BRANCH  27  28
HETATM   28  N1  UNL     1      18.890   0.506  50.918  1.00  0.00    -0.419 N 
HETATM   29  C25 UNL     1      18.568  -0.243  52.110  1.00  0.00     0.142 C 
HETATM   30  C26 UNL     1      17.885   0.401  49.964  1.00  0.00     0.142 C 
ENDBRANCH  27  28
ENDBRANCH  17  27
TORSDOF 5
ENDMDL
