MODEL 1
REMARK VINA RESULT:      -7.4      0.000      0.000
REMARK  11 active torsions:
REMARK  status: ('A' for Active; 'I' for Inactive)
REMARK    1  A    between atoms: C2_3  and  S1_4 
REMARK    2  A    between atoms: S1_4  and  S2_5 
REMARK    3  A    between atoms: S2_5  and  C3_6 
REMARK    4  A    between atoms: C4_7  and  C5_8 
REMARK    5  A    between atoms: C5_8  and  C6_9 
REMARK    6  A    between atoms: C6_9  and  C7_10 
REMARK    7  A    between atoms: C7_10  and  O2_12 
REMARK    8  A    between atoms: C8_13  and  C9_14 
REMARK    9  A    between atoms: C9_14  and  C10_15 
REMARK   10  A    between atoms: C10_15  and  C11_16 
REMARK   11  A    between atoms: C11_16  and  O4_18 
ROOT
HETATM    1  C1  UNL     1      26.545   2.943  50.707  1.00  0.00     0.157 C 
HETATM    2  N1  UNL     1      25.878   2.134  51.709  1.00  0.00    -0.344 N 
HETATM    3  C2  UNL     1      24.572   1.910  51.895  1.00  0.00     0.090 A 
HETATM    4  C8  UNL     1      24.321   1.088  53.000  1.00  0.00    -0.011 A 
HETATM    5  C12 UNL     1      25.610   0.863  53.423  1.00  0.00    -0.000 A 
HETATM    6  C13 UNL     1      26.025   0.101  54.487  1.00  0.00     0.014 A 
HETATM    7  C14 UNL     1      27.349  -0.054  54.796  1.00  0.00     0.001 A 
HETATM    8  C15 UNL     1      28.338   0.549  54.055  1.00  0.00     0.002 A 
HETATM    9  C16 UNL     1      27.918   1.311  52.993  1.00  0.00     0.030 A 
HETATM   10  C17 UNL     1      26.579   1.475  52.671  1.00  0.00     0.045 A 
ENDROOT
BRANCH   3  11
HETATM   11  S1  UNL     1      23.336   2.616  50.783  1.00  0.00    -0.035 SA
BRANCH  11  12
HETATM   12  S2  UNL     1      22.780   4.489  51.638  1.00  0.00    -0.063 SA
BRANCH  12  13
HETATM   13  C3  UNL     1      23.204   5.754  50.421  1.00  0.00     0.053 C 
HETATM   14  C4  UNL     1      23.980   6.760  50.882  1.00  0.00    -0.018 C 
BRANCH  14  15
HETATM   15  C5  UNL     1      24.555   7.983  50.243  1.00  0.00     0.038 C 
BRANCH  15  16
HETATM   16  C6  UNL     1      26.030   7.755  50.088  1.00  0.00     0.113 C 
BRANCH  16  17
HETATM   17  C7  UNL     1      26.763   9.054  50.301  1.00  0.00     0.139 C 
HETATM   18  O1  UNL     1      26.722  10.108  49.636  1.00  0.00    -0.650 OA
BRANCH  17  19
HETATM   19  O2  UNL     1      27.664   9.469  51.246  1.00  0.00    -0.776 OA
HETATM   20  H10 UNL     1      27.694  10.413  51.610  1.00  0.00     0.167 HD
ENDBRANCH  17  19
ENDBRANCH  16  17
ENDBRANCH  15  16
ENDBRANCH  14  15
ENDBRANCH  12  13
ENDBRANCH  11  12
ENDBRANCH   3  11
BRANCH   4  21
HETATM   21  C9  UNL     1      22.972   0.683  53.375  1.00  0.00     0.053 C 
BRANCH  21  22
HETATM   22  C10 UNL     1      22.666  -0.760  53.438  1.00  0.00     0.115 C 
BRANCH  22  23
HETATM   23  C11 UNL     1      22.260  -1.318  54.722  1.00  0.00     0.139 C 
HETATM   24  O3  UNL     1      22.913  -1.652  55.729  1.00  0.00    -0.650 OA
BRANCH  23  25
HETATM   25  O4  UNL     1      20.877  -1.546  54.919  1.00  0.00    -0.776 OA
HETATM   26  H15 UNL     1      20.453  -1.645  55.837  1.00  0.00     0.167 HD
ENDBRANCH  23  25
ENDBRANCH  22  23
ENDBRANCH  21  22
ENDBRANCH   4  21
TORSDOF 11
ENDMDL
MODEL 2
REMARK VINA RESULT:      -7.3      4.428      6.139
REMARK  11 active torsions:
REMARK  status: ('A' for Active; 'I' for Inactive)
REMARK    1  A    between atoms: C2_3  and  S1_4 
REMARK    2  A    between atoms: S1_4  and  S2_5 
REMARK    3  A    between atoms: S2_5  and  C3_6 
REMARK    4  A    between atoms: C4_7  and  C5_8 
REMARK    5  A    between atoms: C5_8  and  C6_9 
REMARK    6  A    between atoms: C6_9  and  C7_10 
REMARK    7  A    between atoms: C7_10  and  O2_12 
REMARK    8  A    between atoms: C8_13  and  C9_14 
REMARK    9  A    between atoms: C9_14  and  C10_15 
REMARK   10  A    between atoms: C10_15  and  C11_16 
REMARK   11  A    between atoms: C11_16  and  O4_18 
ROOT
HETATM    1  C1  UNL     1      25.871   3.308  50.613  1.00  0.00     0.157 C 
HETATM    2  N1  UNL     1      25.294   2.335  51.521  1.00  0.00    -0.344 N 
HETATM    3  C2  UNL     1      24.021   1.952  51.668  1.00  0.00     0.090 A 
HETATM    4  C8  UNL     1      23.860   1.001  52.683  1.00  0.00    -0.011 A 
HETATM    5  C12 UNL     1      25.165   0.878  53.097  1.00  0.00    -0.000 A 
HETATM    6  C13 UNL     1      25.660   0.064  54.086  1.00  0.00     0.014 A 
HETATM    7  C14 UNL     1      26.992   0.025  54.395  1.00  0.00     0.001 A 
HETATM    8  C15 UNL     1      27.910   0.803  53.730  1.00  0.00     0.002 A 
HETATM    9  C16 UNL     1      27.411   1.617  52.744  1.00  0.00     0.030 A 
HETATM   10  C17 UNL     1      26.063   1.664  52.422  1.00  0.00     0.045 A 
ENDROOT
BRANCH   3  11
HETATM   11  S1  UNL     1      22.717   2.626  50.615  1.00  0.00    -0.035 SA
BRANCH  11  12
HETATM   12  S2  UNL     1      21.635   4.004  51.832  1.00  0.00    -0.063 SA
BRANCH  12  13
HETATM   13  C3  UNL     1      19.933   3.403  51.896  1.00  0.00     0.053 C 
HETATM   14  C4  UNL     1      19.781   2.080  51.665  1.00  0.00    -0.018 C 
BRANCH  14  15
HETATM   15  C5  UNL     1      18.587   1.182  51.621  1.00  0.00     0.038 C 
BRANCH  15  16
HETATM   16  C6  UNL     1      19.029  -0.173  52.092  1.00  0.00     0.113 C 
BRANCH  16  17
HETATM   17  C7  UNL     1      17.889  -0.853  52.805  1.00  0.00     0.139 C 
HETATM   18  O1  UNL     1      16.764  -1.178  52.375  1.00  0.00    -0.650 OA
BRANCH  17  19
HETATM   19  O2  UNL     1      17.733  -1.304  54.089  1.00  0.00    -0.776 OA
HETATM   20  H10 UNL     1      18.457  -1.796  54.597  1.00  0.00     0.167 HD
ENDBRANCH  17  19
ENDBRANCH  16  17
ENDBRANCH  15  16
ENDBRANCH  14  15
ENDBRANCH  12  13
ENDBRANCH  11  12
ENDBRANCH   3  11
BRANCH   4  21
HETATM   21  C9  UNL     1      22.564   0.416  52.998  1.00  0.00     0.053 C 
BRANCH  21  22
HETATM   22  C10 UNL     1      22.499  -1.032  53.280  1.00  0.00     0.115 C 
BRANCH  22  23
HETATM   23  C11 UNL     1      22.113  -1.452  54.622  1.00  0.00     0.139 C 
HETATM   24  O3  UNL     1      22.783  -1.673  55.649  1.00  0.00    -0.650 OA
BRANCH  23  25
HETATM   25  O4  UNL     1      20.735  -1.664  54.861  1.00  0.00    -0.776 OA
HETATM   26  H15 UNL     1      20.329  -2.586  55.000  1.00  0.00     0.167 HD
ENDBRANCH  23  25
ENDBRANCH  22  23
ENDBRANCH  21  22
ENDBRANCH   4  21
TORSDOF 11
ENDMDL
MODEL 3
REMARK VINA RESULT:      -7.3      2.971      7.177
REMARK  11 active torsions:
REMARK  status: ('A' for Active; 'I' for Inactive)
REMARK    1  A    between atoms: C2_3  and  S1_4 
REMARK    2  A    between atoms: S1_4  and  S2_5 
REMARK    3  A    between atoms: S2_5  and  C3_6 
REMARK    4  A    between atoms: C4_7  and  C5_8 
REMARK    5  A    between atoms: C5_8  and  C6_9 
REMARK    6  A    between atoms: C6_9  and  C7_10 
REMARK    7  A    between atoms: C7_10  and  O2_12 
REMARK    8  A    between atoms: C8_13  and  C9_14 
REMARK    9  A    between atoms: C9_14  and  C10_15 
REMARK   10  A    between atoms: C10_15  and  C11_16 
REMARK   11  A    between atoms: C11_16  and  O4_18 
ROOT
HETATM    1  C1  UNL     1      23.101   6.309  50.720  1.00  0.00     0.157 C 
HETATM    2  N1  UNL     1      24.103   5.265  50.616  1.00  0.00    -0.344 N 
HETATM    3  C2  UNL     1      24.148   4.063  51.201  1.00  0.00     0.090 A 
HETATM    4  C8  UNL     1      25.305   3.348  50.869  1.00  0.00    -0.011 A 
HETATM    5  C12 UNL     1      25.912   4.258  50.037  1.00  0.00    -0.000 A 
HETATM    6  C13 UNL     1      27.107   4.124  49.373  1.00  0.00     0.014 A 
HETATM    7  C14 UNL     1      27.598   5.106  48.558  1.00  0.00     0.001 A 
HETATM    8  C15 UNL     1      26.920   6.286  48.360  1.00  0.00     0.002 A 
HETATM    9  C16 UNL     1      25.728   6.416  49.027  1.00  0.00     0.030 A 
HETATM   10  C17 UNL     1      25.220   5.427  49.856  1.00  0.00     0.045 A 
ENDROOT
BRANCH   3  11
HETATM   11  S1  UNL     1      22.809   3.496  52.273  1.00  0.00    -0.035 SA
BRANCH  11  12
HETATM   12  S2  UNL     1      21.518   2.334  51.034  1.00  0.00    -0.063 SA
BRANCH  12  13
HETATM   13  C3  UNL     1      21.517   0.664  51.720  1.00  0.00     0.053 C 
HETATM   14  C4  UNL     1      22.565   0.370  52.522  1.00  0.00    -0.018 C 
BRANCH  14  15
HETATM   15  C5  UNL     1      22.959  -0.856  53.281  1.00  0.00     0.038 C 
BRANCH  15  16
HETATM   16  C6  UNL     1      24.279  -0.572  53.934  1.00  0.00     0.113 C 
BRANCH  16  17
HETATM   17  C7  UNL     1      24.293  -1.171  55.317  1.00  0.00     0.139 C 
HETATM   18  O1  UNL     1      25.213  -1.207  56.158  1.00  0.00    -0.650 OA
BRANCH  17  19
HETATM   19  O2  UNL     1      23.348  -1.837  56.051  1.00  0.00    -0.776 OA
HETATM   20  H10 UNL     1      22.747  -1.382  56.727  1.00  0.00     0.167 HD
ENDBRANCH  17  19
ENDBRANCH  16  17
ENDBRANCH  15  16
ENDBRANCH  14  15
ENDBRANCH  12  13
ENDBRANCH  11  12
ENDBRANCH   3  11
BRANCH   4  21
HETATM   21  C9  UNL     1      25.553   2.000  51.366  1.00  0.00     0.053 C 
BRANCH  21  22
HETATM   22  C10 UNL     1      26.871   1.704  51.961  1.00  0.00     0.115 C 
BRANCH  22  23
HETATM   23  C11 UNL     1      27.162   2.243  53.284  1.00  0.00     0.139 C 
HETATM   24  O3  UNL     1      28.235   2.523  53.851  1.00  0.00    -0.650 OA
BRANCH  23  25
HETATM   25  O4  UNL     1      26.058   2.518  54.126  1.00  0.00    -0.776 OA
HETATM   26  H15 UNL     1      25.153   2.823  53.777  1.00  0.00     0.167 HD
ENDBRANCH  23  25
ENDBRANCH  22  23
ENDBRANCH  21  22
ENDBRANCH   4  21
TORSDOF 11
ENDMDL
MODEL 4
REMARK VINA RESULT:      -7.3      4.411      6.908
REMARK  11 active torsions:
REMARK  status: ('A' for Active; 'I' for Inactive)
REMARK    1  A    between atoms: C2_3  and  S1_4 
REMARK    2  A    between atoms: S1_4  and  S2_5 
REMARK    3  A    between atoms: S2_5  and  C3_6 
REMARK    4  A    between atoms: C4_7  and  C5_8 
REMARK    5  A    between atoms: C5_8  and  C6_9 
REMARK    6  A    between atoms: C6_9  and  C7_10 
REMARK    7  A    between atoms: C7_10  and  O2_12 
REMARK    8  A    between atoms: C8_13  and  C9_14 
REMARK    9  A    between atoms: C9_14  and  C10_15 
REMARK   10  A    between atoms: C10_15  and  C11_16 
REMARK   11  A    between atoms: C11_16  and  O4_18 
ROOT
HETATM    1  C1  UNL     1      20.182   1.976  48.860  1.00  0.00     0.157 C 
HETATM    2  N1  UNL     1      20.348   1.361  50.164  1.00  0.00    -0.344 N 
HETATM    3  C2  UNL     1      21.424   1.319  50.957  1.00  0.00     0.090 A 
HETATM    4  C8  UNL     1      21.194   0.597  52.135  1.00  0.00    -0.011 A 
HETATM    5  C12 UNL     1      19.882   0.236  51.936  1.00  0.00    -0.000 A 
HETATM    6  C13 UNL     1      19.075  -0.494  52.773  1.00  0.00     0.014 A 
HETATM    7  C14 UNL     1      17.774  -0.776  52.462  1.00  0.00     0.001 A 
HETATM    8  C15 UNL     1      17.201  -0.342  51.290  1.00  0.00     0.002 A 
HETATM    9  C16 UNL     1      18.013   0.386  50.455  1.00  0.00     0.030 A 
HETATM   10  C17 UNL     1      19.333   0.678  50.760  1.00  0.00     0.045 A 
ENDROOT
BRANCH   3  11
HETATM   11  S1  UNL     1      22.961   2.145  50.490  1.00  0.00    -0.035 SA
BRANCH  11  12
HETATM   12  S2  UNL     1      23.557   3.281  52.194  1.00  0.00    -0.063 SA
BRANCH  12  13
HETATM   13  C3  UNL     1      25.102   2.552  52.780  1.00  0.00     0.053 C 
HETATM   14  C4  UNL     1      25.602   1.563  52.005  1.00  0.00    -0.018 C 
BRANCH  14  15
HETATM   15  C5  UNL     1      26.822   0.704  52.106  1.00  0.00     0.038 C 
BRANCH  15  16
HETATM   16  C6  UNL     1      26.404  -0.595  52.730  1.00  0.00     0.113 C 
BRANCH  16  17
HETATM   17  C7  UNL     1      26.597  -0.518  54.223  1.00  0.00     0.139 C 
HETATM   18  O1  UNL     1      25.777  -0.715  55.141  1.00  0.00    -0.650 OA
BRANCH  17  19
HETATM   19  O2  UNL     1      27.682  -0.221  55.005  1.00  0.00    -0.776 OA
HETATM   20  H10 UNL     1      28.230   0.623  54.898  1.00  0.00     0.167 HD
ENDBRANCH  17  19
ENDBRANCH  16  17
ENDBRANCH  15  16
ENDBRANCH  14  15
ENDBRANCH  12  13
ENDBRANCH  11  12
ENDBRANCH   3  11
BRANCH   4  21
HETATM   21  C9  UNL     1      22.216   0.446  53.163  1.00  0.00     0.053 C 
BRANCH  21  22
HETATM   22  C10 UNL     1      22.699  -0.914  53.476  1.00  0.00     0.115 C 
BRANCH  22  23
HETATM   23  C11 UNL     1      22.220  -1.547  54.698  1.00  0.00     0.139 C 
HETATM   24  O3  UNL     1      21.110  -2.020  55.011  1.00  0.00    -0.650 OA
BRANCH  23  25
HETATM   25  O4  UNL     1      23.143  -1.676  55.763  1.00  0.00    -0.776 OA
HETATM   26  H15 UNL     1      23.661  -0.892  56.149  1.00  0.00     0.167 HD
ENDBRANCH  23  25
ENDBRANCH  22  23
ENDBRANCH  21  22
ENDBRANCH   4  21
TORSDOF 11
ENDMDL
MODEL 5
REMARK VINA RESULT:      -7.3      2.081      4.011
REMARK  11 active torsions:
REMARK  status: ('A' for Active; 'I' for Inactive)
REMARK    1  A    between atoms: C2_3  and  S1_4 
REMARK    2  A    between atoms: S1_4  and  S2_5 
REMARK    3  A    between atoms: S2_5  and  C3_6 
REMARK    4  A    between atoms: C4_7  and  C5_8 
REMARK    5  A    between atoms: C5_8  and  C6_9 
REMARK    6  A    between atoms: C6_9  and  C7_10 
REMARK    7  A    between atoms: C7_10  and  O2_12 
REMARK    8  A    between atoms: C8_13  and  C9_14 
REMARK    9  A    between atoms: C9_14  and  C10_15 
REMARK   10  A    between atoms: C10_15  and  C11_16 
REMARK   11  A    between atoms: C11_16  and  O4_18 
ROOT
HETATM    1  C1  UNL     1      20.939   3.265  52.219  1.00  0.00     0.157 C 
HETATM    2  N1  UNL     1      22.010   2.331  52.511  1.00  0.00    -0.344 N 
HETATM    3  C2  UNL     1      23.327   2.454  52.317  1.00  0.00     0.090 A 
HETATM    4  C8  UNL     1      24.036   1.311  52.703  1.00  0.00    -0.011 A 
HETATM    5  C12 UNL     1      22.995   0.526  53.139  1.00  0.00    -0.000 A 
HETATM    6  C13 UNL     1      23.059  -0.743  53.659  1.00  0.00     0.014 A 
HETATM    7  C14 UNL     1      21.942  -1.416  54.071  1.00  0.00     0.001 A 
HETATM    8  C15 UNL     1      20.689  -0.856  53.984  1.00  0.00     0.002 A 
HETATM    9  C16 UNL     1      20.630   0.412  53.462  1.00  0.00     0.030 A 
HETATM   10  C17 UNL     1      21.756   1.104  53.041  1.00  0.00     0.045 A 
ENDROOT
BRANCH   3  11
HETATM   11  S1  UNL     1      24.032   3.975  51.641  1.00  0.00    -0.035 SA
BRANCH  11  12
HETATM   12  S2  UNL     1      24.746   3.475  49.694  1.00  0.00    -0.063 SA
BRANCH  12  13
HETATM   13  C3  UNL     1      26.231   4.466  49.424  1.00  0.00     0.053 C 
HETATM   14  C4  UNL     1      26.009   5.761  49.106  1.00  0.00    -0.018 C 
BRANCH  14  15
HETATM   15  C5  UNL     1      26.918   6.909  48.806  1.00  0.00     0.038 C 
BRANCH  15  16
HETATM   16  C6  UNL     1      26.359   8.116  49.502  1.00  0.00     0.113 C 
BRANCH  16  17
HETATM   17  C7  UNL     1      27.490   8.957  50.033  1.00  0.00     0.139 C 
HETATM   18  O1  UNL     1      28.615   9.177  49.542  1.00  0.00    -0.650 OA
BRANCH  17  19
HETATM   19  O2  UNL     1      27.636   9.709  51.168  1.00  0.00    -0.776 OA
HETATM   20  H10 UNL     1      27.346  10.677  51.235  1.00  0.00     0.167 HD
ENDBRANCH  17  19
ENDBRANCH  16  17
ENDBRANCH  15  16
ENDBRANCH  14  15
ENDBRANCH  12  13
ENDBRANCH  11  12
ENDBRANCH   3  11
BRANCH   4  21
HETATM   21  C9  UNL     1      25.489   1.231  52.612  1.00  0.00     0.053 C 
BRANCH  21  22
HETATM   22  C10 UNL     1      26.272   1.260  53.863  1.00  0.00     0.115 C 
BRANCH  22  23
HETATM   23  C11 UNL     1      26.741  -0.008  54.408  1.00  0.00     0.139 C 
HETATM   24  O3  UNL     1      27.629  -0.797  54.034  1.00  0.00    -0.650 OA
BRANCH  23  25
HETATM   25  O4  UNL     1      26.104  -0.481  55.580  1.00  0.00    -0.776 OA
HETATM   26  H15 UNL     1      26.055   0.054  56.443  1.00  0.00     0.167 HD
ENDBRANCH  23  25
ENDBRANCH  22  23
ENDBRANCH  21  22
ENDBRANCH   4  21
TORSDOF 11
ENDMDL
MODEL 6
REMARK VINA RESULT:      -7.1      2.842      4.315
REMARK  11 active torsions:
REMARK  status: ('A' for Active; 'I' for Inactive)
REMARK    1  A    between atoms: C2_3  and  S1_4 
REMARK    2  A    between atoms: S1_4  and  S2_5 
REMARK    3  A    between atoms: S2_5  and  C3_6 
REMARK    4  A    between atoms: C4_7  and  C5_8 
REMARK    5  A    between atoms: C5_8  and  C6_9 
REMARK    6  A    between atoms: C6_9  and  C7_10 
REMARK    7  A    between atoms: C7_10  and  O2_12 
REMARK    8  A    between atoms: C8_13  and  C9_14 
REMARK    9  A    between atoms: C9_14  and  C10_15 
REMARK   10  A    between atoms: C10_15  and  C11_16 
REMARK   11  A    between atoms: C11_16  and  O4_18 
ROOT
HETATM    1  C1  UNL     1      20.973   2.016  51.223  1.00  0.00     0.157 C 
HETATM    2  N1  UNL     1      22.174   1.485  51.840  1.00  0.00    -0.344 N 
HETATM    3  C2  UNL     1      23.458   1.692  51.528  1.00  0.00     0.090 A 
HETATM    4  C8  UNL     1      24.334   0.969  52.347  1.00  0.00    -0.011 A 
HETATM    5  C12 UNL     1      23.424   0.333  53.157  1.00  0.00    -0.000 A 
HETATM    6  C13 UNL     1      23.680  -0.531  54.193  1.00  0.00     0.014 A 
HETATM    7  C14 UNL     1      22.678  -1.092  54.936  1.00  0.00     0.001 A 
HETATM    8  C15 UNL     1      21.354  -0.821  54.683  1.00  0.00     0.002 A 
HETATM    9  C16 UNL     1      21.102   0.042  53.645  1.00  0.00     0.030 A 
HETATM   10  C17 UNL     1      22.110   0.617  52.886  1.00  0.00     0.045 A 
ENDROOT
BRANCH   3  11
HETATM   11  S1  UNL     1      23.924   2.815  50.191  1.00  0.00    -0.035 SA
BRANCH  11  12
HETATM   12  S2  UNL     1      23.555   4.784  50.925  1.00  0.00    -0.063 SA
BRANCH  12  13
HETATM   13  C3  UNL     1      25.009   5.768  50.501  1.00  0.00     0.053 C 
HETATM   14  C4  UNL     1      25.557   5.496  49.295  1.00  0.00    -0.018 C 
BRANCH  14  15
HETATM   15  C5  UNL     1      26.734   6.051  48.559  1.00  0.00     0.038 C 
BRANCH  15  16
HETATM   16  C6  UNL     1      27.795   4.990  48.549  1.00  0.00     0.113 C 
BRANCH  16  17
HETATM   17  C7  UNL     1      29.151   5.638  48.437  1.00  0.00     0.139 C 
HETATM   18  O1  UNL     1      29.633   6.318  47.510  1.00  0.00    -0.650 OA
BRANCH  17  19
HETATM   19  O2  UNL     1      30.232   5.682  49.278  1.00  0.00    -0.776 OA
HETATM   20  H10 UNL     1      31.190   5.672  48.951  1.00  0.00     0.167 HD
ENDBRANCH  17  19
ENDBRANCH  16  17
ENDBRANCH  15  16
ENDBRANCH  14  15
ENDBRANCH  12  13
ENDBRANCH  11  12
ENDBRANCH   3  11
BRANCH   4  21
HETATM   21  C9  UNL     1      25.781   1.066  52.210  1.00  0.00     0.053 C 
BRANCH  21  22
HETATM   22  C10 UNL     1      26.585  -0.158  52.399  1.00  0.00     0.115 C 
BRANCH  22  23
HETATM   23  C11 UNL     1      27.439  -0.242  53.578  1.00  0.00     0.139 C 
HETATM   24  O3  UNL     1      28.297  -1.075  53.927  1.00  0.00    -0.650 OA
BRANCH  23  25
HETATM   25  O4  UNL     1      27.312   0.787  54.542  1.00  0.00    -0.776 OA
HETATM   26  H15 UNL     1      27.152   0.609  55.529  1.00  0.00     0.167 HD
ENDBRANCH  23  25
ENDBRANCH  22  23
ENDBRANCH  21  22
ENDBRANCH   4  21
TORSDOF 11
ENDMDL
MODEL 7
REMARK VINA RESULT:      -7.1      3.095      4.671
REMARK  11 active torsions:
REMARK  status: ('A' for Active; 'I' for Inactive)
REMARK    1  A    between atoms: C2_3  and  S1_4 
REMARK    2  A    between atoms: S1_4  and  S2_5 
REMARK    3  A    between atoms: S2_5  and  C3_6 
REMARK    4  A    between atoms: C4_7  and  C5_8 
REMARK    5  A    between atoms: C5_8  and  C6_9 
REMARK    6  A    between atoms: C6_9  and  C7_10 
REMARK    7  A    between atoms: C7_10  and  O2_12 
REMARK    8  A    between atoms: C8_13  and  C9_14 
REMARK    9  A    between atoms: C9_14  and  C10_15 
REMARK   10  A    between atoms: C10_15  and  C11_16 
REMARK   11  A    between atoms: C11_16  and  O4_18 
ROOT
HETATM    1  C1  UNL     1      19.875   0.703  51.141  1.00  0.00     0.157 C 
HETATM    2  N1  UNL     1      21.230   0.771  51.655  1.00  0.00    -0.344 N 
HETATM    3  C2  UNL     1      22.279   1.469  51.209  1.00  0.00     0.090 A 
HETATM    4  C8  UNL     1      23.436   1.243  51.965  1.00  0.00    -0.011 A 
HETATM    5  C12 UNL     1      22.942   0.350  52.887  1.00  0.00    -0.000 A 
HETATM    6  C13 UNL     1      23.615  -0.244  53.926  1.00  0.00     0.014 A 
HETATM    7  C14 UNL     1      23.000  -1.111  54.786  1.00  0.00     0.001 A 
HETATM    8  C15 UNL     1      21.670  -1.437  54.656  1.00  0.00     0.002 A 
HETATM    9  C16 UNL     1      21.002  -0.841  53.615  1.00  0.00     0.030 A 
HETATM   10  C17 UNL     1      21.615   0.039  52.736  1.00  0.00     0.045 A 
ENDROOT
BRANCH   3  11
HETATM   11  S1  UNL     1      22.127   2.576  49.788  1.00  0.00    -0.035 SA
BRANCH  11  12
HETATM   12  S2  UNL     1      21.215   4.356  50.527  1.00  0.00    -0.063 SA
BRANCH  12  13
HETATM   13  C3  UNL     1      22.548   5.546  50.784  1.00  0.00     0.053 C 
HETATM   14  C4  UNL     1      23.743   5.195  50.257  1.00  0.00    -0.018 C 
BRANCH  14  15
HETATM   15  C5  UNL     1      25.082   5.858  50.231  1.00  0.00     0.038 C 
BRANCH  15  16
HETATM   16  C6  UNL     1      25.711   5.543  48.905  1.00  0.00     0.113 C 
BRANCH  16  17
HETATM   17  C7  UNL     1      26.901   4.644  49.116  1.00  0.00     0.139 C 
HETATM   18  O1  UNL     1      26.947   3.473  49.541  1.00  0.00    -0.650 OA
BRANCH  17  19
HETATM   19  O2  UNL     1      28.245   4.820  48.919  1.00  0.00    -0.776 OA
HETATM   20  H10 UNL     1      28.688   4.750  48.011  1.00  0.00     0.167 HD
ENDBRANCH  17  19
ENDBRANCH  16  17
ENDBRANCH  15  16
ENDBRANCH  14  15
ENDBRANCH  12  13
ENDBRANCH  11  12
ENDBRANCH   3  11
BRANCH   4  21
HETATM   21  C9  UNL     1      24.693   1.922  51.681  1.00  0.00     0.053 C 
BRANCH  21  22
HETATM   22  C10 UNL     1      25.952   1.254  52.064  1.00  0.00     0.115 C 
BRANCH  22  23
HETATM   23  C11 UNL     1      26.884   1.985  52.915  1.00  0.00     0.139 C 
HETATM   24  O3  UNL     1      26.982   2.080  54.153  1.00  0.00    -0.650 OA
BRANCH  23  25
HETATM   25  O4  UNL     1      27.886   2.747  52.269  1.00  0.00    -0.776 OA
HETATM   26  H15 UNL     1      28.458   2.386  51.509  1.00  0.00     0.167 HD
ENDBRANCH  23  25
ENDBRANCH  22  23
ENDBRANCH  21  22
ENDBRANCH   4  21
TORSDOF 11
ENDMDL
MODEL 8
REMARK VINA RESULT:      -7.0      3.623      6.269
REMARK  11 active torsions:
REMARK  status: ('A' for Active; 'I' for Inactive)
REMARK    1  A    between atoms: C2_3  and  S1_4 
REMARK    2  A    between atoms: S1_4  and  S2_5 
REMARK    3  A    between atoms: S2_5  and  C3_6 
REMARK    4  A    between atoms: C4_7  and  C5_8 
REMARK    5  A    between atoms: C5_8  and  C6_9 
REMARK    6  A    between atoms: C6_9  and  C7_10 
REMARK    7  A    between atoms: C7_10  and  O2_12 
REMARK    8  A    between atoms: C8_13  and  C9_14 
REMARK    9  A    between atoms: C9_14  and  C10_15 
REMARK   10  A    between atoms: C10_15  and  C11_16 
REMARK   11  A    between atoms: C11_16  and  O4_18 
ROOT
HETATM    1  C1  UNL     1      21.158   4.516  51.794  1.00  0.00     0.157 C 
HETATM    2  N1  UNL     1      21.256   3.082  51.989  1.00  0.00    -0.344 N 
HETATM    3  C2  UNL     1      22.307   2.338  52.352  1.00  0.00     0.090 A 
HETATM    4  C8  UNL     1      22.006   0.972  52.402  1.00  0.00    -0.011 A 
HETATM    5  C12 UNL     1      20.681   1.010  52.035  1.00  0.00    -0.000 A 
HETATM    6  C13 UNL     1      19.813  -0.046  51.910  1.00  0.00     0.014 A 
HETATM    7  C14 UNL     1      18.506   0.128  51.548  1.00  0.00     0.001 A 
HETATM    8  C15 UNL     1      17.989   1.376  51.287  1.00  0.00     0.002 A 
HETATM    9  C16 UNL     1      18.862   2.429  51.412  1.00  0.00     0.030 A 
HETATM   10  C17 UNL     1      20.189   2.264  51.778  1.00  0.00     0.045 A 
ENDROOT
BRANCH   3  11
HETATM   11  S1  UNL     1      23.900   3.100  52.736  1.00  0.00    -0.035 SA
BRANCH  11  12
HETATM   12  S2  UNL     1      24.944   3.240  50.881  1.00  0.00    -0.063 SA
BRANCH  12  13
HETATM   13  C3  UNL     1      26.323   2.078  50.981  1.00  0.00     0.053 C 
HETATM   14  C4  UNL     1      26.195   1.113  51.919  1.00  0.00    -0.018 C 
BRANCH  14  15
HETATM   15  C5  UNL     1      27.069  -0.025  52.338  1.00  0.00     0.038 C 
BRANCH  15  16
HETATM   16  C6  UNL     1      27.622   0.311  53.692  1.00  0.00     0.113 C 
BRANCH  16  17
HETATM   17  C7  UNL     1      28.870   1.139  53.531  1.00  0.00     0.139 C 
HETATM   18  O1  UNL     1      28.994   2.373  53.399  1.00  0.00    -0.650 OA
BRANCH  17  19
HETATM   19  O2  UNL     1      30.200   0.815  53.480  1.00  0.00    -0.776 OA
HETATM   20  H10 UNL     1      30.616   0.081  54.040  1.00  0.00     0.167 HD
ENDBRANCH  17  19
ENDBRANCH  16  17
ENDBRANCH  15  16
ENDBRANCH  14  15
ENDBRANCH  12  13
ENDBRANCH  11  12
ENDBRANCH   3  11
BRANCH   4  21
HETATM   21  C9  UNL     1      22.990  -0.024  52.805  1.00  0.00     0.053 C 
BRANCH  21  22
HETATM   22  C10 UNL     1      23.245  -0.214  54.246  1.00  0.00     0.115 C 
BRANCH  22  23
HETATM   23  C11 UNL     1      22.427  -1.184  54.965  1.00  0.00     0.139 C 
HETATM   24  O3  UNL     1      21.209  -1.445  54.916  1.00  0.00    -0.650 OA
BRANCH  23  25
HETATM   25  O4  UNL     1      23.084  -2.011  55.907  1.00  0.00    -0.776 OA
HETATM   26  H15 UNL     1      22.833  -2.983  56.066  1.00  0.00     0.167 HD
ENDBRANCH  23  25
ENDBRANCH  22  23
ENDBRANCH  21  22
ENDBRANCH   4  21
TORSDOF 11
ENDMDL
MODEL 9
REMARK VINA RESULT:      -6.8      3.682      5.711
REMARK  11 active torsions:
REMARK  status: ('A' for Active; 'I' for Inactive)
REMARK    1  A    between atoms: C2_3  and  S1_4 
REMARK    2  A    between atoms: S1_4  and  S2_5 
REMARK    3  A    between atoms: S2_5  and  C3_6 
REMARK    4  A    between atoms: C4_7  and  C5_8 
REMARK    5  A    between atoms: C5_8  and  C6_9 
REMARK    6  A    between atoms: C6_9  and  C7_10 
REMARK    7  A    between atoms: C7_10  and  O2_12 
REMARK    8  A    between atoms: C8_13  and  C9_14 
REMARK    9  A    between atoms: C9_14  and  C10_15 
REMARK   10  A    between atoms: C10_15  and  C11_16 
REMARK   11  A    between atoms: C11_16  and  O4_18 
ROOT
HETATM    1  C1  UNL     1      22.391  -1.161  54.057  1.00  0.00     0.157 C 
HETATM    2  N1  UNL     1      22.979  -0.023  53.375  1.00  0.00    -0.344 N 
HETATM    3  C2  UNL     1      22.402   1.100  52.934  1.00  0.00     0.090 A 
HETATM    4  C8  UNL     1      23.309   1.953  52.293  1.00  0.00    -0.011 A 
HETATM    5  C12 UNL     1      24.458   1.209  52.417  1.00  0.00    -0.000 A 
HETATM    6  C13 UNL     1      25.720   1.531  51.980  1.00  0.00     0.014 A 
HETATM    7  C14 UNL     1      26.789   0.702  52.178  1.00  0.00     0.001 A 
HETATM    8  C15 UNL     1      26.659  -0.503  52.826  1.00  0.00     0.002 A 
HETATM    9  C16 UNL     1      25.395  -0.822  53.259  1.00  0.00     0.030 A 
HETATM   10  C17 UNL     1      24.303   0.010  53.064  1.00  0.00     0.045 A 
ENDROOT
BRANCH   3  11
HETATM   11  S1  UNL     1      20.641   1.409  53.194  1.00  0.00    -0.035 SA
BRANCH  11  12
HETATM   12  S2  UNL     1      19.630   0.416  51.599  1.00  0.00    -0.063 SA
BRANCH  12  13
HETATM   13  C3  UNL     1      20.006   1.346  50.097  1.00  0.00     0.053 C 
HETATM   14  C4  UNL     1      21.169   1.016  49.493  1.00  0.00    -0.018 C 
BRANCH  14  15
HETATM   15  C5  UNL     1      21.858   1.514  48.262  1.00  0.00     0.038 C 
BRANCH  15  16
HETATM   16  C6  UNL     1      21.004   2.604  47.683  1.00  0.00     0.113 C 
BRANCH  16  17
HETATM   17  C7  UNL     1      21.610   3.944  48.011  1.00  0.00     0.139 C 
HETATM   18  O1  UNL     1      22.499   4.582  47.412  1.00  0.00    -0.650 OA
BRANCH  17  19
HETATM   19  O2  UNL     1      21.391   4.840  49.023  1.00  0.00    -0.776 OA
HETATM   20  H10 UNL     1      21.180   4.565  49.974  1.00  0.00     0.167 HD
ENDBRANCH  17  19
ENDBRANCH  16  17
ENDBRANCH  15  16
ENDBRANCH  14  15
ENDBRANCH  12  13
ENDBRANCH  11  12
ENDBRANCH   3  11
BRANCH   4  21
HETATM   21  C9  UNL     1      22.910   3.249  51.760  1.00  0.00     0.053 C 
BRANCH  21  22
HETATM   22  C10 UNL     1      23.351   4.465  52.471  1.00  0.00     0.115 C 
BRANCH  22  23
HETATM   23  C11 UNL     1      23.724   5.628  51.674  1.00  0.00     0.139 C 
HETATM   24  O3  UNL     1      23.596   5.881  50.461  1.00  0.00    -0.650 OA
BRANCH  23  25
HETATM   25  O4  UNL     1      24.354   6.699  52.352  1.00  0.00    -0.776 OA
HETATM   26  H15 UNL     1      24.797   7.478  51.872  1.00  0.00     0.167 HD
ENDBRANCH  23  25
ENDBRANCH  22  23
ENDBRANCH  21  22
ENDBRANCH   4  21
TORSDOF 11
ENDMDL
