MODEL 1
REMARK VINA RESULT:      -7.7      0.000      0.000
REMARK  6 active torsions:
REMARK  status: ('A' for Active; 'I' for Inactive)
REMARK    1  A    between atoms: C2_2  and  C3_3 
REMARK    2  A    between atoms: C2_2  and  N2_12 
REMARK    3  A    between atoms: C4_4  and  C5_5 
REMARK    4  A    between atoms: C5_5  and  C6_6 
REMARK    5  A    between atoms: C6_6  and  N1_7 
REMARK    6  A    between atoms: N2_12  and  C10_13 
ROOT
HETATM    1  N2  UNL     1      25.982   2.813  52.174  1.00  0.00    -0.360 N 
HETATM    2  H15 UNL     1      25.790   3.575  52.883  1.00  0.00     0.162 HD
ENDROOT
BRANCH   1   3
HETATM    3  C2  UNL     1      25.326   2.821  50.883  1.00  0.00     0.159 C 
HETATM    4  C1  UNL     1      25.157   4.256  50.421  1.00  0.00     0.046 C 
BRANCH   3   5
HETATM    5  C3  UNL     1      24.045   2.131  51.017  1.00  0.00    -0.082 C 
HETATM    6  C4  UNL     1      22.991   1.540  51.135  1.00  0.00    -0.103 C 
BRANCH   6   7
HETATM    7  C5  UNL     1      21.717   0.797  51.291  1.00  0.00     0.124 C 
BRANCH   7   8
HETATM    8  C6  UNL     1      21.486   0.586  52.746  1.00  0.00     0.287 C 
BRANCH   8   9
HETATM    9  N1  UNL     1      21.893  -0.703  53.253  1.00  0.00     0.114 N 
HETATM   10  C7  UNL     1      23.205  -0.707  53.843  1.00  0.00     0.301 C 
HETATM   11  C8  UNL     1      22.905  -1.223  55.250  1.00  0.00     0.200 C 
HETATM   12  O1  UNL     1      21.858  -2.105  54.991  1.00  0.00    -0.361 OA
HETATM   13  C9  UNL     1      21.012  -1.268  54.223  1.00  0.00     0.440 C 
ENDBRANCH   8   9
ENDBRANCH   7   8
ENDBRANCH   6   7
ENDBRANCH   3   5
ENDBRANCH   1   3
BRANCH   1  14
HETATM   14  C10 UNL     1      26.902   1.786  52.531  1.00  0.00     0.125 A 
HETATM   15  C11 UNL     1      26.568   0.459  52.364  1.00  0.00     0.065 A 
HETATM   16  C12 UNL     1      27.430  -0.571  52.697  1.00  0.00     0.015 A 
HETATM   17  C13 UNL     1      27.082  -1.907  52.525  1.00  0.00     0.132 A 
HETATM   18  C15 UNL     1      28.663  -0.202  53.215  1.00  0.00     0.087 A 
HETATM   19  N3  UNL     1      27.979  -2.849  52.875  1.00  0.00    -0.253 NA
HETATM   20  C14 UNL     1      29.191  -2.495  53.384  1.00  0.00     0.233 A 
HETATM   21  N4  UNL     1      29.536  -1.190  53.555  1.00  0.00    -0.240 NA
HETATM   22  C16 UNL     1      28.977   1.123  53.375  1.00  0.00     0.151 A 
HETATM   23  N5  UNL     1      28.109   2.089  53.037  1.00  0.00    -0.241 NA
ENDBRANCH   1  14
TORSDOF 6
ENDMDL
MODEL 2
REMARK VINA RESULT:      -7.2      2.696      4.817
REMARK  6 active torsions:
REMARK  status: ('A' for Active; 'I' for Inactive)
REMARK    1  A    between atoms: C2_2  and  C3_3 
REMARK    2  A    between atoms: C2_2  and  N2_12 
REMARK    3  A    between atoms: C4_4  and  C5_5 
REMARK    4  A    between atoms: C5_5  and  C6_6 
REMARK    5  A    between atoms: C6_6  and  N1_7 
REMARK    6  A    between atoms: N2_12  and  C10_13 
ROOT
HETATM    1  N2  UNL     1      23.243  -0.887  53.443  1.00  0.00    -0.360 N 
HETATM    2  H15 UNL     1      23.170  -1.583  52.648  1.00  0.00     0.162 HD
ENDROOT
BRANCH   1   3
HETATM    3  C2  UNL     1      22.071  -0.504  54.201  1.00  0.00     0.159 C 
HETATM    4  C1  UNL     1      21.154  -1.704  54.340  1.00  0.00     0.046 C 
BRANCH   3   5
HETATM    5  C3  UNL     1      21.423   0.609  53.510  1.00  0.00    -0.082 C 
HETATM    6  C4  UNL     1      20.865   1.524  52.941  1.00  0.00    -0.103 C 
BRANCH   6   7
HETATM    7  C5  UNL     1      20.161   2.634  52.255  1.00  0.00     0.124 C 
BRANCH   7   8
HETATM    8  C6  UNL     1      21.091   3.796  52.192  1.00  0.00     0.287 C 
BRANCH   8   9
HETATM    9  N1  UNL     1      22.376   3.523  51.593  1.00  0.00     0.114 N 
HETATM   10  C7  UNL     1      22.462   3.902  50.208  1.00  0.00     0.301 C 
HETATM   11  C8  UNL     1      23.653   4.860  50.228  1.00  0.00     0.200 C 
HETATM   12  O1  UNL     1      24.443   4.279  51.218  1.00  0.00    -0.361 OA
HETATM   13  C9  UNL     1      23.483   4.137  52.250  1.00  0.00     0.440 C 
ENDBRANCH   8   9
ENDBRANCH   7   8
ENDBRANCH   6   7
ENDBRANCH   3   5
ENDBRANCH   1   3
BRANCH   1  14
HETATM   14  C10 UNL     1      24.527  -0.346  53.737  1.00  0.00     0.125 A 
HETATM   15  C11 UNL     1      25.123   0.549  52.874  1.00  0.00     0.065 A 
HETATM   16  C12 UNL     1      26.369   1.099  53.120  1.00  0.00     0.015 A 
HETATM   17  C13 UNL     1      26.962   2.000  52.241  1.00  0.00     0.132 A 
HETATM   18  C15 UNL     1      26.999   0.705  54.291  1.00  0.00     0.087 A 
HETATM   19  N3  UNL     1      28.176   2.490  52.555  1.00  0.00    -0.253 NA
HETATM   20  C14 UNL     1      28.802   2.108  53.702  1.00  0.00     0.233 A 
HETATM   21  N4  UNL     1      28.227   1.227  54.564  1.00  0.00    -0.240 NA
HETATM   22  C16 UNL     1      26.390  -0.186  55.137  1.00  0.00     0.151 A 
HETATM   23  N5  UNL     1      25.181  -0.695  54.859  1.00  0.00    -0.241 NA
ENDBRANCH   1  14
TORSDOF 6
ENDMDL
MODEL 3
REMARK VINA RESULT:      -6.9      1.905      2.572
REMARK  6 active torsions:
REMARK  status: ('A' for Active; 'I' for Inactive)
REMARK    1  A    between atoms: C2_2  and  C3_3 
REMARK    2  A    between atoms: C2_2  and  N2_12 
REMARK    3  A    between atoms: C4_4  and  C5_5 
REMARK    4  A    between atoms: C5_5  and  C6_6 
REMARK    5  A    between atoms: C6_6  and  N1_7 
REMARK    6  A    between atoms: N2_12  and  C10_13 
ROOT
HETATM    1  N2  UNL     1      25.186   2.546  53.133  1.00  0.00    -0.360 N 
HETATM    2  H15 UNL     1      25.247   3.472  53.641  1.00  0.00     0.162 HD
ENDROOT
BRANCH   1   3
HETATM    3  C2  UNL     1      24.037   2.226  52.312  1.00  0.00     0.159 C 
HETATM    4  C1  UNL     1      23.325   3.510  51.933  1.00  0.00     0.046 C 
BRANCH   3   5
HETATM    5  C3  UNL     1      23.175   1.319  53.066  1.00  0.00    -0.082 C 
HETATM    6  C4  UNL     1      22.458   0.580  53.708  1.00  0.00    -0.103 C 
BRANCH   6   7
HETATM    7  C5  UNL     1      21.578  -0.304  54.510  1.00  0.00     0.124 C 
BRANCH   7   8
HETATM    8  C6  UNL     1      20.663  -1.011  53.572  1.00  0.00     0.287 C 
BRANCH   8   9
HETATM    9  N1  UNL     1      19.415  -0.337  53.304  1.00  0.00     0.114 N 
HETATM   10  C7  UNL     1      19.397   0.377  52.055  1.00  0.00     0.301 C 
HETATM   11  C8  UNL     1      18.197  -0.260  51.357  1.00  0.00     0.200 C 
HETATM   12  O1  UNL     1      17.362  -0.513  52.444  1.00  0.00    -0.361 OA
HETATM   13  C9  UNL     1      18.267  -1.185  53.301  1.00  0.00     0.440 C 
ENDBRANCH   8   9
ENDBRANCH   7   8
ENDBRANCH   6   7
ENDBRANCH   3   5
ENDBRANCH   1   3
BRANCH   1  14
HETATM   14  C10 UNL     1      26.267   1.631  53.283  1.00  0.00     0.125 A 
HETATM   15  C11 UNL     1      26.134   0.319  52.883  1.00  0.00     0.065 A 
HETATM   16  C12 UNL     1      27.158  -0.603  53.011  1.00  0.00     0.015 A 
HETATM   17  C13 UNL     1      27.011  -1.927  52.605  1.00  0.00     0.132 A 
HETATM   18  C15 UNL     1      28.341  -0.141  53.567  1.00  0.00     0.087 A 
HETATM   19  N3  UNL     1      28.056  -2.761  52.764  1.00  0.00    -0.253 NA
HETATM   20  C14 UNL     1      29.221  -2.315  53.309  1.00  0.00     0.233 A 
HETATM   21  N4  UNL     1      29.369  -1.023  53.709  1.00  0.00    -0.240 NA
HETATM   22  C16 UNL     1      28.455   1.167  53.959  1.00  0.00     0.151 A 
HETATM   23  N5  UNL     1      27.436   2.028  53.817  1.00  0.00    -0.241 NA
ENDBRANCH   1  14
TORSDOF 6
ENDMDL
MODEL 4
REMARK VINA RESULT:      -6.9      2.713      4.819
REMARK  6 active torsions:
REMARK  status: ('A' for Active; 'I' for Inactive)
REMARK    1  A    between atoms: C2_2  and  C3_3 
REMARK    2  A    between atoms: C2_2  and  N2_12 
REMARK    3  A    between atoms: C4_4  and  C5_5 
REMARK    4  A    between atoms: C5_5  and  C6_6 
REMARK    5  A    between atoms: C6_6  and  N1_7 
REMARK    6  A    between atoms: N2_12  and  C10_13 
ROOT
HETATM    1  N2  UNL     1      23.280  -0.809  53.412  1.00  0.00    -0.360 N 
HETATM    2  H15 UNL     1      23.188  -1.417  52.550  1.00  0.00     0.162 HD
ENDROOT
BRANCH   1   3
HETATM    3  C2  UNL     1      22.123  -0.499  54.226  1.00  0.00     0.159 C 
HETATM    4  C1  UNL     1      21.305  -1.760  54.427  1.00  0.00     0.046 C 
BRANCH   3   5
HETATM    5  C3  UNL     1      21.361   0.552  53.555  1.00  0.00    -0.082 C 
HETATM    6  C4  UNL     1      20.720   1.410  52.984  1.00  0.00    -0.103 C 
BRANCH   6   7
HETATM    7  C5  UNL     1      19.926   2.440  52.272  1.00  0.00     0.124 C 
BRANCH   7   8
HETATM    8  C6  UNL     1      20.694   2.857  51.066  1.00  0.00     0.287 C 
BRANCH   8   9
HETATM    9  N1  UNL     1      20.584   1.973  49.930  1.00  0.00     0.114 N 
HETATM   10  C7  UNL     1      20.125   2.623  48.732  1.00  0.00     0.301 C 
HETATM   11  C8  UNL     1      21.262   2.308  47.760  1.00  0.00     0.200 C 
HETATM   12  O1  UNL     1      21.642   1.041  48.199  1.00  0.00    -0.361 OA
HETATM   13  C9  UNL     1      21.789   1.292  49.585  1.00  0.00     0.440 C 
ENDBRANCH   8   9
ENDBRANCH   7   8
ENDBRANCH   6   7
ENDBRANCH   3   5
ENDBRANCH   1   3
BRANCH   1  14
HETATM   14  C10 UNL     1      24.573  -0.311  53.741  1.00  0.00     0.125 A 
HETATM   15  C11 UNL     1      25.198   0.606  52.922  1.00  0.00     0.065 A 
HETATM   16  C12 UNL     1      26.453   1.116  53.202  1.00  0.00     0.015 A 
HETATM   17  C13 UNL     1      27.076   2.039  52.367  1.00  0.00     0.132 A 
HETATM   18  C15 UNL     1      27.063   0.658  54.361  1.00  0.00     0.087 A 
HETATM   19  N3  UNL     1      28.298   2.487  52.712  1.00  0.00    -0.253 NA
HETATM   20  C14 UNL     1      28.903   2.042  53.847  1.00  0.00     0.233 A 
HETATM   21  N4  UNL     1      28.300   1.138  54.666  1.00  0.00    -0.240 NA
HETATM   22  C16 UNL     1      26.426  -0.254  55.162  1.00  0.00     0.151 A 
HETATM   23  N5  UNL     1      25.208  -0.722  54.852  1.00  0.00    -0.241 NA
ENDBRANCH   1  14
TORSDOF 6
ENDMDL
MODEL 5
REMARK VINA RESULT:      -6.9      2.997      5.957
REMARK  6 active torsions:
REMARK  status: ('A' for Active; 'I' for Inactive)
REMARK    1  A    between atoms: C2_2  and  C3_3 
REMARK    2  A    between atoms: C2_2  and  N2_12 
REMARK    3  A    between atoms: C4_4  and  C5_5 
REMARK    4  A    between atoms: C5_5  and  C6_6 
REMARK    5  A    between atoms: C6_6  and  N1_7 
REMARK    6  A    between atoms: N2_12  and  C10_13 
ROOT
HETATM    1  N2  UNL     1      23.054   3.889  50.689  1.00  0.00    -0.360 N 
HETATM    2  H15 UNL     1      22.245   3.844  50.007  1.00  0.00     0.162 HD
ENDROOT
BRANCH   1   3
HETATM    3  C2  UNL     1      22.833   3.740  52.112  1.00  0.00     0.159 C 
HETATM    4  C1  UNL     1      23.573   4.840  52.848  1.00  0.00     0.046 C 
BRANCH   3   5
HETATM    5  C3  UNL     1      23.287   2.408  52.508  1.00  0.00    -0.082 C 
HETATM    6  C4  UNL     1      23.673   1.301  52.819  1.00  0.00    -0.103 C 
BRANCH   6   7
HETATM    7  C5  UNL     1      24.161  -0.053  53.176  1.00  0.00     0.124 C 
BRANCH   7   8
HETATM    8  C6  UNL     1      25.564  -0.176  52.692  1.00  0.00     0.287 C 
BRANCH   8   9
HETATM    9  N1  UNL     1      26.509  -0.673  53.665  1.00  0.00     0.114 N 
HETATM   10  C7  UNL     1      27.804  -0.971  53.115  1.00  0.00     0.301 C 
HETATM   11  C8  UNL     1      28.710  -0.092  53.976  1.00  0.00     0.200 C 
HETATM   12  O1  UNL     1      28.042  -0.139  55.198  1.00  0.00    -0.361 OA
HETATM   13  C9  UNL     1      26.731   0.193  54.777  1.00  0.00     0.440 C 
ENDBRANCH   8   9
ENDBRANCH   7   8
ENDBRANCH   6   7
ENDBRANCH   3   5
ENDBRANCH   1   3
BRANCH   1  14
HETATM   14  C10 UNL     1      24.360   4.098  50.159  1.00  0.00     0.125 A 
HETATM   15  C11 UNL     1      24.732   5.339  49.687  1.00  0.00     0.065 A 
HETATM   16  C12 UNL     1      25.989   5.587  49.165  1.00  0.00     0.015 A 
HETATM   17  C13 UNL     1      26.353   6.844  48.690  1.00  0.00     0.132 A 
HETATM   18  C15 UNL     1      26.870   4.517  49.138  1.00  0.00     0.087 A 
HETATM   19  N3  UNL     1      27.597   7.001  48.197  1.00  0.00    -0.253 NA
HETATM   20  C14 UNL     1      28.467   5.956  48.166  1.00  0.00     0.233 A 
HETATM   21  N4  UNL     1      28.116   4.726  48.629  1.00  0.00    -0.240 NA
HETATM   22  C16 UNL     1      26.482   3.290  49.611  1.00  0.00     0.151 A 
HETATM   23  N5  UNL     1      25.252   3.094  50.110  1.00  0.00    -0.241 NA
ENDBRANCH   1  14
TORSDOF 6
ENDMDL
MODEL 6
REMARK VINA RESULT:      -6.9      5.761      7.043
REMARK  6 active torsions:
REMARK  status: ('A' for Active; 'I' for Inactive)
REMARK    1  A    between atoms: C2_2  and  C3_3 
REMARK    2  A    between atoms: C2_2  and  N2_12 
REMARK    3  A    between atoms: C4_4  and  C5_5 
REMARK    4  A    between atoms: C5_5  and  C6_6 
REMARK    5  A    between atoms: C6_6  and  N1_7 
REMARK    6  A    between atoms: N2_12  and  C10_13 
ROOT
HETATM    1  N2  UNL     1      29.505   6.482  48.931  1.00  0.00    -0.360 N 
HETATM    2  H15 UNL     1      29.343   7.028  49.823  1.00  0.00     0.162 HD
ENDROOT
BRANCH   1   3
HETATM    3  C2  UNL     1      28.418   6.238  48.006  1.00  0.00     0.159 C 
HETATM    4  C1  UNL     1      27.688   7.541  47.743  1.00  0.00     0.046 C 
BRANCH   3   5
HETATM    5  C3  UNL     1      27.543   5.222  48.585  1.00  0.00    -0.082 C 
HETATM    6  C4  UNL     1      26.821   4.385  49.087  1.00  0.00    -0.103 C 
BRANCH   6   7
HETATM    7  C5  UNL     1      25.942   3.374  49.723  1.00  0.00     0.124 C 
BRANCH   7   8
HETATM    8  C6  UNL     1      26.672   2.804  50.889  1.00  0.00     0.287 C 
BRANCH   8   9
HETATM    9  N1  UNL     1      25.976   1.757  51.598  1.00  0.00     0.114 N 
HETATM   10  C7  UNL     1      26.828   0.961  52.440  1.00  0.00     0.301 C 
HETATM   11  C8  UNL     1      26.155   1.130  53.802  1.00  0.00     0.200 C 
HETATM   12  O1  UNL     1      24.815   1.212  53.426  1.00  0.00    -0.361 OA
HETATM   13  C9  UNL     1      24.900   2.205  52.420  1.00  0.00     0.440 C 
ENDBRANCH   8   9
ENDBRANCH   7   8
ENDBRANCH   6   7
ENDBRANCH   3   5
ENDBRANCH   1   3
BRANCH   1  14
HETATM   14  C10 UNL     1      30.819   5.998  48.675  1.00  0.00     0.125 A 
HETATM   15  C11 UNL     1      31.024   4.970  47.779  1.00  0.00     0.065 A 
HETATM   16  C12 UNL     1      32.283   4.469  47.501  1.00  0.00     0.015 A 
HETATM   17  C13 UNL     1      32.478   3.430  46.596  1.00  0.00     0.132 A 
HETATM   18  C15 UNL     1      33.346   5.056  48.172  1.00  0.00     0.087 A 
HETATM   19  N3  UNL     1      33.736   3.001  46.381  1.00  0.00    -0.253 NA
HETATM   20  C14 UNL     1      34.784   3.571  47.035  1.00  0.00     0.233 A 
HETATM   21  N4  UNL     1      34.599   4.587  47.922  1.00  0.00    -0.240 NA
HETATM   22  C16 UNL     1      33.122   6.077  49.059  1.00  0.00     0.151 A 
HETATM   23  N5  UNL     1      31.883   6.532  49.299  1.00  0.00    -0.241 NA
ENDBRANCH   1  14
TORSDOF 6
ENDMDL
MODEL 7
REMARK VINA RESULT:      -6.8      2.822      6.176
REMARK  6 active torsions:
REMARK  status: ('A' for Active; 'I' for Inactive)
REMARK    1  A    between atoms: C2_2  and  C3_3 
REMARK    2  A    between atoms: C2_2  and  N2_12 
REMARK    3  A    between atoms: C4_4  and  C5_5 
REMARK    4  A    between atoms: C5_5  and  C6_6 
REMARK    5  A    between atoms: C6_6  and  N1_7 
REMARK    6  A    between atoms: N2_12  and  C10_13 
ROOT
HETATM    1  N2  UNL     1      22.785   2.869  52.331  1.00  0.00    -0.360 N 
HETATM    2  H15 UNL     1      22.291   3.274  53.175  1.00  0.00     0.162 HD
ENDROOT
BRANCH   1   3
HETATM    3  C2  UNL     1      22.602   1.482  51.960  1.00  0.00     0.159 C 
HETATM    4  C1  UNL     1      21.163   1.083  52.223  1.00  0.00     0.046 C 
BRANCH   3   5
HETATM    5  C3  UNL     1      23.547   0.675  52.730  1.00  0.00    -0.082 C 
HETATM    6  C4  UNL     1      24.346   0.020  53.367  1.00  0.00    -0.103 C 
BRANCH   6   7
HETATM    7  C5  UNL     1      25.338  -0.759  54.146  1.00  0.00     0.124 C 
BRANCH   7   8
HETATM    8  C6  UNL     1      26.342   0.196  54.692  1.00  0.00     0.287 C 
BRANCH   8   9
HETATM    9  N1  UNL     1      27.490   0.431  53.849  1.00  0.00     0.114 N 
HETATM   10  C7  UNL     1      27.766   1.824  53.619  1.00  0.00     0.301 C 
HETATM   11  C8  UNL     1      29.205   1.936  54.121  1.00  0.00     0.200 C 
HETATM   12  O1  UNL     1      29.707   0.685  53.768  1.00  0.00    -0.361 OA
HETATM   13  C9  UNL     1      28.705  -0.149  54.321  1.00  0.00     0.440 C 
ENDBRANCH   8   9
ENDBRANCH   7   8
ENDBRANCH   6   7
ENDBRANCH   3   5
ENDBRANCH   1   3
BRANCH   1  14
HETATM   14  C10 UNL     1      23.631   3.733  51.578  1.00  0.00     0.125 A 
HETATM   15  C11 UNL     1      24.736   3.232  50.922  1.00  0.00     0.065 A 
HETATM   16  C12 UNL     1      25.584   4.034  50.180  1.00  0.00     0.015 A 
HETATM   17  C13 UNL     1      26.697   3.517  49.523  1.00  0.00     0.132 A 
HETATM   18  C15 UNL     1      25.269   5.383  50.124  1.00  0.00     0.087 A 
HETATM   19  N3  UNL     1      27.473   4.366  48.821  1.00  0.00    -0.253 NA
HETATM   20  C14 UNL     1      27.171   5.691  48.761  1.00  0.00     0.233 A 
HETATM   21  N4  UNL     1      26.084   6.201  49.402  1.00  0.00    -0.240 NA
HETATM   22  C16 UNL     1      24.167   5.863  50.783  1.00  0.00     0.151 A 
HETATM   23  N5  UNL     1      23.371   5.049  51.492  1.00  0.00    -0.241 NA
ENDBRANCH   1  14
TORSDOF 6
ENDMDL
MODEL 8
REMARK VINA RESULT:      -6.7      5.304      8.044
REMARK  6 active torsions:
REMARK  status: ('A' for Active; 'I' for Inactive)
REMARK    1  A    between atoms: C2_2  and  C3_3 
REMARK    2  A    between atoms: C2_2  and  N2_12 
REMARK    3  A    between atoms: C4_4  and  C5_5 
REMARK    4  A    between atoms: C5_5  and  C6_6 
REMARK    5  A    between atoms: C6_6  and  N1_7 
REMARK    6  A    between atoms: N2_12  and  C10_13 
ROOT
HETATM    1  N2  UNL     1      26.417   2.844  49.978  1.00  0.00    -0.360 N 
HETATM    2  H15 UNL     1      26.704   2.278  49.131  1.00  0.00     0.162 HD
ENDROOT
BRANCH   1   3
HETATM    3  C2  UNL     1      25.893   4.186  49.829  1.00  0.00     0.159 C 
HETATM    4  C1  UNL     1      24.553   4.120  49.121  1.00  0.00     0.046 C 
BRANCH   3   5
HETATM    5  C3  UNL     1      26.870   4.978  49.086  1.00  0.00    -0.082 C 
HETATM    6  C4  UNL     1      27.690   5.643  48.487  1.00  0.00    -0.103 C 
BRANCH   6   7
HETATM    7  C5  UNL     1      28.703   6.463  47.779  1.00  0.00     0.124 C 
BRANCH   7   8
HETATM    8  C6  UNL     1      30.050   5.990  48.203  1.00  0.00     0.287 C 
BRANCH   8   9
HETATM    9  N1  UNL     1      31.013   7.033  48.467  1.00  0.00     0.114 N 
HETATM   10  C7  UNL     1      31.804   7.396  47.321  1.00  0.00     0.301 C 
HETATM   11  C8  UNL     1      31.517   8.893  47.214  1.00  0.00     0.200 C 
HETATM   12  O1  UNL     1      31.381   9.233  48.559  1.00  0.00    -0.361 OA
HETATM   13  C9  UNL     1      30.456   8.245  48.973  1.00  0.00     0.440 C 
ENDBRANCH   8   9
ENDBRANCH   7   8
ENDBRANCH   6   7
ENDBRANCH   3   5
ENDBRANCH   1   3
BRANCH   1  14
HETATM   14  C10 UNL     1      26.563   2.244  51.261  1.00  0.00     0.125 A 
HETATM   15  C11 UNL     1      25.621   1.350  51.727  1.00  0.00     0.065 A 
HETATM   16  C12 UNL     1      25.723   0.744  52.966  1.00  0.00     0.015 A 
HETATM   17  C13 UNL     1      24.766  -0.156  53.426  1.00  0.00     0.132 A 
HETATM   18  C15 UNL     1      26.830   1.080  53.730  1.00  0.00     0.087 A 
HETATM   19  N3  UNL     1      24.940  -0.702  54.644  1.00  0.00    -0.253 NA
HETATM   20  C14 UNL     1      26.023  -0.378  55.401  1.00  0.00     0.233 A 
HETATM   21  N4  UNL     1      26.961   0.502  54.956  1.00  0.00    -0.240 NA
HETATM   22  C16 UNL     1      27.756   1.971  53.252  1.00  0.00     0.151 A 
HETATM   23  N5  UNL     1      27.617   2.536  52.042  1.00  0.00    -0.241 NA
ENDBRANCH   1  14
TORSDOF 6
ENDMDL
MODEL 9
REMARK VINA RESULT:      -6.5      5.191      8.044
REMARK  6 active torsions:
REMARK  status: ('A' for Active; 'I' for Inactive)
REMARK    1  A    between atoms: C2_2  and  C3_3 
REMARK    2  A    between atoms: C2_2  and  N2_12 
REMARK    3  A    between atoms: C4_4  and  C5_5 
REMARK    4  A    between atoms: C5_5  and  C6_6 
REMARK    5  A    between atoms: C6_6  and  N1_7 
REMARK    6  A    between atoms: N2_12  and  C10_13 
ROOT
HETATM    1  N2  UNL     1      24.895   3.393  49.518  1.00  0.00    -0.360 N 
HETATM    2  H15 UNL     1      24.521   2.899  48.659  1.00  0.00     0.162 HD
ENDROOT
BRANCH   1   3
HETATM    3  C2  UNL     1      25.188   4.811  49.488  1.00  0.00     0.159 C 
HETATM    4  C1  UNL     1      24.176   5.508  48.599  1.00  0.00     0.046 C 
BRANCH   3   5
HETATM    5  C3  UNL     1      26.556   4.984  49.006  1.00  0.00    -0.082 C 
HETATM    6  C4  UNL     1      27.691   5.150  48.609  1.00  0.00    -0.103 C 
BRANCH   6   7
HETATM    7  C5  UNL     1      29.076   5.378  48.131  1.00  0.00     0.124 C 
BRANCH   7   8
HETATM    8  C6  UNL     1      29.318   6.847  48.116  1.00  0.00     0.287 C 
BRANCH   8   9
HETATM    9  N1  UNL     1      30.502   7.283  48.818  1.00  0.00     0.114 N 
HETATM   10  C7  UNL     1      31.436   6.224  49.093  1.00  0.00     0.301 C 
HETATM   11  C8  UNL     1      32.702   6.752  48.419  1.00  0.00     0.200 C 
HETATM   12  O1  UNL     1      32.563   8.123  48.631  1.00  0.00    -0.361 OA
HETATM   13  C9  UNL     1      31.240   8.313  48.162  1.00  0.00     0.440 C 
ENDBRANCH   8   9
ENDBRANCH   7   8
ENDBRANCH   6   7
ENDBRANCH   3   5
ENDBRANCH   1   3
BRANCH   1  14
HETATM   14  C10 UNL     1      25.097   2.619  50.696  1.00  0.00     0.125 A 
HETATM   15  C11 UNL     1      26.313   2.641  51.347  1.00  0.00     0.065 A 
HETATM   16  C12 UNL     1      26.554   1.905  52.493  1.00  0.00     0.015 A 
HETATM   17  C13 UNL     1      27.785   1.935  53.141  1.00  0.00     0.132 A 
HETATM   18  C15 UNL     1      25.503   1.133  52.965  1.00  0.00     0.087 A 
HETATM   19  N3  UNL     1      27.937   1.189  54.252  1.00  0.00    -0.253 NA
HETATM   20  C14 UNL     1      26.911   0.428  54.722  1.00  0.00     0.233 A 
HETATM   21  N4  UNL     1      25.706   0.395  54.091  1.00  0.00    -0.240 NA
HETATM   22  C16 UNL     1      24.302   1.123  52.304  1.00  0.00     0.151 A 
HETATM   23  N5  UNL     1      24.112   1.853  51.195  1.00  0.00    -0.241 NA
ENDBRANCH   1  14
TORSDOF 6
ENDMDL
