MODEL 1
REMARK VINA RESULT:      -9.5      0.000      0.000
REMARK  6 active torsions:
REMARK  status: ('A' for Active; 'I' for Inactive)
REMARK    1  A    between atoms: O1_2  and  C2_3 
REMARK    2  A    between atoms: C6_9  and  N3_10 
REMARK    3  A    between atoms: N3_10  and  C7_11 
REMARK    4  A    between atoms: C15_21  and  C16_22 
REMARK    5  A    between atoms: C16_22  and  C17_23 
REMARK    6  A    between atoms: C21_28  and  O2_29 
ROOT
HETATM    1  C2  UNL     1      23.540   0.146  53.479  1.00  0.00     0.076 A 
HETATM    2  C3  UNL     1      22.506   0.986  53.104  1.00  0.00     0.070 A 
HETATM    3  C4  UNL     1      22.696   1.931  52.121  1.00  0.00     0.074 A 
HETATM    4  N1  UNL     1      21.625   2.715  51.814  1.00  0.00    -0.241 NA
HETATM    5  C5  UNL     1      21.738   3.655  50.867  1.00  0.00     0.236 A 
HETATM    6  N2  UNL     1      22.914   3.795  50.244  1.00  0.00    -0.224 NA
HETATM    7  C6  UNL     1      24.012   3.071  50.481  1.00  0.00     0.142 A 
HETATM    8  C13 UNL     1      23.884   2.112  51.454  1.00  0.00     0.039 A 
HETATM    9  C14 UNL     1      24.864   1.263  51.860  1.00  0.00     0.027 A 
HETATM   10  C15 UNL     1      24.754   0.290  52.838  1.00  0.00    -0.022 A 
ENDROOT
BRANCH   7  11
HETATM   11  N3  UNL     1      25.257   3.216  49.825  1.00  0.00    -0.340 N 
HETATM   12  H6  UNL     1      25.859   2.403  49.601  1.00  0.00     0.167 HD
BRANCH  11  13
HETATM   13  C7  UNL     1      25.897   4.394  49.370  1.00  0.00     0.035 A 
HETATM   14  C8  UNL     1      25.311   5.644  49.271  1.00  0.00     0.032 A 
HETATM   15  C9  UNL     1      25.937   6.771  48.825  1.00  0.00     0.046 A 
HETATM   16  C10 UNL     1      27.255   6.716  48.430  1.00  0.00     0.138 A 
HETATM   17  F1  UNL     1      27.811   7.857  48.002  1.00  0.00    -0.204 F 
HETATM   18  C11 UNL     1      27.872   5.493  48.512  1.00  0.00     0.074 A 
HETATM   19 CL1  UNL     1      29.557   5.485  47.990  1.00  0.00    -0.081 Cl
HETATM   20  C12 UNL     1      27.208   4.386  48.964  1.00  0.00     0.056 A 
ENDBRANCH  11  13
ENDBRANCH   7  11
BRANCH  10  21
HETATM   21  C16 UNL     1      25.833  -0.592  53.234  1.00  0.00     0.068 C 
BRANCH  21  22
HETATM   22  C17 UNL     1      27.218  -0.362  52.888  1.00  0.00     0.109 C 
HETATM   23  N4  UNL     1      27.861  -1.616  52.574  1.00  0.00    -0.414 N 
HETATM   24  C18 UNL     1      28.987  -1.984  53.318  1.00  0.00     0.114 C 
HETATM   25  H14 UNL     1      27.207  -2.363  52.311  1.00  0.00     0.153 HD
HETATM   26  C19 UNL     1      29.948  -0.939  53.710  1.00  0.00     0.022 C 
HETATM   27  C20 UNL     1      29.380   0.433  53.617  1.00  0.00     0.035 C 
HETATM   28  C21 UNL     1      27.923   0.339  54.048  1.00  0.00     0.140 C 
BRANCH  28  29
HETATM   29  O2  UNL     1      27.779  -0.339  55.232  1.00  0.00    -0.394 OA
HETATM   30  H22 UNL     1      26.854  -0.525  55.508  1.00  0.00     0.210 HD
ENDBRANCH  28  29
ENDBRANCH  21  22
ENDBRANCH  10  21
BRANCH   1  31
HETATM   31  O1  UNL     1      23.370  -0.796  54.451  1.00  0.00    -0.355 OA
HETATM   32  C1  UNL     1      22.180  -1.407  54.855  1.00  0.00     0.210 C 
ENDBRANCH   1  31
TORSDOF 6
ENDMDL
MODEL 2
REMARK VINA RESULT:      -9.3      4.145      7.141
REMARK  6 active torsions:
REMARK  status: ('A' for Active; 'I' for Inactive)
REMARK    1  A    between atoms: O1_2  and  C2_3 
REMARK    2  A    between atoms: C6_9  and  N3_10 
REMARK    3  A    between atoms: N3_10  and  C7_11 
REMARK    4  A    between atoms: C15_21  and  C16_22 
REMARK    5  A    between atoms: C16_22  and  C17_23 
REMARK    6  A    between atoms: C21_28  and  O2_29 
ROOT
HETATM    1  C2  UNL     1      20.132   0.090  52.575  1.00  0.00     0.076 A 
HETATM    2  C3  UNL     1      20.454  -0.542  53.764  1.00  0.00     0.070 A 
HETATM    3  C4  UNL     1      21.770  -0.719  54.127  1.00  0.00     0.074 A 
HETATM    4  N1  UNL     1      21.996  -1.350  55.312  1.00  0.00    -0.241 NA
HETATM    5  C5  UNL     1      23.253  -1.555  55.728  1.00  0.00     0.236 A 
HETATM    6  N2  UNL     1      24.258  -1.128  54.956  1.00  0.00    -0.224 NA
HETATM    7  C6  UNL     1      24.128  -0.501  53.783  1.00  0.00     0.142 A 
HETATM    8  C13 UNL     1      22.835  -0.297  53.368  1.00  0.00     0.039 A 
HETATM    9  C14 UNL     1      22.464   0.316  52.213  1.00  0.00     0.027 A 
HETATM   10  C15 UNL     1      21.168   0.531  51.778  1.00  0.00    -0.022 A 
ENDROOT
BRANCH   7  11
HETATM   11  N3  UNL     1      25.187  -0.047  52.964  1.00  0.00    -0.340 N 
HETATM   12  H6  UNL     1      25.019   0.450  52.070  1.00  0.00     0.167 HD
BRANCH  11  13
HETATM   13  C7  UNL     1      26.584  -0.157  53.165  1.00  0.00     0.035 A 
HETATM   14  C8  UNL     1      27.349  -1.284  52.915  1.00  0.00     0.032 A 
HETATM   15  C9  UNL     1      28.695  -1.380  53.119  1.00  0.00     0.046 A 
HETATM   16  C10 UNL     1      29.395  -0.301  53.610  1.00  0.00     0.138 A 
HETATM   17  F1  UNL     1      30.714  -0.461  53.787  1.00  0.00    -0.204 F 
HETATM   18  C11 UNL     1      28.673   0.836  53.872  1.00  0.00     0.074 A 
HETATM   19 CL1  UNL     1      29.624   2.181  54.500  1.00  0.00    -0.081 Cl
HETATM   20  C12 UNL     1      27.323   0.890  53.654  1.00  0.00     0.056 A 
ENDBRANCH  11  13
ENDBRANCH   7  11
BRANCH  10  21
HETATM   21  C16 UNL     1      20.826   1.192  50.534  1.00  0.00     0.068 C 
BRANCH  21  22
HETATM   22  C17 UNL     1      21.798   1.839  49.682  1.00  0.00     0.109 C 
HETATM   23  N4  UNL     1      21.902   3.237  50.028  1.00  0.00    -0.414 N 
HETATM   24  C18 UNL     1      21.649   4.183  49.029  1.00  0.00     0.114 C 
HETATM   25  H14 UNL     1      21.572   3.456  50.976  1.00  0.00     0.153 HD
HETATM   26  C19 UNL     1      22.109   3.905  47.658  1.00  0.00     0.022 C 
HETATM   27  C20 UNL     1      22.417   2.467  47.433  1.00  0.00     0.035 C 
HETATM   28  C21 UNL     1      21.391   1.665  48.220  1.00  0.00     0.140 C 
BRANCH  28  29
HETATM   29  O2  UNL     1      20.109   2.094  47.982  1.00  0.00    -0.394 OA
HETATM   30  H22 UNL     1      19.395   1.478  48.257  1.00  0.00     0.210 HD
ENDBRANCH  28  29
ENDBRANCH  21  22
ENDBRANCH  10  21
BRANCH   1  31
HETATM   31  O1  UNL     1      18.834   0.273  52.199  1.00  0.00    -0.355 OA
HETATM   32  C1  UNL     1      17.828  -0.692  52.091  1.00  0.00     0.210 C 
ENDBRANCH   1  31
TORSDOF 6
ENDMDL
MODEL 3
REMARK VINA RESULT:      -8.8      4.772      8.064
REMARK  6 active torsions:
REMARK  status: ('A' for Active; 'I' for Inactive)
REMARK    1  A    between atoms: O1_2  and  C2_3 
REMARK    2  A    between atoms: C6_9  and  N3_10 
REMARK    3  A    between atoms: N3_10  and  C7_11 
REMARK    4  A    between atoms: C15_21  and  C16_22 
REMARK    5  A    between atoms: C16_22  and  C17_23 
REMARK    6  A    between atoms: C21_28  and  O2_29 
ROOT
HETATM    1  C2  UNL     1      27.435   6.955  48.255  1.00  0.00     0.076 A 
HETATM    2  C3  UNL     1      26.157   7.012  48.783  1.00  0.00     0.070 A 
HETATM    3  C4  UNL     1      25.608   5.913  49.404  1.00  0.00     0.074 A 
HETATM    4  N1  UNL     1      24.346   6.057  49.894  1.00  0.00    -0.241 NA
HETATM    5  C5  UNL     1      23.749   5.028  50.512  1.00  0.00     0.236 A 
HETATM    6  N2  UNL     1      24.422   3.878  50.628  1.00  0.00    -0.224 NA
HETATM    7  C6  UNL     1      25.660   3.649  50.178  1.00  0.00     0.142 A 
HETATM    8  C13 UNL     1      26.260   4.711  49.547  1.00  0.00     0.039 A 
HETATM    9  C14 UNL     1      27.509   4.709  49.013  1.00  0.00     0.027 A 
HETATM   10  C15 UNL     1      28.130   5.768  48.374  1.00  0.00    -0.022 A 
ENDROOT
BRANCH   7  11
HETATM   11  N3  UNL     1      26.375   2.435  50.299  1.00  0.00    -0.340 N 
HETATM   12  H6  UNL     1      26.669   1.884  49.473  1.00  0.00     0.167 HD
BRANCH  11  13
HETATM   13  C7  UNL     1      26.809   1.766  51.469  1.00  0.00     0.035 A 
HETATM   14  C8  UNL     1      27.350   2.369  52.590  1.00  0.00     0.032 A 
HETATM   15  C9  UNL     1      27.771   1.712  53.710  1.00  0.00     0.046 A 
HETATM   16  C10 UNL     1      27.670   0.341  53.781  1.00  0.00     0.138 A 
HETATM   17  F1  UNL     1      28.101  -0.244  54.907  1.00  0.00    -0.204 F 
HETATM   18  C11 UNL     1      27.139  -0.296  52.688  1.00  0.00     0.074 A 
HETATM   19 CL1  UNL     1      27.039  -2.051  52.838  1.00  0.00    -0.081 Cl
HETATM   20  C12 UNL     1      26.730   0.401  51.584  1.00  0.00     0.056 A 
ENDBRANCH  11  13
ENDBRANCH   7  11
BRANCH  10  21
HETATM   21  C16 UNL     1      29.468   5.713  47.820  1.00  0.00     0.068 C 
BRANCH  21  22
HETATM   22  C17 UNL     1      30.664   5.923  48.604  1.00  0.00     0.109 C 
HETATM   23  N4  UNL     1      30.582   7.187  49.296  1.00  0.00    -0.414 N 
HETATM   24  C18 UNL     1      31.586   8.133  49.063  1.00  0.00     0.114 C 
HETATM   25  H14 UNL     1      29.623   7.539  49.407  1.00  0.00     0.153 HD
HETATM   26  C19 UNL     1      32.974   7.666  48.903  1.00  0.00     0.022 C 
HETATM   27  C20 UNL     1      33.063   6.213  48.598  1.00  0.00     0.035 C 
HETATM   28  C21 UNL     1      31.887   5.878  47.690  1.00  0.00     0.140 C 
BRANCH  28  29
HETATM   29  O2  UNL     1      31.784   6.752  46.637  1.00  0.00    -0.394 OA
HETATM   30  H22 UNL     1      31.152   6.495  45.929  1.00  0.00     0.210 HD
ENDBRANCH  28  29
ENDBRANCH  21  22
ENDBRANCH  10  21
BRANCH   1  31
HETATM   31  O1  UNL     1      27.994   8.033  47.636  1.00  0.00    -0.355 OA
HETATM   32  C1  UNL     1      28.043   9.354  48.092  1.00  0.00     0.210 C 
ENDBRANCH   1  31
TORSDOF 6
ENDMDL
MODEL 4
REMARK VINA RESULT:      -8.6      4.094      7.008
REMARK  6 active torsions:
REMARK  status: ('A' for Active; 'I' for Inactive)
REMARK    1  A    between atoms: O1_2  and  C2_3 
REMARK    2  A    between atoms: C6_9  and  N3_10 
REMARK    3  A    between atoms: N3_10  and  C7_11 
REMARK    4  A    between atoms: C15_21  and  C16_22 
REMARK    5  A    between atoms: C16_22  and  C17_23 
REMARK    6  A    between atoms: C21_28  and  O2_29 
ROOT
HETATM    1  C2  UNL     1      20.472   2.777  52.360  1.00  0.00     0.076 A 
HETATM    2  C3  UNL     1      20.465   1.677  53.201  1.00  0.00     0.070 A 
HETATM    3  C4  UNL     1      21.603   0.922  53.372  1.00  0.00     0.074 A 
HETATM    4  N1  UNL     1      21.507  -0.142  54.217  1.00  0.00    -0.241 NA
HETATM    5  C5  UNL     1      22.575  -0.921  54.432  1.00  0.00     0.236 A 
HETATM    6  N2  UNL     1      23.717  -0.625  53.800  1.00  0.00    -0.224 NA
HETATM    7  C6  UNL     1      23.900   0.396  52.958  1.00  0.00     0.142 A 
HETATM    8  C13 UNL     1      22.797   1.187  52.747  1.00  0.00     0.039 A 
HETATM    9  C14 UNL     1      22.750   2.275  51.934  1.00  0.00     0.027 A 
HETATM   10  C15 UNL     1      21.649   3.083  51.708  1.00  0.00    -0.022 A 
ENDROOT
BRANCH   7  11
HETATM   11  N3  UNL     1      25.105   0.714  52.289  1.00  0.00    -0.340 N 
HETATM   12  H6  UNL     1      25.116   1.188  51.368  1.00  0.00     0.167 HD
BRANCH  11  13
HETATM   13  C7  UNL     1      26.441   0.477  52.693  1.00  0.00     0.035 A 
HETATM   14  C8  UNL     1      27.349   1.445  53.085  1.00  0.00     0.032 A 
HETATM   15  C9  UNL     1      28.637   1.205  53.467  1.00  0.00     0.046 A 
HETATM   16  C10 UNL     1      29.121  -0.083  53.482  1.00  0.00     0.138 A 
HETATM   17  F1  UNL     1      30.394  -0.252  53.867  1.00  0.00    -0.204 F 
HETATM   18  C11 UNL     1      28.251  -1.074  53.100  1.00  0.00     0.074 A 
HETATM   19 CL1  UNL     1      28.930  -2.701  53.139  1.00  0.00    -0.081 Cl
HETATM   20  C12 UNL     1      26.967  -0.790  52.723  1.00  0.00     0.056 A 
ENDBRANCH  11  13
ENDBRANCH   7  11
BRANCH  10  21
HETATM   21  C16 UNL     1      21.652   4.235  50.829  1.00  0.00     0.068 C 
BRANCH  21  22
HETATM   22  C17 UNL     1      21.350   4.161  49.418  1.00  0.00     0.109 C 
HETATM   23  N4  UNL     1      20.944   2.819  49.072  1.00  0.00    -0.414 N 
HETATM   24  C18 UNL     1      21.675   2.141  48.090  1.00  0.00     0.114 C 
HETATM   25  H14 UNL     1      20.609   2.268  49.871  1.00  0.00     0.153 HD
HETATM   26  C19 UNL     1      22.169   2.899  46.928  1.00  0.00     0.022 C 
HETATM   27  C20 UNL     1      22.181   4.368  47.158  1.00  0.00     0.035 C 
HETATM   28  C21 UNL     1      22.577   4.586  48.612  1.00  0.00     0.140 C 
BRANCH  28  29
HETATM   29  O2  UNL     1      23.698   3.871  48.953  1.00  0.00    -0.394 OA
HETATM   30  H22 UNL     1      24.192   4.201  49.735  1.00  0.00     0.210 HD
ENDBRANCH  28  29
ENDBRANCH  21  22
ENDBRANCH  10  21
BRANCH   1  31
HETATM   31  O1  UNL     1      19.354   3.536  52.178  1.00  0.00    -0.355 OA
HETATM   32  C1  UNL     1      18.151   3.160  51.574  1.00  0.00     0.210 C 
ENDBRANCH   1  31
TORSDOF 6
ENDMDL
MODEL 5
REMARK VINA RESULT:      -8.6      4.005      7.220
REMARK  6 active torsions:
REMARK  status: ('A' for Active; 'I' for Inactive)
REMARK    1  A    between atoms: O1_2  and  C2_3 
REMARK    2  A    between atoms: C6_9  and  N3_10 
REMARK    3  A    between atoms: N3_10  and  C7_11 
REMARK    4  A    between atoms: C15_21  and  C16_22 
REMARK    5  A    between atoms: C16_22  and  C17_23 
REMARK    6  A    between atoms: C21_28  and  O2_29 
ROOT
HETATM    1  C2  UNL     1      20.601   2.828  52.294  1.00  0.00     0.076 A 
HETATM    2  C3  UNL     1      20.551   1.751  53.162  1.00  0.00     0.070 A 
HETATM    3  C4  UNL     1      21.645   0.931  53.322  1.00  0.00     0.074 A 
HETATM    4  N1  UNL     1      21.507  -0.104  54.196  1.00  0.00    -0.241 NA
HETATM    5  C5  UNL     1      22.532  -0.943  54.401  1.00  0.00     0.236 A 
HETATM    6  N2  UNL     1      23.671  -0.734  53.732  1.00  0.00    -0.224 NA
HETATM    7  C6  UNL     1      23.892   0.254  52.860  1.00  0.00     0.142 A 
HETATM    8  C13 UNL     1      22.835   1.106  52.658  1.00  0.00     0.039 A 
HETATM    9  C14 UNL     1      22.831   2.176  51.820  1.00  0.00     0.027 A 
HETATM   10  C15 UNL     1      21.776   3.045  51.603  1.00  0.00    -0.022 A 
ENDROOT
BRANCH   7  11
HETATM   11  N3  UNL     1      25.095   0.480  52.151  1.00  0.00    -0.340 N 
HETATM   12  H6  UNL     1      25.103   0.749  51.150  1.00  0.00     0.167 HD
BRANCH  11  13
HETATM   13  C7  UNL     1      26.432   0.397  52.608  1.00  0.00     0.035 A 
HETATM   14  C8  UNL     1      27.227   1.469  52.977  1.00  0.00     0.032 A 
HETATM   15  C9  UNL     1      28.517   1.376  53.412  1.00  0.00     0.046 A 
HETATM   16  C10 UNL     1      29.123   0.144  53.510  1.00  0.00     0.138 A 
HETATM   17  F1  UNL     1      30.391   0.122  53.943  1.00  0.00    -0.204 F 
HETATM   18  C11 UNL     1      28.369  -0.945  53.152  1.00  0.00     0.074 A 
HETATM   19 CL1  UNL     1      29.201  -2.493  53.297  1.00  0.00    -0.081 Cl
HETATM   20  C12 UNL     1      27.078  -0.808  52.721  1.00  0.00     0.056 A 
ENDBRANCH  11  13
ENDBRANCH   7  11
BRANCH  10  21
HETATM   21  C16 UNL     1      21.825   4.174  50.696  1.00  0.00     0.068 C 
BRANCH  21  22
HETATM   22  C17 UNL     1      22.504   5.413  51.001  1.00  0.00     0.109 C 
HETATM   23  N4  UNL     1      21.537   6.444  51.296  1.00  0.00    -0.414 N 
HETATM   24  C18 UNL     1      21.557   7.607  50.518  1.00  0.00     0.114 C 
HETATM   25  H14 UNL     1      20.618   6.083  51.577  1.00  0.00     0.153 HD
HETATM   26  C19 UNL     1      22.858   8.156  50.099  1.00  0.00     0.022 C 
HETATM   27  C20 UNL     1      23.964   7.168  50.210  1.00  0.00     0.035 C 
HETATM   28  C21 UNL     1      23.389   5.813  49.822  1.00  0.00     0.140 C 
BRANCH  28  29
HETATM   29  O2  UNL     1      22.690   5.869  48.642  1.00  0.00    -0.394 OA
HETATM   30  H22 UNL     1      22.580   5.013  48.170  1.00  0.00     0.210 HD
ENDBRANCH  28  29
ENDBRANCH  21  22
ENDBRANCH  10  21
BRANCH   1  31
HETATM   31  O1  UNL     1      19.528   3.651  52.123  1.00  0.00    -0.355 OA
HETATM   32  C1  UNL     1      18.298   3.346  51.532  1.00  0.00     0.210 C 
ENDBRANCH   1  31
TORSDOF 6
ENDMDL
MODEL 6
REMARK VINA RESULT:      -8.5      4.225      6.856
REMARK  6 active torsions:
REMARK  status: ('A' for Active; 'I' for Inactive)
REMARK    1  A    between atoms: O1_2  and  C2_3 
REMARK    2  A    between atoms: C6_9  and  N3_10 
REMARK    3  A    between atoms: N3_10  and  C7_11 
REMARK    4  A    between atoms: C15_21  and  C16_22 
REMARK    5  A    between atoms: C16_22  and  C17_23 
REMARK    6  A    between atoms: C21_28  and  O2_29 
ROOT
HETATM    1  C2  UNL     1      19.900  -0.126  52.695  1.00  0.00     0.076 A 
HETATM    2  C3  UNL     1      20.341  -0.770  53.838  1.00  0.00     0.070 A 
HETATM    3  C4  UNL     1      21.684  -0.824  54.135  1.00  0.00     0.074 A 
HETATM    4  N1  UNL     1      22.029  -1.477  55.279  1.00  0.00    -0.241 NA
HETATM    5  C5  UNL     1      23.319  -1.568  55.631  1.00  0.00     0.236 A 
HETATM    6  N2  UNL     1      24.238  -1.007  54.837  1.00  0.00    -0.224 NA
HETATM    7  C6  UNL     1      23.988  -0.349  53.701  1.00  0.00     0.142 A 
HETATM    8  C13 UNL     1      22.663  -0.263  53.351  1.00  0.00     0.039 A 
HETATM    9  C14 UNL     1      22.177   0.356  52.244  1.00  0.00     0.027 A 
HETATM   10  C15 UNL     1      20.847   0.453  51.875  1.00  0.00    -0.022 A 
ENDROOT
BRANCH   7  11
HETATM   11  N3  UNL     1      24.956   0.247  52.858  1.00  0.00    -0.340 N 
HETATM   12  H6  UNL     1      24.749   0.502  51.876  1.00  0.00     0.167 HD
BRANCH  11  13
HETATM   13  C7  UNL     1      26.298   0.596  53.145  1.00  0.00     0.035 A 
HETATM   14  C8  UNL     1      26.774   1.881  53.336  1.00  0.00     0.032 A 
HETATM   15  C9  UNL     1      28.072   2.205  53.606  1.00  0.00     0.046 A 
HETATM   16  C10 UNL     1      29.022   1.214  53.707  1.00  0.00     0.138 A 
HETATM   17  F1  UNL     1      30.278   1.598  53.974  1.00  0.00    -0.204 F 
HETATM   18  C11 UNL     1      28.590  -0.076  53.523  1.00  0.00     0.074 A 
HETATM   19 CL1  UNL     1      29.852  -1.299  53.662  1.00  0.00    -0.081 Cl
HETATM   20  C12 UNL     1      27.278  -0.358  53.253  1.00  0.00     0.056 A 
ENDBRANCH  11  13
ENDBRANCH   7  11
BRANCH  10  21
HETATM   21  C16 UNL     1      20.381   1.127  50.679  1.00  0.00     0.068 C 
BRANCH  21  22
HETATM   22  C17 UNL     1      20.750   2.480  50.332  1.00  0.00     0.109 C 
HETATM   23  N4  UNL     1      22.047   2.793  50.885  1.00  0.00    -0.414 N 
HETATM   24  C18 UNL     1      22.148   3.886  51.752  1.00  0.00     0.114 C 
HETATM   25  H14 UNL     1      22.615   1.966  51.106  1.00  0.00     0.153 HD
HETATM   26  C19 UNL     1      21.351   5.091  51.466  1.00  0.00     0.022 C 
HETATM   27  C20 UNL     1      20.230   4.832  50.523  1.00  0.00     0.035 C 
HETATM   28  C21 UNL     1      19.687   3.448  50.850  1.00  0.00     0.140 C 
BRANCH  28  29
HETATM   29  O2  UNL     1      19.449   3.291  52.192  1.00  0.00    -0.394 OA
HETATM   30  H22 UNL     1      19.543   4.102  52.740  1.00  0.00     0.210 HD
ENDBRANCH  28  29
ENDBRANCH  21  22
ENDBRANCH  10  21
BRANCH   1  31
HETATM   31  O1  UNL     1      18.574  -0.063  52.385  1.00  0.00    -0.355 OA
HETATM   32  C1  UNL     1      17.569  -0.973  52.726  1.00  0.00     0.210 C 
ENDBRANCH   1  31
TORSDOF 6
ENDMDL
MODEL 7
REMARK VINA RESULT:      -8.5      5.521      8.806
REMARK  6 active torsions:
REMARK  status: ('A' for Active; 'I' for Inactive)
REMARK    1  A    between atoms: O1_2  and  C2_3 
REMARK    2  A    between atoms: C6_9  and  N3_10 
REMARK    3  A    between atoms: N3_10  and  C7_11 
REMARK    4  A    between atoms: C15_21  and  C16_22 
REMARK    5  A    between atoms: C16_22  and  C17_23 
REMARK    6  A    between atoms: C21_28  and  O2_29 
ROOT
HETATM    1  C2  UNL     1      31.280   7.811  48.173  1.00  0.00     0.076 A 
HETATM    2  C3  UNL     1      30.525   8.782  48.808  1.00  0.00     0.070 A 
HETATM    3  C4  UNL     1      29.180   8.586  49.030  1.00  0.00     0.074 A 
HETATM    4  N1  UNL     1      28.514   9.592  49.661  1.00  0.00    -0.241 NA
HETATM    5  C5  UNL     1      27.204   9.470  49.910  1.00  0.00     0.236 A 
HETATM    6  N2  UNL     1      26.584   8.348  49.526  1.00  0.00    -0.224 NA
HETATM    7  C6  UNL     1      27.158   7.313  48.905  1.00  0.00     0.142 A 
HETATM    8  C13 UNL     1      28.501   7.452  48.655  1.00  0.00     0.039 A 
HETATM    9  C14 UNL     1      29.288   6.533  48.037  1.00  0.00     0.027 A 
HETATM   10  C15 UNL     1      30.642   6.653  47.776  1.00  0.00    -0.022 A 
ENDROOT
BRANCH   7  11
HETATM   11  N3  UNL     1      26.507   6.126  48.497  1.00  0.00    -0.340 N 
HETATM   12  H6  UNL     1      26.250   5.949  47.509  1.00  0.00     0.167 HD
BRANCH  11  13
HETATM   13  C7  UNL     1      26.101   5.016  49.277  1.00  0.00     0.035 A 
HETATM   14  C8  UNL     1      26.801   3.831  49.421  1.00  0.00     0.032 A 
HETATM   15  C9  UNL     1      26.395   2.765  50.171  1.00  0.00     0.046 A 
HETATM   16  C10 UNL     1      25.205   2.823  50.860  1.00  0.00     0.138 A 
HETATM   17  F1  UNL     1      24.864   1.744  51.578  1.00  0.00    -0.204 F 
HETATM   18  C11 UNL     1      24.480   3.982  50.743  1.00  0.00     0.074 A 
HETATM   19 CL1  UNL     1      22.965   3.994  51.646  1.00  0.00    -0.081 Cl
HETATM   20  C12 UNL     1      24.922   5.027  49.979  1.00  0.00     0.056 A 
ENDBRANCH  11  13
ENDBRANCH   7  11
BRANCH  10  21
HETATM   21  C16 UNL     1      31.437   5.640  47.112  1.00  0.00     0.068 C 
BRANCH  21  22
HETATM   22  C17 UNL     1      32.110   4.570  47.813  1.00  0.00     0.109 C 
HETATM   23  N4  UNL     1      33.333   5.062  48.403  1.00  0.00    -0.414 N 
HETATM   24  C18 UNL     1      34.535   4.444  48.041  1.00  0.00     0.114 C 
HETATM   25  H14 UNL     1      33.350   6.081  48.534  1.00  0.00     0.153 HD
HETATM   26  C19 UNL     1      34.549   2.984  47.847  1.00  0.00     0.022 C 
HETATM   27  C20 UNL     1      33.188   2.413  47.658  1.00  0.00     0.035 C 
HETATM   28  C21 UNL     1      32.393   3.424  46.843  1.00  0.00     0.140 C 
BRANCH  28  29
HETATM   29  O2  UNL     1      33.077   3.841  45.729  1.00  0.00    -0.394 OA
HETATM   30  H22 UNL     1      33.439   4.754  45.768  1.00  0.00     0.210 HD
ENDBRANCH  28  29
ENDBRANCH  21  22
ENDBRANCH  10  21
BRANCH   1  31
HETATM   31  O1  UNL     1      32.613   7.988  47.944  1.00  0.00    -0.355 OA
HETATM   32  C1  UNL     1      33.218   8.830  47.007  1.00  0.00     0.210 C 
ENDBRANCH   1  31
TORSDOF 6
ENDMDL
MODEL 8
REMARK VINA RESULT:      -8.5      2.393      5.530
REMARK  6 active torsions:
REMARK  status: ('A' for Active; 'I' for Inactive)
REMARK    1  A    between atoms: O1_2  and  C2_3 
REMARK    2  A    between atoms: C6_9  and  N3_10 
REMARK    3  A    between atoms: N3_10  and  C7_11 
REMARK    4  A    between atoms: C15_21  and  C16_22 
REMARK    5  A    between atoms: C16_22  and  C17_23 
REMARK    6  A    between atoms: C21_28  and  O2_29 
ROOT
HETATM    1  C2  UNL     1      23.501  -0.201  53.246  1.00  0.00     0.076 A 
HETATM    2  C3  UNL     1      24.817  -0.039  53.642  1.00  0.00     0.070 A 
HETATM    3  C4  UNL     1      25.642   0.842  52.979  1.00  0.00     0.074 A 
HETATM    4  N1  UNL     1      26.921   0.939  53.435  1.00  0.00    -0.241 NA
HETATM    5  C5  UNL     1      27.780   1.777  52.837  1.00  0.00     0.236 A 
HETATM    6  N2  UNL     1      27.346   2.499  51.798  1.00  0.00    -0.224 NA
HETATM    7  C6  UNL     1      26.112   2.467  51.287  1.00  0.00     0.142 A 
HETATM    8  C13 UNL     1      25.242   1.605  51.908  1.00  0.00     0.039 A 
HETATM    9  C14 UNL     1      23.944   1.407  51.561  1.00  0.00     0.027 A 
HETATM   10  C15 UNL     1      23.052   0.543  52.174  1.00  0.00    -0.022 A 
ENDROOT
BRANCH   7  11
HETATM   11  N3  UNL     1      25.649   3.229  50.189  1.00  0.00    -0.340 N 
HETATM   12  H6  UNL     1      24.865   2.913  49.590  1.00  0.00     0.167 HD
BRANCH  11  13
HETATM   13  C7  UNL     1      26.110   4.480  49.711  1.00  0.00     0.035 A 
HETATM   14  C8  UNL     1      27.206   4.674  48.888  1.00  0.00     0.032 A 
HETATM   15  C9  UNL     1      27.644   5.886  48.438  1.00  0.00     0.046 A 
HETATM   16  C10 UNL     1      26.979   7.035  48.801  1.00  0.00     0.138 A 
HETATM   17  F1  UNL     1      27.460   8.193  48.325  1.00  0.00    -0.204 F 
HETATM   18  C11 UNL     1      25.887   6.886  49.617  1.00  0.00     0.074 A 
HETATM   19 CL1  UNL     1      25.079   8.393  50.048  1.00  0.00    -0.081 Cl
HETATM   20  C12 UNL     1      25.481   5.652  50.047  1.00  0.00     0.056 A 
ENDBRANCH  11  13
ENDBRANCH   7  11
BRANCH  10  21
HETATM   21  C16 UNL     1      21.673   0.370  51.763  1.00  0.00     0.068 C 
BRANCH  21  22
HETATM   22  C17 UNL     1      20.597   1.229  52.203  1.00  0.00     0.109 C 
HETATM   23  N4  UNL     1      19.370   0.474  52.288  1.00  0.00    -0.414 N 
HETATM   24  C18 UNL     1      18.275   0.907  51.531  1.00  0.00     0.114 C 
HETATM   25  H14 UNL     1      19.510  -0.540  52.371  1.00  0.00     0.153 HD
HETATM   26  C19 UNL     1      18.040   2.354  51.393  1.00  0.00     0.022 C 
HETATM   27  C20 UNL     1      19.237   3.169  51.733  1.00  0.00     0.035 C 
HETATM   28  C21 UNL     1      20.453   2.401  51.234  1.00  0.00     0.140 C 
BRANCH  28  29
HETATM   29  O2  UNL     1      20.303   1.988  49.934  1.00  0.00    -0.394 OA
HETATM   30  H22 UNL     1      20.598   2.625  49.247  1.00  0.00     0.210 HD
ENDBRANCH  28  29
ENDBRANCH  21  22
ENDBRANCH  10  21
BRANCH   1  31
HETATM   31  O1  UNL     1      22.669  -1.069  53.891  1.00  0.00    -0.355 OA
HETATM   32  C1  UNL     1      22.563  -1.292  55.267  1.00  0.00     0.210 C 
ENDBRANCH   1  31
TORSDOF 6
ENDMDL
MODEL 9
REMARK VINA RESULT:      -8.4      3.995      6.916
REMARK  6 active torsions:
REMARK  status: ('A' for Active; 'I' for Inactive)
REMARK    1  A    between atoms: O1_2  and  C2_3 
REMARK    2  A    between atoms: C6_9  and  N3_10 
REMARK    3  A    between atoms: N3_10  and  C7_11 
REMARK    4  A    between atoms: C15_21  and  C16_22 
REMARK    5  A    between atoms: C16_22  and  C17_23 
REMARK    6  A    between atoms: C21_28  and  O2_29 
ROOT
HETATM    1  C2  UNL     1      26.848   0.728  53.368  1.00  0.00     0.076 A 
HETATM    2  C3  UNL     1      26.365   0.002  54.443  1.00  0.00     0.070 A 
HETATM    3  C4  UNL     1      25.065  -0.451  54.453  1.00  0.00     0.074 A 
HETATM    4  N1  UNL     1      24.674  -1.157  55.550  1.00  0.00    -0.241 NA
HETATM    5  C5  UNL     1      23.422  -1.628  55.627  1.00  0.00     0.236 A 
HETATM    6  N2  UNL     1      22.586  -1.386  54.611  1.00  0.00    -0.224 NA
HETATM    7  C6  UNL     1      22.885  -0.706  53.501  1.00  0.00     0.142 A 
HETATM    8  C13 UNL     1      24.171  -0.228  53.434  1.00  0.00     0.039 A 
HETATM    9  C14 UNL     1      24.694   0.489  52.405  1.00  0.00     0.027 A 
HETATM   10  C15 UNL     1      25.986   0.978  52.319  1.00  0.00    -0.022 A 
ENDROOT
BRANCH   7  11
HETATM   11  N3  UNL     1      22.005  -0.448  52.424  1.00  0.00    -0.340 N 
HETATM   12  H6  UNL     1      21.930  -1.083  51.609  1.00  0.00     0.167 HD
BRANCH  11  13
HETATM   13  C7  UNL     1      21.111   0.634  52.239  1.00  0.00     0.035 A 
HETATM   14  C8  UNL     1      21.330   1.940  52.640  1.00  0.00     0.032 A 
HETATM   15  C9  UNL     1      20.457   2.974  52.461  1.00  0.00     0.046 A 
HETATM   16  C10 UNL     1      19.251   2.754  51.837  1.00  0.00     0.138 A 
HETATM   17  F1  UNL     1      18.438   3.811  51.692  1.00  0.00    -0.204 F 
HETATM   18  C11 UNL     1      18.993   1.471  51.424  1.00  0.00     0.074 A 
HETATM   19 CL1  UNL     1      17.431   1.253  50.635  1.00  0.00    -0.081 Cl
HETATM   20  C12 UNL     1      19.896   0.463  51.624  1.00  0.00     0.056 A 
ENDBRANCH  11  13
ENDBRANCH   7  11
BRANCH  10  21
HETATM   21  C16 UNL     1      26.496   1.739  51.196  1.00  0.00     0.068 C 
BRANCH  21  22
HETATM   22  C17 UNL     1      26.295   3.162  51.042  1.00  0.00     0.109 C 
HETATM   23  N4  UNL     1      25.250   3.611  51.931  1.00  0.00    -0.414 N 
HETATM   24  C18 UNL     1      24.137   4.249  51.371  1.00  0.00     0.114 C 
HETATM   25  H14 UNL     1      25.079   2.980  52.723  1.00  0.00     0.153 HD
HETATM   26  C19 UNL     1      24.344   5.163  50.234  1.00  0.00     0.022 C 
HETATM   27  C20 UNL     1      25.659   4.967  49.567  1.00  0.00     0.035 C 
HETATM   28  C21 UNL     1      25.948   3.473  49.587  1.00  0.00     0.140 C 
BRANCH  28  29
HETATM   29  O2  UNL     1      24.881   2.736  49.137  1.00  0.00    -0.394 OA
HETATM   30  H22 UNL     1      24.236   2.457  49.824  1.00  0.00     0.210 HD
ENDBRANCH  28  29
ENDBRANCH  21  22
ENDBRANCH  10  21
BRANCH   1  31
HETATM   31  O1  UNL     1      28.132   1.184  53.341  1.00  0.00    -0.355 OA
HETATM   32  C1  UNL     1      29.300   0.478  53.647  1.00  0.00     0.210 C 
ENDBRANCH   1  31
TORSDOF 6
ENDMDL
