MODEL 1
REMARK VINA RESULT:     -10.1      0.000      0.000
REMARK  2 active torsions:
REMARK  status: ('A' for Active; 'I' for Inactive)
REMARK    1  A    between atoms: O1_2  and  C2_3 
REMARK    2  A    between atoms: C24_30  and  O3_31 
ROOT
HETATM    1  C2  UNL     1      25.788   0.288  53.520  1.00  0.00     0.084 C 
HETATM    2  C3  UNL     1      26.369   1.154  52.748  1.00  0.00     0.081 C 
HETATM    3  C4  UNL     1      26.733   2.186  51.833  1.00  0.00    -0.011 C 
HETATM    4  C5  UNL     1      26.490   3.150  50.976  1.00  0.00     0.036 C 
HETATM    5  C6  UNL     1      25.216   3.646  50.532  1.00  0.00     0.097 C 
HETATM    6  N1  UNL     1      25.299   3.952  49.230  1.00  0.00    -0.253 NA
HETATM    7  C7  UNL     1      24.618   5.110  48.636  1.00  0.00     0.126 C 
HETATM    8  C8  UNL     1      23.392   5.434  49.002  1.00  0.00    -0.028 C 
HETATM    9  C9  UNL     1      22.946   6.851  49.197  1.00  0.00     0.009 C 
HETATM   10  C10 UNL     1      22.249   7.091  50.344  1.00  0.00     0.002 C 
HETATM   11  C11 UNL     1      22.040   5.989  51.329  1.00  0.00     0.015 C 
HETATM   12  C12 UNL     1      22.586   4.860  50.922  1.00  0.00    -0.003 C 
HETATM   13  S1  UNL     1      23.781   3.782  51.707  1.00  0.00    -0.074 SA
HETATM   14  C13 UNL     1      22.251   4.477  49.454  1.00  0.00     0.082 C 
HETATM   15  C14 UNL     1      22.570   3.109  49.119  1.00  0.00    -0.014 C 
HETATM   16  C15 UNL     1      21.899   2.053  49.551  1.00  0.00    -0.003 C 
HETATM   17  C16 UNL     1      20.682   1.810  50.447  1.00  0.00     0.203 C 
HETATM   18  O2  UNL     1      20.931   1.086  51.504  1.00  0.00    -0.345 OA
HETATM   19  C17 UNL     1      21.184   0.351  52.524  1.00  0.00     0.103 A 
HETATM   20  C18 UNL     1      22.563   0.370  52.759  1.00  0.00     0.056 A 
HETATM   21  C19 UNL     1      23.269  -0.262  53.735  1.00  0.00     0.027 A 
HETATM   22  C20 UNL     1      24.577  -0.293  54.044  1.00  0.00     0.100 A 
HETATM   23  N2  UNL     1      24.973  -1.020  55.100  1.00  0.00    -0.239 NA
HETATM   24  C21 UNL     1      24.169  -1.735  55.899  1.00  0.00     0.234 A 
HETATM   25  N3  UNL     1      22.876  -1.721  55.617  1.00  0.00    -0.241 NA
HETATM   26  C22 UNL     1      22.441  -1.000  54.560  1.00  0.00     0.073 A 
HETATM   27  C23 UNL     1      21.077  -1.059  54.379  1.00  0.00     0.072 A 
HETATM   28  C24 UNL     1      20.404  -0.400  53.375  1.00  0.00     0.103 A 
ENDROOT
BRANCH   1  29
HETATM   29  O1  UNL     1      27.117   0.013  53.754  1.00  0.00    -0.357 OA
HETATM   30  C1  UNL     1      27.791  -1.046  53.068  1.00  0.00     0.209 C 
ENDBRANCH   1  29
BRANCH  28  31
HETATM   31  O3  UNL     1      19.069  -0.368  53.079  1.00  0.00    -0.353 OA
HETATM   32  C25 UNL     1      18.140  -1.396  53.296  1.00  0.00     0.210 C 
ENDBRANCH  28  31
TORSDOF 2
ENDMDL
MODEL 2
REMARK VINA RESULT:     -10.0      1.150      1.286
REMARK  2 active torsions:
REMARK  status: ('A' for Active; 'I' for Inactive)
REMARK    1  A    between atoms: O1_2  and  C2_3 
REMARK    2  A    between atoms: C24_30  and  O3_31 
ROOT
HETATM    1  C2  UNL     1      25.116  -0.121  53.480  1.00  0.00     0.084 C 
HETATM    2  C3  UNL     1      26.009   0.615  52.892  1.00  0.00     0.081 C 
HETATM    3  C4  UNL     1      26.757   1.567  52.139  1.00  0.00    -0.011 C 
HETATM    4  C5  UNL     1      26.899   2.591  51.331  1.00  0.00     0.036 C 
HETATM    5  C6  UNL     1      25.873   3.385  50.712  1.00  0.00     0.097 C 
HETATM    6  N1  UNL     1      26.265   3.711  49.473  1.00  0.00    -0.253 NA
HETATM    7  C7  UNL     1      25.982   5.016  48.861  1.00  0.00     0.126 C 
HETATM    8  C8  UNL     1      24.811   5.601  49.031  1.00  0.00    -0.028 C 
HETATM    9  C9  UNL     1      24.659   7.075  49.256  1.00  0.00     0.009 C 
HETATM   10  C10 UNL     1      23.829   7.428  50.278  1.00  0.00     0.002 C 
HETATM   11  C11 UNL     1      23.201   6.368  51.122  1.00  0.00     0.015 C 
HETATM   12  C12 UNL     1      23.551   5.159  50.729  1.00  0.00    -0.003 C 
HETATM   13  S1  UNL     1      24.308   3.806  51.624  1.00  0.00    -0.074 SA
HETATM   14  C13 UNL     1      23.422   4.919  49.199  1.00  0.00     0.082 C 
HETATM   15  C14 UNL     1      23.489   3.527  48.819  1.00  0.00    -0.014 C 
HETATM   16  C15 UNL     1      22.533   2.640  49.042  1.00  0.00    -0.003 C 
HETATM   17  C16 UNL     1      21.146   2.652  49.689  1.00  0.00     0.203 C 
HETATM   18  O2  UNL     1      21.025   1.852  50.713  1.00  0.00    -0.345 OA
HETATM   19  C17 UNL     1      20.912   1.042  51.701  1.00  0.00     0.103 A 
HETATM   20  C18 UNL     1      22.191   0.732  52.175  1.00  0.00     0.056 A 
HETATM   21  C19 UNL     1      22.543  -0.081  53.206  1.00  0.00     0.027 A 
HETATM   22  C20 UNL     1      23.730  -0.425  53.735  1.00  0.00     0.100 A 
HETATM   23  N2  UNL     1      23.750  -1.263  54.785  1.00  0.00    -0.239 NA
HETATM   24  C21 UNL     1      22.672  -1.801  55.371  1.00  0.00     0.234 A 
HETATM   25  N3  UNL     1      21.491  -1.478  54.869  1.00  0.00    -0.241 NA
HETATM   26  C22 UNL     1      21.433  -0.638  53.812  1.00  0.00     0.073 A 
HETATM   27  C23 UNL     1      20.148  -0.373  53.391  1.00  0.00     0.072 A 
HETATM   28  C24 UNL     1      19.840   0.461  52.340  1.00  0.00     0.103 A 
ENDROOT
BRANCH   1  29
HETATM   29  O1  UNL     1      26.283  -0.705  53.920  1.00  0.00    -0.357 OA
HETATM   30  C1  UNL     1      26.981  -1.668  53.126  1.00  0.00     0.209 C 
ENDBRANCH   1  29
BRANCH  28  31
HETATM   31  O3  UNL     1      18.625   0.811  51.818  1.00  0.00    -0.353 OA
HETATM   32  C25 UNL     1      17.906   0.117  50.834  1.00  0.00     0.210 C 
ENDBRANCH  28  31
TORSDOF 2
ENDMDL
MODEL 3
REMARK VINA RESULT:      -9.1      2.401      6.680
REMARK  2 active torsions:
REMARK  status: ('A' for Active; 'I' for Inactive)
REMARK    1  A    between atoms: O1_2  and  C2_3 
REMARK    2  A    between atoms: C24_30  and  O3_31 
ROOT
HETATM    1  C2  UNL     1      26.234   2.484  51.092  1.00  0.00     0.084 C 
HETATM    2  C3  UNL     1      25.679   1.551  51.802  1.00  0.00     0.081 C 
HETATM    3  C4  UNL     1      24.817   0.650  52.494  1.00  0.00    -0.011 C 
HETATM    4  C5  UNL     1      23.652   0.180  52.873  1.00  0.00     0.036 C 
HETATM    5  C6  UNL     1      22.343   0.671  52.540  1.00  0.00     0.097 C 
HETATM    6  N1  UNL     1      21.547   0.549  53.611  1.00  0.00    -0.253 NA
HETATM    7  C7  UNL     1      20.129   0.177  53.516  1.00  0.00     0.126 C 
HETATM    8  C8  UNL     1      19.365   0.668  52.558  1.00  0.00    -0.028 C 
HETATM    9  C9  UNL     1      18.338  -0.148  51.834  1.00  0.00     0.009 C 
HETATM   10  C10 UNL     1      18.348  -0.029  50.476  1.00  0.00     0.002 C 
HETATM   11  C11 UNL     1      19.384   0.818  49.814  1.00  0.00     0.015 C 
HETATM   12  C12 UNL     1      20.191   1.379  50.692  1.00  0.00    -0.003 C 
HETATM   13  S1  UNL     1      21.975   1.337  50.843  1.00  0.00    -0.074 SA
HETATM   14  C13 UNL     1      19.467   2.066  51.883  1.00  0.00     0.082 C 
HETATM   15  C14 UNL     1      20.317   2.944  52.654  1.00  0.00    -0.014 C 
HETATM   16  C15 UNL     1      20.758   4.121  52.238  1.00  0.00    -0.003 C 
HETATM   17  C16 UNL     1      20.610   4.970  50.974  1.00  0.00     0.203 C 
HETATM   18  O2  UNL     1      21.737   5.229  50.368  1.00  0.00    -0.345 OA
HETATM   19  C17 UNL     1      22.854   5.499  49.797  1.00  0.00     0.103 A 
HETATM   20  C18 UNL     1      23.812   4.575  50.230  1.00  0.00     0.056 A 
HETATM   21  C19 UNL     1      25.123   4.482  49.881  1.00  0.00     0.027 A 
HETATM   22  C20 UNL     1      26.104   3.633  50.230  1.00  0.00     0.100 A 
HETATM   23  N2  UNL     1      27.323   3.800  49.694  1.00  0.00    -0.239 NA
HETATM   24  C21 UNL     1      27.664   4.757  48.819  1.00  0.00     0.234 A 
HETATM   25  N3  UNL     1      26.716   5.606  48.459  1.00  0.00    -0.241 NA
HETATM   26  C22 UNL     1      25.476   5.468  48.980  1.00  0.00     0.073 A 
HETATM   27  C23 UNL     1      24.580   6.407  48.518  1.00  0.00     0.072 A 
HETATM   28  C24 UNL     1      23.258   6.460  48.899  1.00  0.00     0.103 A 
ENDROOT
BRANCH   1  29
HETATM   29  O1  UNL     1      27.338   1.815  51.574  1.00  0.00    -0.357 OA
HETATM   30  C1  UNL     1      27.948   2.184  52.815  1.00  0.00     0.209 C 
ENDBRANCH   1  29
BRANCH  28  31
HETATM   31  O3  UNL     1      22.265   7.325  48.527  1.00  0.00    -0.353 OA
HETATM   32  C25 UNL     1      21.942   8.541  49.145  1.00  0.00     0.210 C 
ENDBRANCH  28  31
TORSDOF 2
ENDMDL
MODEL 4
REMARK VINA RESULT:      -9.0      2.382      3.830
REMARK  2 active torsions:
REMARK  status: ('A' for Active; 'I' for Inactive)
REMARK    1  A    between atoms: O1_2  and  C2_3 
REMARK    2  A    between atoms: C24_30  and  O3_31 
ROOT
HETATM    1  C2  UNL     1      21.808  -0.563  53.092  1.00  0.00     0.084 C 
HETATM    2  C3  UNL     1      23.041  -0.161  53.079  1.00  0.00     0.081 C 
HETATM    3  C4  UNL     1      24.296   0.486  52.880  1.00  0.00    -0.011 C 
HETATM    4  C5  UNL     1      25.094   1.391  52.363  1.00  0.00     0.036 C 
HETATM    5  C6  UNL     1      24.766   2.447  51.445  1.00  0.00     0.097 C 
HETATM    6  N1  UNL     1      25.775   2.598  50.577  1.00  0.00    -0.253 NA
HETATM    7  C7  UNL     1      26.208   3.908  50.072  1.00  0.00     0.126 C 
HETATM    8  C8  UNL     1      25.323   4.835  49.756  1.00  0.00    -0.028 C 
HETATM    9  C9  UNL     1      25.516   6.289  50.068  1.00  0.00     0.009 C 
HETATM   10  C10 UNL     1      24.442   6.913  50.630  1.00  0.00     0.002 C 
HETATM   11  C11 UNL     1      23.212   6.129  50.949  1.00  0.00     0.015 C 
HETATM   12  C12 UNL     1      23.341   4.860  50.614  1.00  0.00    -0.003 C 
HETATM   13  S1  UNL     1      23.154   3.364  51.580  1.00  0.00    -0.074 SA
HETATM   14  C13 UNL     1      23.892   4.628  49.180  1.00  0.00     0.082 C 
HETATM   15  C14 UNL     1      23.726   3.274  48.703  1.00  0.00    -0.014 C 
HETATM   16  C15 UNL     1      22.569   2.739  48.348  1.00  0.00    -0.003 C 
HETATM   17  C16 UNL     1      21.113   3.204  48.280  1.00  0.00     0.203 C 
HETATM   18  O2  UNL     1      20.294   2.512  49.025  1.00  0.00    -0.345 OA
HETATM   19  C17 UNL     1      19.497   1.807  49.740  1.00  0.00     0.103 A 
HETATM   20  C18 UNL     1      20.245   1.126  50.707  1.00  0.00     0.056 A 
HETATM   21  C19 UNL     1      19.812   0.274  51.674  1.00  0.00     0.027 A 
HETATM   22  C20 UNL     1      20.446  -0.409  52.642  1.00  0.00     0.100 A 
HETATM   23  N2  UNL     1      19.722  -1.180  53.469  1.00  0.00    -0.239 NA
HETATM   24  C21 UNL     1      18.392  -1.336  53.422  1.00  0.00     0.234 A 
HETATM   25  N3  UNL     1      17.743  -0.674  52.477  1.00  0.00    -0.241 NA
HETATM   26  C22 UNL     1      18.440   0.111  51.626  1.00  0.00     0.073 A 
HETATM   27  C23 UNL     1      17.649   0.753  50.699  1.00  0.00     0.072 A 
HETATM   28  C24 UNL     1      18.134   1.610  49.737  1.00  0.00     0.103 A 
ENDROOT
BRANCH   1  29
HETATM   29  O1  UNL     1      22.399  -1.470  53.944  1.00  0.00    -0.357 OA
HETATM   30  C1  UNL     1      22.593  -1.174  55.330  1.00  0.00     0.209 C 
ENDBRANCH   1  29
BRANCH  28  31
HETATM   31  O3  UNL     1      17.474   2.309  48.763  1.00  0.00    -0.353 OA
HETATM   32  C25 UNL     1      16.174   2.068  48.297  1.00  0.00     0.210 C 
ENDBRANCH  28  31
TORSDOF 2
ENDMDL
MODEL 5
REMARK VINA RESULT:      -8.9      2.939      5.671
REMARK  2 active torsions:
REMARK  status: ('A' for Active; 'I' for Inactive)
REMARK    1  A    between atoms: O1_2  and  C2_3 
REMARK    2  A    between atoms: C24_30  and  O3_31 
ROOT
HETATM    1  C2  UNL     1      22.938  -0.380  53.074  1.00  0.00     0.084 C 
HETATM    2  C3  UNL     1      21.643  -0.339  53.025  1.00  0.00     0.081 C 
HETATM    3  C4  UNL     1      20.263  -0.070  52.783  1.00  0.00    -0.011 C 
HETATM    4  C5  UNL     1      19.259   0.574  52.235  1.00  0.00     0.036 C 
HETATM    5  C6  UNL     1      19.305   1.680  51.319  1.00  0.00     0.097 C 
HETATM    6  N1  UNL     1      18.305   2.524  51.606  1.00  0.00    -0.253 NA
HETATM    7  C7  UNL     1      17.544   3.243  50.575  1.00  0.00     0.126 C 
HETATM    8  C8  UNL     1      18.153   3.755  49.522  1.00  0.00    -0.028 C 
HETATM    9  C9  UNL     1      17.573   3.707  48.140  1.00  0.00     0.009 C 
HETATM   10  C10 UNL     1      18.433   3.309  47.160  1.00  0.00     0.002 C 
HETATM   11  C11 UNL     1      19.823   2.896  47.516  1.00  0.00     0.015 C 
HETATM   12  C12 UNL     1      20.044   2.989  48.812  1.00  0.00    -0.003 C 
HETATM   13  S1  UNL     1      20.611   1.773  49.998  1.00  0.00    -0.074 SA
HETATM   14  C13 UNL     1      19.594   4.335  49.445  1.00  0.00     0.082 C 
HETATM   15  C14 UNL     1      20.124   4.563  50.770  1.00  0.00    -0.014 C 
HETATM   16  C15 UNL     1      21.387   4.856  51.035  1.00  0.00    -0.003 C 
HETATM   17  C16 UNL     1      22.666   5.061  50.220  1.00  0.00     0.203 C 
HETATM   18  O2  UNL     1      23.630   4.232  50.518  1.00  0.00    -0.345 OA
HETATM   19  C17 UNL     1      24.577   3.430  50.841  1.00  0.00     0.103 A 
HETATM   20  C18 UNL     1      24.025   2.329  51.505  1.00  0.00     0.056 A 
HETATM   21  C19 UNL     1      24.657   1.239  52.016  1.00  0.00     0.027 A 
HETATM   22  C20 UNL     1      24.215   0.140  52.651  1.00  0.00     0.100 A 
HETATM   23  N2  UNL     1      25.108  -0.787  53.034  1.00  0.00    -0.239 NA
HETATM   24  C21 UNL     1      26.432  -0.720  52.837  1.00  0.00     0.234 A 
HETATM   25  N3  UNL     1      26.893   0.352  52.213  1.00  0.00    -0.241 NA
HETATM   26  C22 UNL     1      26.023   1.306  51.814  1.00  0.00     0.073 A 
HETATM   27  C23 UNL     1      26.625   2.363  51.169  1.00  0.00     0.072 A 
HETATM   28  C24 UNL     1      25.942   3.447  50.665  1.00  0.00     0.103 A 
ENDROOT
BRANCH   1  29
HETATM   29  O1  UNL     1      22.600  -1.404  53.931  1.00  0.00    -0.357 OA
HETATM   30  C1  UNL     1      22.679  -1.244  55.351  1.00  0.00     0.209 C 
ENDBRANCH   1  29
BRANCH  28  31
HETATM   31  O3  UNL     1      26.405   4.556  50.010  1.00  0.00    -0.353 OA
HETATM   32  C25 UNL     1      27.234   4.574  48.880  1.00  0.00     0.210 C 
ENDBRANCH  28  31
TORSDOF 2
ENDMDL
MODEL 6
REMARK VINA RESULT:      -8.5      3.805      8.351
REMARK  2 active torsions:
REMARK  status: ('A' for Active; 'I' for Inactive)
REMARK    1  A    between atoms: O1_2  and  C2_3 
REMARK    2  A    between atoms: C24_30  and  O3_31 
ROOT
HETATM    1  C2  UNL     1      26.873   6.796  48.090  1.00  0.00     0.084 C 
HETATM    2  C3  UNL     1      27.103   5.605  48.551  1.00  0.00     0.081 C 
HETATM    3  C4  UNL     1      27.071   4.302  49.128  1.00  0.00    -0.011 C 
HETATM    4  C5  UNL     1      26.496   3.283  49.723  1.00  0.00     0.036 C 
HETATM    5  C6  UNL     1      25.127   3.153  50.141  1.00  0.00     0.097 C 
HETATM    6  N1  UNL     1      25.088   2.490  51.304  1.00  0.00    -0.253 NA
HETATM    7  C7  UNL     1      24.037   1.520  51.638  1.00  0.00     0.126 C 
HETATM    8  C8  UNL     1      22.777   1.753  51.317  1.00  0.00    -0.028 C 
HETATM    9  C9  UNL     1      21.856   0.688  50.803  1.00  0.00     0.009 C 
HETATM   10  C10 UNL     1      21.125   1.030  49.704  1.00  0.00     0.002 C 
HETATM   11  C11 UNL     1      21.328   2.363  49.064  1.00  0.00     0.015 C 
HETATM   12  C12 UNL     1      22.239   3.076  49.697  1.00  0.00    -0.003 C 
HETATM   13  S1  UNL     1      23.743   3.849  49.111  1.00  0.00    -0.074 SA
HETATM   14  C13 UNL     1      22.054   3.128  51.239  1.00  0.00     0.082 C 
HETATM   15  C14 UNL     1      22.839   4.154  51.887  1.00  0.00    -0.014 C 
HETATM   16  C15 UNL     1      22.590   5.452  51.810  1.00  0.00    -0.003 C 
HETATM   17  C16 UNL     1      21.545   6.336  51.127  1.00  0.00     0.203 C 
HETATM   18  O2  UNL     1      22.041   7.192  50.276  1.00  0.00    -0.345 OA
HETATM   19  C17 UNL     1      22.544   8.047  49.463  1.00  0.00     0.103 A 
HETATM   20  C18 UNL     1      23.827   7.621  49.102  1.00  0.00     0.056 A 
HETATM   21  C19 UNL     1      24.717   8.215  48.263  1.00  0.00     0.027 A 
HETATM   22  C20 UNL     1      25.951   7.879  47.851  1.00  0.00     0.100 A 
HETATM   23  N2  UNL     1      26.586   8.687  46.988  1.00  0.00    -0.239 NA
HETATM   24  C21 UNL     1      26.094   9.826  46.482  1.00  0.00     0.234 A 
HETATM   25  N3  UNL     1      24.880  10.181  46.871  1.00  0.00    -0.241 NA
HETATM   26  C22 UNL     1      24.211   9.391  47.741  1.00  0.00     0.073 A 
HETATM   27  C23 UNL     1      22.956   9.863  48.057  1.00  0.00     0.072 A 
HETATM   28  C24 UNL     1      22.088   9.225  48.914  1.00  0.00     0.103 A 
ENDROOT
BRANCH   1  29
HETATM   29  O1  UNL     1      28.214   6.650  47.811  1.00  0.00    -0.357 OA
HETATM   30  C1  UNL     1      29.211   7.343  48.568  1.00  0.00     0.209 C 
ENDBRANCH   1  29
BRANCH  28  31
HETATM   31  O3  UNL     1      20.827   9.574  49.316  1.00  0.00    -0.353 OA
HETATM   32  C25 UNL     1      20.266  10.858  49.284  1.00  0.00     0.210 C 
ENDBRANCH  28  31
TORSDOF 2
ENDMDL
MODEL 7
REMARK VINA RESULT:      -8.3      7.072     11.151
REMARK  2 active torsions:
REMARK  status: ('A' for Active; 'I' for Inactive)
REMARK    1  A    between atoms: O1_2  and  C2_3 
REMARK    2  A    between atoms: C24_30  and  O3_31 
ROOT
HETATM    1  C2  UNL     1      31.505   7.603  47.765  1.00  0.00     0.084 C 
HETATM    2  C3  UNL     1      30.856   6.485  47.863  1.00  0.00     0.081 C 
HETATM    3  C4  UNL     1      29.908   5.429  48.011  1.00  0.00    -0.011 C 
HETATM    4  C5  UNL     1      28.711   4.931  48.211  1.00  0.00     0.036 C 
HETATM    5  C6  UNL     1      27.479   5.637  48.437  1.00  0.00     0.097 C 
HETATM    6  N1  UNL     1      26.749   4.962  49.334  1.00  0.00    -0.253 NA
HETATM    7  C7  UNL     1      25.287   4.851  49.256  1.00  0.00     0.126 C 
HETATM    8  C8  UNL     1      24.549   5.887  48.903  1.00  0.00    -0.028 C 
HETATM    9  C9  UNL     1      23.355   5.772  48.004  1.00  0.00     0.009 C 
HETATM   10  C10 UNL     1      23.292   6.688  46.997  1.00  0.00     0.002 C 
HETATM   11  C11 UNL     1      24.404   7.667  46.815  1.00  0.00     0.015 C 
HETATM   12  C12 UNL     1      25.350   7.506  47.719  1.00  0.00    -0.003 C 
HETATM   13  S1  UNL     1      27.109   7.224  47.541  1.00  0.00    -0.074 SA
HETATM   14  C13 UNL     1      24.831   7.393  49.178  1.00  0.00     0.082 C 
HETATM   15  C14 UNL     1      25.862   7.544  50.178  1.00  0.00    -0.014 C 
HETATM   16  C15 UNL     1      26.459   8.687  50.477  1.00  0.00    -0.003 C 
HETATM   17  C16 UNL     1      26.365  10.138  49.998  1.00  0.00     0.203 C 
HETATM   18  O2  UNL     1      27.475  10.610  49.499  1.00  0.00    -0.345 OA
HETATM   19  C17 UNL     1      28.579  11.070  49.036  1.00  0.00     0.103 A 
HETATM   20  C18 UNL     1      29.402   9.993  48.687  1.00  0.00     0.056 A 
HETATM   21  C19 UNL     1      30.653  10.015  48.156  1.00  0.00     0.027 A 
HETATM   22  C20 UNL     1      31.505   9.046  47.781  1.00  0.00     0.100 A 
HETATM   23  N2  UNL     1      32.696   9.395  47.269  1.00  0.00    -0.239 NA
HETATM   24  C21 UNL     1      33.127  10.651  47.089  1.00  0.00     0.234 A 
HETATM   25  N3  UNL     1      32.307  11.625  47.450  1.00  0.00    -0.241 NA
HETATM   26  C22 UNL     1      31.100  11.310  47.970  1.00  0.00     0.073 A 
HETATM   27  C23 UNL     1      30.338  12.411  48.295  1.00  0.00     0.072 A 
HETATM   28  C24 UNL     1      29.072  12.339  48.830  1.00  0.00     0.103 A 
ENDROOT
BRANCH   1  29
HETATM   29  O1  UNL     1      32.516   6.685  47.585  1.00  0.00    -0.357 OA
HETATM   30  C1  UNL     1      33.421   6.356  48.643  1.00  0.00     0.209 C 
ENDBRANCH   1  29
BRANCH  28  31
HETATM   31  O3  UNL     1      28.210  13.336  49.198  1.00  0.00    -0.353 OA
HETATM   32  C25 UNL     1      27.237  13.939  48.389  1.00  0.00     0.210 C 
ENDBRANCH  28  31
TORSDOF 2
ENDMDL
MODEL 8
REMARK VINA RESULT:      -8.1      3.035      5.805
REMARK  2 active torsions:
REMARK  status: ('A' for Active; 'I' for Inactive)
REMARK    1  A    between atoms: O1_2  and  C2_3 
REMARK    2  A    between atoms: C24_30  and  O3_31 
ROOT
HETATM    1  C2  UNL     1      18.979   2.794  48.823  1.00  0.00     0.084 C 
HETATM    2  C3  UNL     1      19.587   3.750  48.190  1.00  0.00     0.081 C 
HETATM    3  C4  UNL     1      20.474   4.744  47.682  1.00  0.00    -0.011 C 
HETATM    4  C5  UNL     1      21.596   5.424  47.646  1.00  0.00     0.036 C 
HETATM    5  C6  UNL     1      22.750   5.284  48.491  1.00  0.00     0.097 C 
HETATM    6  N1  UNL     1      23.261   6.498  48.735  1.00  0.00    -0.253 NA
HETATM    7  C7  UNL     1      24.704   6.756  48.825  1.00  0.00     0.126 C 
HETATM    8  C8  UNL     1      25.505   5.903  49.435  1.00  0.00    -0.028 C 
HETATM    9  C9  UNL     1      26.868   5.551  48.919  1.00  0.00     0.009 C 
HETATM   10  C10 UNL     1      27.156   4.218  48.893  1.00  0.00     0.002 C 
HETATM   11  C11 UNL     1      26.115   3.227  49.298  1.00  0.00     0.015 C 
HETATM   12  C12 UNL     1      24.992   3.816  49.657  1.00  0.00    -0.003 C 
HETATM   13  S1  UNL     1      23.315   3.608  49.067  1.00  0.00    -0.074 SA
HETATM   14  C13 UNL     1      25.176   4.994  50.654  1.00  0.00     0.082 C 
HETATM   15  C14 UNL     1      23.949   5.418  51.289  1.00  0.00    -0.014 C 
HETATM   16  C15 UNL     1      23.306   4.728  52.218  1.00  0.00    -0.003 C 
HETATM   17  C16 UNL     1      23.509   3.394  52.940  1.00  0.00     0.203 C 
HETATM   18  O2  UNL     1      22.539   2.538  52.766  1.00  0.00    -0.345 OA
HETATM   19  C17 UNL     1      21.566   1.717  52.610  1.00  0.00     0.103 A 
HETATM   20  C18 UNL     1      20.837   2.097  51.477  1.00  0.00     0.056 A 
HETATM   21  C19 UNL     1      19.734   1.512  50.940  1.00  0.00     0.027 A 
HETATM   22  C20 UNL     1      18.982   1.794  49.862  1.00  0.00     0.100 A 
HETATM   23  N2  UNL     1      17.935   1.002  49.580  1.00  0.00    -0.239 NA
HETATM   24  C21 UNL     1      17.560  -0.073  50.287  1.00  0.00     0.234 A 
HETATM   25  N3  UNL     1      18.283  -0.373  51.353  1.00  0.00    -0.241 NA
HETATM   26  C22 UNL     1      19.344   0.403  51.668  1.00  0.00     0.073 A 
HETATM   27  C23 UNL     1      20.020  -0.020  52.791  1.00  0.00     0.072 A 
HETATM   28  C24 UNL     1      21.136   0.605  53.299  1.00  0.00     0.103 A 
ENDROOT
BRANCH   1  29
HETATM   29  O1  UNL     1      18.030   3.150  47.890  1.00  0.00    -0.357 OA
HETATM   30  C1  UNL     1      16.972   4.058  48.213  1.00  0.00     0.209 C 
ENDBRANCH   1  29
BRANCH  28  31
HETATM   31  O3  UNL     1      21.899   0.300  54.393  1.00  0.00    -0.353 OA
HETATM   32  C25 UNL     1      22.211  -0.984  54.861  1.00  0.00     0.210 C 
ENDBRANCH  28  31
TORSDOF 2
ENDMDL
MODEL 9
REMARK VINA RESULT:      -7.9      4.355      8.065
REMARK  2 active torsions:
REMARK  status: ('A' for Active; 'I' for Inactive)
REMARK    1  A    between atoms: O1_2  and  C2_3 
REMARK    2  A    between atoms: C24_30  and  O3_31 
ROOT
HETATM    1  C2  UNL     1      26.196   3.903  49.524  1.00  0.00     0.084 C 
HETATM    2  C3  UNL     1      25.118   3.279  49.887  1.00  0.00     0.081 C 
HETATM    3  C4  UNL     1      23.797   2.835  50.189  1.00  0.00    -0.011 C 
HETATM    4  C5  UNL     1      22.491   2.953  50.246  1.00  0.00     0.036 C 
HETATM    5  C6  UNL     1      21.679   4.063  49.833  1.00  0.00     0.097 C 
HETATM    6  N1  UNL     1      20.665   4.206  50.697  1.00  0.00    -0.253 NA
HETATM    7  C7  UNL     1      19.310   4.597  50.284  1.00  0.00     0.126 C 
HETATM    8  C8  UNL     1      19.126   5.523  49.362  1.00  0.00    -0.028 C 
HETATM    9  C9  UNL     1      18.070   5.423  48.304  1.00  0.00     0.009 C 
HETATM   10  C10 UNL     1      18.485   5.703  47.036  1.00  0.00     0.002 C 
HETATM   11  C11 UNL     1      19.923   6.011  46.778  1.00  0.00     0.015 C 
HETATM   12  C12 UNL     1      20.636   5.978  47.886  1.00  0.00    -0.003 C 
HETATM   13  S1  UNL     1      22.104   5.045  48.311  1.00  0.00    -0.074 SA
HETATM   14  C13 UNL     1      20.016   6.766  49.072  1.00  0.00     0.082 C 
HETATM   15  C14 UNL     1      20.936   7.000  50.162  1.00  0.00    -0.014 C 
HETATM   16  C15 UNL     1      21.948   7.851  50.122  1.00  0.00    -0.003 C 
HETATM   17  C16 UNL     1      22.531   8.824  49.094  1.00  0.00     0.203 C 
HETATM   18  O2  UNL     1      23.769   8.574  48.762  1.00  0.00    -0.345 OA
HETATM   19  C17 UNL     1      24.993   8.333  48.465  1.00  0.00     0.103 A 
HETATM   20  C18 UNL     1      25.286   7.009  48.811  1.00  0.00     0.056 A 
HETATM   21  C19 UNL     1      26.456   6.332  48.670  1.00  0.00     0.027 A 
HETATM   22  C20 UNL     1      26.824   5.071  48.958  1.00  0.00     0.100 A 
HETATM   23  N2  UNL     1      28.081   4.687  48.685  1.00  0.00    -0.239 NA
HETATM   24  C21 UNL     1      29.029   5.460  48.136  1.00  0.00     0.234 A 
HETATM   25  N3  UNL     1      28.693   6.705  47.843  1.00  0.00    -0.241 NA
HETATM   26  C22 UNL     1      27.435   7.127  48.105  1.00  0.00     0.073 A 
HETATM   27  C23 UNL     1      27.209   8.437  47.744  1.00  0.00     0.072 A 
HETATM   28  C24 UNL     1      26.004   9.082  47.905  1.00  0.00     0.103 A 
ENDROOT
BRANCH   1  29
HETATM   29  O1  UNL     1      26.714   2.721  50.004  1.00  0.00    -0.357 OA
HETATM   30  C1  UNL     1      26.883   2.496  51.407  1.00  0.00     0.209 C 
ENDBRANCH   1  29
BRANCH  28  31
HETATM   31  O3  UNL     1      25.640  10.364  47.596  1.00  0.00    -0.353 OA
HETATM   32  C25 UNL     1      26.155  11.538  48.163  1.00  0.00     0.210 C 
ENDBRANCH  28  31
TORSDOF 2
ENDMDL
