MODEL 1
REMARK VINA RESULT:      -7.9      0.000      0.000
REMARK  2 active torsions:
REMARK  status: ('A' for Active; 'I' for Inactive)
REMARK    1  A    between atoms: N1_2  and  C2_3 
REMARK    2  A    between atoms: C10_14  and  N4_15 
ROOT
HETATM    1  C2  UNL     1      22.727   1.982  51.084  1.00  0.00     0.166 C 
HETATM    2  C3  UNL     1      21.344   1.549  50.772  1.00  0.00     0.029 C 
HETATM    3  C4  UNL     1      20.277   1.048  50.186  1.00  0.00     0.141 C 
HETATM    4  O1  UNL     1      18.920   0.947  50.555  1.00  0.00    -0.317 OA
HETATM    5  C5  UNL     1      18.587  -0.118  51.432  1.00  0.00     0.253 C 
HETATM    6  N2  UNL     1      18.897  -0.630  52.603  1.00  0.00    -0.259 NA
HETATM    7  C6  UNL     1      19.937   0.012  53.413  1.00  0.00     0.272 C 
HETATM    8  N3  UNL     1      21.223  -0.245  52.763  1.00  0.00    -0.371 N 
HETATM    9  C7  UNL     1      22.594   0.120  52.874  1.00  0.00     0.038 A 
HETATM   10  C8  UNL     1      23.337  -0.572  53.807  1.00  0.00     0.032 A 
HETATM   11  C9  UNL     1      24.690  -0.419  54.141  1.00  0.00     0.031 A 
HETATM   12  C10 UNL     1      25.285   0.571  53.396  1.00  0.00     0.030 A 
HETATM   13  C15 UNL     1      24.626   1.311  52.445  1.00  0.00     0.041 A 
HETATM   14  C16 UNL     1      23.301   1.104  52.171  1.00  0.00    -0.001 A 
HETATM   15  H9  UNL     1      21.529  -0.844  51.974  1.00  0.00     0.161 HD
ENDROOT
BRANCH  12  16
HETATM   16  N4  UNL     1      26.667   0.818  53.652  1.00  0.00    -0.378 N 
HETATM   17  C11 UNL     1      27.164   2.186  53.438  1.00  0.00     0.153 C 
HETATM   18  C12 UNL     1      28.646   2.286  53.589  1.00  0.00     0.289 C 
HETATM   19  N5  UNL     1      29.012   1.555  54.800  1.00  0.00     0.086 N 
HETATM   20  C13 UNL     1      28.869   0.158  54.546  1.00  0.00     0.289 C 
HETATM   21  H16 UNL     1      28.443   1.931  55.571  1.00  0.00     0.316 HD
HETATM   22  C14 UNL     1      27.515  -0.287  54.111  1.00  0.00     0.153 C 
ENDBRANCH  12  16
BRANCH   1  23
HETATM   23  N1  UNL     1      22.881   3.365  51.344  1.00  0.00    -0.298 NA
HETATM   24  C1  UNL     1      22.001   3.979  52.006  1.00  0.00     0.143 C 
ENDBRANCH   1  23
TORSDOF 2
ENDMDL
MODEL 2
REMARK VINA RESULT:      -7.8      2.808      6.897
REMARK  2 active torsions:
REMARK  status: ('A' for Active; 'I' for Inactive)
REMARK    1  A    between atoms: N1_2  and  C2_3 
REMARK    2  A    between atoms: C10_14  and  N4_15 
ROOT
HETATM    1  C2  UNL     1      25.531   2.510  52.000  1.00  0.00     0.166 C 
HETATM    2  C3  UNL     1      26.881   2.166  52.510  1.00  0.00     0.029 C 
HETATM    3  C4  UNL     1      28.011   2.147  53.182  1.00  0.00     0.141 C 
HETATM    4  O1  UNL     1      29.158   1.327  53.138  1.00  0.00    -0.317 OA
HETATM    5  C5  UNL     1      29.064   0.084  53.817  1.00  0.00     0.253 C 
HETATM    6  N2  UNL     1      28.338  -1.010  53.878  1.00  0.00    -0.259 NA
HETATM    7  C6  UNL     1      27.177  -1.150  52.994  1.00  0.00     0.272 C 
HETATM    8  N3  UNL     1      26.146  -0.228  53.473  1.00  0.00    -0.371 N 
HETATM    9  C7  UNL     1      24.864   0.265  53.099  1.00  0.00     0.038 A 
HETATM   10  C8  UNL     1      23.786  -0.533  53.415  1.00  0.00     0.032 A 
HETATM   11  C9  UNL     1      22.425  -0.314  53.159  1.00  0.00     0.031 A 
HETATM   12  C10 UNL     1      22.220   0.877  52.503  1.00  0.00     0.030 A 
HETATM   13  C15 UNL     1      23.232   1.737  52.150  1.00  0.00     0.041 A 
HETATM   14  C16 UNL     1      24.540   1.456  52.434  1.00  0.00    -0.001 A 
HETATM   15  H9  UNL     1      26.041   0.367  54.316  1.00  0.00     0.161 HD
ENDROOT
BRANCH  12  16
HETATM   16  N4  UNL     1      20.868   1.207  52.188  1.00  0.00    -0.378 N 
HETATM   17  C11 UNL     1      20.549   2.626  51.968  1.00  0.00     0.153 C 
HETATM   18  C12 UNL     1      19.085   2.862  51.799  1.00  0.00     0.289 C 
HETATM   19  N5  UNL     1      18.582   1.848  50.877  1.00  0.00     0.086 N 
HETATM   20  C13 UNL     1      18.567   0.590  51.551  1.00  0.00     0.289 C 
HETATM   21  H16 UNL     1      19.158   1.892  50.025  1.00  0.00     0.316 HD
HETATM   22  C14 UNL     1      19.876   0.132  52.099  1.00  0.00     0.153 C 
ENDBRANCH  12  16
BRANCH   1  23
HETATM   23  N1  UNL     1      25.466   2.801  50.616  1.00  0.00    -0.298 NA
HETATM   24  C1  UNL     1      26.455   3.332  50.041  1.00  0.00     0.143 C 
ENDBRANCH   1  23
TORSDOF 2
ENDMDL
MODEL 3
REMARK VINA RESULT:      -7.7      3.297      7.215
REMARK  2 active torsions:
REMARK  status: ('A' for Active; 'I' for Inactive)
REMARK    1  A    between atoms: N1_2  and  C2_3 
REMARK    2  A    between atoms: C10_14  and  N4_15 
ROOT
HETATM    1  C2  UNL     1      24.453   0.797  52.554  1.00  0.00     0.166 C 
HETATM    2  C3  UNL     1      25.561   0.211  53.346  1.00  0.00     0.029 C 
HETATM    3  C4  UNL     1      26.468  -0.604  53.842  1.00  0.00     0.141 C 
HETATM    4  O1  UNL     1      27.454  -0.471  54.841  1.00  0.00    -0.317 OA
HETATM    5  C5  UNL     1      28.658   0.171  54.450  1.00  0.00     0.253 C 
HETATM    6  N2  UNL     1      29.112   1.283  53.917  1.00  0.00    -0.259 NA
HETATM    7  C6  UNL     1      28.164   2.334  53.535  1.00  0.00     0.272 C 
HETATM    8  N3  UNL     1      27.432   1.861  52.359  1.00  0.00    -0.371 N 
HETATM    9  C7  UNL     1      26.339   2.239  51.528  1.00  0.00     0.038 A 
HETATM   10  C8  UNL     1      26.614   3.160  50.540  1.00  0.00     0.032 A 
HETATM   11  C9  UNL     1      25.742   3.721  49.595  1.00  0.00     0.031 A 
HETATM   12  C10 UNL     1      24.463   3.238  49.739  1.00  0.00     0.030 A 
HETATM   13  C15 UNL     1      24.098   2.319  50.692  1.00  0.00     0.041 A 
HETATM   14  C16 UNL     1      25.005   1.814  51.583  1.00  0.00    -0.001 A 
HETATM   15  H9  UNL     1      27.529   1.048  51.724  1.00  0.00     0.161 HD
ENDROOT
BRANCH  12  16
HETATM   16  N4  UNL     1      23.486   3.741  48.829  1.00  0.00    -0.378 N 
HETATM   17  C11 UNL     1      23.464   5.193  48.591  1.00  0.00     0.153 C 
HETATM   18  C12 UNL     1      22.308   5.615  47.746  1.00  0.00     0.289 C 
HETATM   19  N5  UNL     1      22.227   4.688  46.621  1.00  0.00     0.086 N 
HETATM   20  C13 UNL     1      21.753   3.431  47.102  1.00  0.00     0.289 C 
HETATM   21  H16 UNL     1      23.151   4.673  46.166  1.00  0.00     0.316 HD
HETATM   22  C14 UNL     1      22.565   2.802  48.183  1.00  0.00     0.153 C 
ENDBRANCH  12  16
BRANCH   1  23
HETATM   23  N1  UNL     1      23.362   1.286  53.313  1.00  0.00    -0.298 NA
HETATM   24  C1  UNL     1      22.333   0.573  53.460  1.00  0.00     0.143 C 
ENDBRANCH   1  23
TORSDOF 2
ENDMDL
MODEL 4
REMARK VINA RESULT:      -7.6      1.076      1.091
REMARK  2 active torsions:
REMARK  status: ('A' for Active; 'I' for Inactive)
REMARK    1  A    between atoms: N1_2  and  C2_3 
REMARK    2  A    between atoms: C10_14  and  N4_15 
ROOT
HETATM    1  C2  UNL     1      23.125   2.228  50.284  1.00  0.00     0.166 C 
HETATM    2  C3  UNL     1      21.751   1.914  49.823  1.00  0.00     0.029 C 
HETATM    3  C4  UNL     1      20.716   1.472  49.142  1.00  0.00     0.141 C 
HETATM    4  O1  UNL     1      19.321   1.553  49.327  1.00  0.00    -0.317 OA
HETATM    5  C5  UNL     1      18.755   0.624  50.240  1.00  0.00     0.253 C 
HETATM    6  N2  UNL     1      18.851   0.205  51.482  1.00  0.00    -0.259 NA
HETATM    7  C6  UNL     1      19.848   0.811  52.369  1.00  0.00     0.272 C 
HETATM    8  N3  UNL     1      21.167   0.355  51.927  1.00  0.00    -0.371 N 
HETATM    9  C7  UNL     1      22.546   0.582  52.194  1.00  0.00     0.038 A 
HETATM   10  C8  UNL     1      23.077  -0.086  53.276  1.00  0.00     0.032 A 
HETATM   11  C9  UNL     1      24.385  -0.044  53.780  1.00  0.00     0.031 A 
HETATM   12  C10 UNL     1      25.184   0.797  53.041  1.00  0.00     0.030 A 
HETATM   13  C15 UNL     1      24.743   1.501  51.947  1.00  0.00     0.041 A 
HETATM   14  C16 UNL     1      23.449   1.409  51.512  1.00  0.00    -0.001 A 
HETATM   15  H9  UNL     1      21.497  -0.350  51.242  1.00  0.00     0.161 HD
ENDROOT
BRANCH  12  16
HETATM   16  N4  UNL     1      26.541   0.920  53.462  1.00  0.00    -0.378 N 
HETATM   17  C11 UNL     1      27.201   2.219  53.257  1.00  0.00     0.153 C 
HETATM   18  C12 UNL     1      28.654   2.181  53.594  1.00  0.00     0.289 C 
HETATM   19  N5  UNL     1      28.789   1.486  54.871  1.00  0.00     0.086 N 
HETATM   20  C13 UNL     1      28.534   0.098  54.660  1.00  0.00     0.289 C 
HETATM   21  H16 UNL     1      28.171   1.957  55.546  1.00  0.00     0.316 HD
HETATM   22  C14 UNL     1      27.205  -0.235  54.072  1.00  0.00     0.153 C 
ENDBRANCH  12  16
BRANCH   1  23
HETATM   23  N1  UNL     1      23.408   3.606  50.442  1.00  0.00    -0.298 NA
HETATM   24  C1  UNL     1      23.729   4.298  49.438  1.00  0.00     0.143 C 
ENDBRANCH   1  23
TORSDOF 2
ENDMDL
MODEL 5
REMARK VINA RESULT:      -7.5      3.222      5.066
REMARK  2 active torsions:
REMARK  status: ('A' for Active; 'I' for Inactive)
REMARK    1  A    between atoms: N1_2  and  C2_3 
REMARK    2  A    between atoms: C10_14  and  N4_15 
ROOT
HETATM    1  C2  UNL     1      25.590   0.565  52.911  1.00  0.00     0.166 C 
HETATM    2  C3  UNL     1      24.703  -0.214  53.808  1.00  0.00     0.029 C 
HETATM    3  C4  UNL     1      24.099  -0.720  54.861  1.00  0.00     0.141 C 
HETATM    4  O1  UNL     1      23.071  -1.669  55.033  1.00  0.00    -0.317 OA
HETATM    5  C5  UNL     1      21.745  -1.194  54.857  1.00  0.00     0.253 C 
HETATM    6  N2  UNL     1      20.973  -0.581  53.988  1.00  0.00    -0.259 NA
HETATM    7  C6  UNL     1      21.529  -0.178  52.693  1.00  0.00     0.272 C 
HETATM    8  N3  UNL     1      22.444   0.939  52.935  1.00  0.00    -0.371 N 
HETATM    9  C7  UNL     1      23.389   1.746  52.241  1.00  0.00     0.038 A 
HETATM   10  C8  UNL     1      22.876   2.796  51.510  1.00  0.00     0.032 A 
HETATM   11  C9  UNL     1      23.558   3.736  50.724  1.00  0.00     0.031 A 
HETATM   12  C10 UNL     1      24.915   3.514  50.736  1.00  0.00     0.030 A 
HETATM   13  C15 UNL     1      25.515   2.495  51.435  1.00  0.00     0.041 A 
HETATM   14  C16 UNL     1      24.783   1.614  52.183  1.00  0.00    -0.001 A 
HETATM   15  H9  UNL     1      22.663   1.530  53.758  1.00  0.00     0.161 HD
ENDROOT
BRANCH  12  16
HETATM   16  N4  UNL     1      25.714   4.411  49.967  1.00  0.00    -0.378 N 
HETATM   17  C11 UNL     1      25.323   5.830  49.955  1.00  0.00     0.153 C 
HETATM   18  C12 UNL     1      26.137   6.638  49.000  1.00  0.00     0.289 C 
HETATM   19  N5  UNL     1      27.535   6.267  49.193  1.00  0.00     0.086 N 
HETATM   20  C13 UNL     1      27.734   4.957  48.661  1.00  0.00     0.289 C 
HETATM   21  H16 UNL     1      27.750   6.380  50.194  1.00  0.00     0.316 HD
HETATM   22  C14 UNL     1      26.871   3.886  49.235  1.00  0.00     0.153 C 
ENDBRANCH  12  16
BRANCH   1  23
HETATM   23  N1  UNL     1      26.406  -0.208  52.049  1.00  0.00    -0.298 NA
HETATM   24  C1  UNL     1      26.848  -1.323  52.440  1.00  0.00     0.143 C 
ENDBRANCH   1  23
TORSDOF 2
ENDMDL
MODEL 6
REMARK VINA RESULT:      -7.4      2.789      7.117
REMARK  2 active torsions:
REMARK  status: ('A' for Active; 'I' for Inactive)
REMARK    1  A    between atoms: N1_2  and  C2_3 
REMARK    2  A    between atoms: C10_14  and  N4_15 
ROOT
HETATM    1  C2  UNL     1      23.036   0.113  53.052  1.00  0.00     0.166 C 
HETATM    2  C3  UNL     1      24.259  -0.255  53.805  1.00  0.00     0.029 C 
HETATM    3  C4  UNL     1      25.305  -0.894  54.283  1.00  0.00     0.141 C 
HETATM    4  O1  UNL     1      26.304  -0.563  55.221  1.00  0.00    -0.317 OA
HETATM    5  C5  UNL     1      27.371   0.242  54.742  1.00  0.00     0.253 C 
HETATM    6  N2  UNL     1      27.616   1.386  54.144  1.00  0.00    -0.259 NA
HETATM    7  C6  UNL     1      26.496   2.257  53.775  1.00  0.00     0.272 C 
HETATM    8  N3  UNL     1      25.794   1.622  52.658  1.00  0.00    -0.371 N 
HETATM    9  C7  UNL     1      24.618   1.785  51.873  1.00  0.00     0.038 A 
HETATM   10  C8  UNL     1      24.696   2.691  50.837  1.00  0.00     0.032 A 
HETATM   11  C9  UNL     1      23.703   3.064  49.920  1.00  0.00     0.031 A 
HETATM   12  C10 UNL     1      22.526   2.394  50.150  1.00  0.00     0.030 A 
HETATM   13  C15 UNL     1      22.356   1.474  51.156  1.00  0.00     0.041 A 
HETATM   14  C16 UNL     1      23.373   1.158  52.015  1.00  0.00    -0.001 A 
HETATM   15  H9  UNL     1      25.991   0.805  52.050  1.00  0.00     0.161 HD
ENDROOT
BRANCH  12  16
HETATM   16  N4  UNL     1      21.439   2.695  49.275  1.00  0.00    -0.378 N 
HETATM   17  C11 UNL     1      21.738   2.820  47.840  1.00  0.00     0.153 C 
HETATM   18  C12 UNL     1      20.559   3.285  47.051  1.00  0.00     0.289 C 
HETATM   19  N5  UNL     1      19.403   2.511  47.493  1.00  0.00     0.086 N 
HETATM   20  C13 UNL     1      19.034   2.954  48.798  1.00  0.00     0.289 C 
HETATM   21  H16 UNL     1      19.649   1.515  47.412  1.00  0.00     0.316 HD
HETATM   22  C14 UNL     1      20.097   2.863  49.839  1.00  0.00     0.153 C 
ENDBRANCH  12  16
BRANCH   1  23
HETATM   23  N1  UNL     1      21.918   0.459  53.850  1.00  0.00    -0.298 NA
HETATM   24  C1  UNL     1      21.405  -0.402  54.615  1.00  0.00     0.143 C 
ENDBRANCH   1  23
TORSDOF 2
ENDMDL
MODEL 7
REMARK VINA RESULT:      -7.1      3.321      7.213
REMARK  2 active torsions:
REMARK  status: ('A' for Active; 'I' for Inactive)
REMARK    1  A    between atoms: N1_2  and  C2_3 
REMARK    2  A    between atoms: C10_14  and  N4_15 
ROOT
HETATM    1  C2  UNL     1      25.112  -0.648  52.830  1.00  0.00     0.166 C 
HETATM    2  C3  UNL     1      26.436  -1.279  53.049  1.00  0.00     0.029 C 
HETATM    3  C4  UNL     1      27.507  -2.037  52.953  1.00  0.00     0.141 C 
HETATM    4  O1  UNL     1      28.709  -2.122  53.684  1.00  0.00    -0.317 OA
HETATM    5  C5  UNL     1      29.707  -1.166  53.361  1.00  0.00     0.253 C 
HETATM    6  N2  UNL     1      29.907   0.130  53.268  1.00  0.00    -0.259 NA
HETATM    7  C6  UNL     1      28.807   1.050  53.574  1.00  0.00     0.272 C 
HETATM    8  N3  UNL     1      27.830   0.944  52.489  1.00  0.00    -0.371 N 
HETATM    9  C7  UNL     1      26.528   1.404  52.144  1.00  0.00     0.038 A 
HETATM   10  C8  UNL     1      26.451   2.670  51.605  1.00  0.00     0.032 A 
HETATM   11  C9  UNL     1      25.315   3.381  51.192  1.00  0.00     0.031 A 
HETATM   12  C10 UNL     1      24.166   2.651  51.379  1.00  0.00     0.030 A 
HETATM   13  C15 UNL     1      24.146   1.382  51.907  1.00  0.00     0.041 A 
HETATM   14  C16 UNL     1      25.297   0.750  52.289  1.00  0.00    -0.001 A 
HETATM   15  H9  UNL     1      27.823   0.475  51.564  1.00  0.00     0.161 HD
ENDROOT
BRANCH  12  16
HETATM   16  N4  UNL     1      22.943   3.276  50.994  1.00  0.00    -0.378 N 
HETATM   17  C11 UNL     1      21.910   3.444  52.028  1.00  0.00     0.153 C 
HETATM   18  C12 UNL     1      20.626   3.966  51.474  1.00  0.00     0.289 C 
HETATM   19  N5  UNL     1      20.955   5.074  50.581  1.00  0.00     0.086 N 
HETATM   20  C13 UNL     1      21.552   4.542  49.399  1.00  0.00     0.289 C 
HETATM   21  H16 UNL     1      21.532   5.739  51.114  1.00  0.00     0.316 HD
HETATM   22  C14 UNL     1      22.775   3.716  49.606  1.00  0.00     0.153 C 
ENDBRANCH  12  16
BRANCH   1  23
HETATM   23  N1  UNL     1      24.226  -0.707  53.933  1.00  0.00    -0.298 NA
HETATM   24  C1  UNL     1      24.674  -0.973  55.082  1.00  0.00     0.143 C 
ENDBRANCH   1  23
TORSDOF 2
ENDMDL
MODEL 8
REMARK VINA RESULT:      -7.0      2.606      7.474
REMARK  2 active torsions:
REMARK  status: ('A' for Active; 'I' for Inactive)
REMARK    1  A    between atoms: N1_2  and  C2_3 
REMARK    2  A    between atoms: C10_14  and  N4_15 
ROOT
HETATM    1  C2  UNL     1      23.198  -0.511  53.190  1.00  0.00     0.166 C 
HETATM    2  C3  UNL     1      24.673  -0.457  53.331  1.00  0.00     0.029 C 
HETATM    3  C4  UNL     1      25.957  -0.742  53.303  1.00  0.00     0.141 C 
HETATM    4  O1  UNL     1      27.118  -0.050  53.704  1.00  0.00    -0.317 OA
HETATM    5  C5  UNL     1      27.607   0.929  52.800  1.00  0.00     0.253 C 
HETATM    6  N2  UNL     1      27.241   2.010  52.148  1.00  0.00    -0.259 NA
HETATM    7  C6  UNL     1      25.873   2.513  52.304  1.00  0.00     0.272 C 
HETATM    8  N3  UNL     1      24.980   1.581  51.614  1.00  0.00    -0.371 N 
HETATM    9  C7  UNL     1      23.590   1.338  51.425  1.00  0.00     0.038 A 
HETATM   10  C8  UNL     1      22.964   2.091  50.455  1.00  0.00     0.032 A 
HETATM   11  C9  UNL     1      21.617   2.079  50.066  1.00  0.00     0.031 A 
HETATM   12  C10 UNL     1      20.890   1.168  50.795  1.00  0.00     0.030 A 
HETATM   13  C15 UNL     1      21.428   0.374  51.778  1.00  0.00     0.041 A 
HETATM   14  C16 UNL     1      22.755   0.441  52.104  1.00  0.00    -0.001 A 
HETATM   15  H9  UNL     1      25.126   0.769  50.986  1.00  0.00     0.161 HD
ENDROOT
BRANCH  12  16
HETATM   16  N4  UNL     1      19.501   1.068  50.485  1.00  0.00    -0.378 N 
HETATM   17  C11 UNL     1      18.963   1.986  49.469  1.00  0.00     0.153 C 
HETATM   18  C12 UNL     1      17.479   1.892  49.343  1.00  0.00     0.289 C 
HETATM   19  N5  UNL     1      17.132   0.475  49.305  1.00  0.00     0.086 N 
HETATM   20  C13 UNL     1      17.318  -0.072  50.610  1.00  0.00     0.289 C 
HETATM   21  H16 UNL     1      17.687   0.041  48.554  1.00  0.00     0.316 HD
HETATM   22  C14 UNL     1      18.686   0.069  51.184  1.00  0.00     0.153 C 
ENDBRANCH  12  16
BRANCH   1  23
HETATM   23  N1  UNL     1      22.471  -0.359  54.396  1.00  0.00    -0.298 NA
HETATM   24  C1  UNL     1      22.035  -1.378  54.997  1.00  0.00     0.143 C 
ENDBRANCH   1  23
TORSDOF 2
ENDMDL
MODEL 9
REMARK VINA RESULT:      -7.0      2.805      7.304
REMARK  2 active torsions:
REMARK  status: ('A' for Active; 'I' for Inactive)
REMARK    1  A    between atoms: N1_2  and  C2_3 
REMARK    2  A    between atoms: C10_14  and  N4_15 
ROOT
HETATM    1  C2  UNL     1      24.907  -0.707  53.503  1.00  0.00     0.166 C 
HETATM    2  C3  UNL     1      26.389  -0.730  53.535  1.00  0.00     0.029 C 
HETATM    3  C4  UNL     1      27.655  -0.989  53.287  1.00  0.00     0.141 C 
HETATM    4  O1  UNL     1      28.869  -0.540  53.847  1.00  0.00    -0.317 OA
HETATM    5  C5  UNL     1      29.336   0.724  53.398  1.00  0.00     0.253 C 
HETATM    6  N2  UNL     1      28.972   1.982  53.290  1.00  0.00    -0.259 NA
HETATM    7  C6  UNL     1      27.640   2.386  53.750  1.00  0.00     0.272 C 
HETATM    8  N3  UNL     1      26.663   1.838  52.808  1.00  0.00    -0.371 N 
HETATM    9  C7  UNL     1      25.255   1.709  52.647  1.00  0.00     0.038 A 
HETATM   10  C8  UNL     1      24.595   2.806  52.134  1.00  0.00     0.032 A 
HETATM   11  C9  UNL     1      23.225   2.970  51.885  1.00  0.00     0.031 A 
HETATM   12  C10 UNL     1      22.512   1.844  52.222  1.00  0.00     0.030 A 
HETATM   13  C15 UNL     1      23.083   0.706  52.737  1.00  0.00     0.041 A 
HETATM   14  C16 UNL     1      24.431   0.617  52.953  1.00  0.00    -0.001 A 
HETATM   15  H9  UNL     1      26.731   1.363  51.889  1.00  0.00     0.161 HD
ENDROOT
BRANCH  12  16
HETATM   16  N4  UNL     1      21.102   1.896  52.011  1.00  0.00    -0.378 N 
HETATM   17  C11 UNL     1      20.496   3.219  51.795  1.00  0.00     0.153 C 
HETATM   18  C12 UNL     1      19.005   3.162  51.741  1.00  0.00     0.289 C 
HETATM   19  N5  UNL     1      18.642   2.042  50.879  1.00  0.00     0.086 N 
HETATM   20  C13 UNL     1      18.924   0.826  51.572  1.00  0.00     0.289 C 
HETATM   21  H16 UNL     1      19.132   2.170  49.982  1.00  0.00     0.316 HD
HETATM   22  C14 UNL     1      20.334   0.648  52.019  1.00  0.00     0.153 C 
ENDBRANCH  12  16
BRANCH   1  23
HETATM   23  N1  UNL     1      24.272  -1.068  54.716  1.00  0.00    -0.298 NA
HETATM   24  C1  UNL     1      24.933  -1.072  55.791  1.00  0.00     0.143 C 
ENDBRANCH   1  23
TORSDOF 2
ENDMDL
