MODEL 1
REMARK VINA RESULT:      -8.4      0.000      0.000
REMARK  4 active torsions:
REMARK  status: ('A' for Active; 'I' for Inactive)
REMARK    1  A    between atoms: C5_6  and  C6_7 
REMARK    2  A    between atoms: C6_7  and  O1_8 
REMARK    3  A    between atoms: O1_8  and  C7_9 
REMARK    4  A    between atoms: C10_12  and  C11_13 
ROOT
HETATM    1  C7  UNL     1      22.703   0.697  52.943  1.00  0.00     0.090 A 
HETATM    2  C8  UNL     1      23.735   1.230  52.196  1.00  0.00     0.039 A 
HETATM    3  C9  UNL     1      25.018   0.787  52.409  1.00  0.00     0.016 A 
HETATM    4  C10 UNL     1      25.335  -0.180  53.348  1.00  0.00    -0.008 A 
HETATM    5  C15 UNL     1      24.257  -0.668  54.057  1.00  0.00     0.040 A 
HETATM    6  C16 UNL     1      22.943  -0.282  53.908  1.00  0.00     0.068 A 
HETATM    7 CL1  UNL     1      21.682  -1.001  54.893  1.00  0.00    -0.081 Cl
ENDROOT
BRANCH   1   8
HETATM    8  O1  UNL     1      21.367   1.084  52.798  1.00  0.00    -0.345 OA
BRANCH   8   9
HETATM    9  C6  UNL     1      20.758   1.190  51.507  1.00  0.00     0.214 C 
BRANCH   9  10
HETATM   10  C5  UNL     1      19.442   0.479  51.578  1.00  0.00    -0.031 A 
HETATM   11  C4  UNL     1      18.511   0.569  50.566  1.00  0.00     0.009 A 
HETATM   12  C3  UNL     1      17.290  -0.082  50.617  1.00  0.00     0.004 A 
HETATM   13  C2  UNL     1      17.037  -0.844  51.754  1.00  0.00     0.042 A 
HETATM   14  C1  UNL     1      17.931  -0.974  52.805  1.00  0.00     0.117 A 
HETATM   15  F1  UNL     1      17.614  -1.737  53.886  1.00  0.00    -0.206 F 
HETATM   16  C17 UNL     1      19.128  -0.286  52.666  1.00  0.00     0.051 A 
ENDBRANCH   9  10
ENDBRANCH   8   9
ENDBRANCH   1   8
BRANCH   4  17
HETATM   17  C11 UNL     1      26.689  -0.667  53.593  1.00  0.00     0.065 C 
HETATM   18  N1  UNL     1      26.979  -1.752  53.000  1.00  0.00    -0.270 NA
HETATM   19  C12 UNL     1      28.184  -2.507  53.009  1.00  0.00     0.299 C 
HETATM   20  N2  UNL     1      29.393  -1.781  53.203  1.00  0.00    -0.257 NA
HETATM   21  C13 UNL     1      29.745  -0.755  53.881  1.00  0.00     0.247 C 
HETATM   22  O2  UNL     1      28.789  -0.111  54.654  1.00  0.00    -0.339 OA
HETATM   23  C14 UNL     1      27.445   0.211  54.486  1.00  0.00     0.236 C 
ENDBRANCH   4  17
TORSDOF 4
ENDMDL
MODEL 2
REMARK VINA RESULT:      -8.3      1.297      1.610
REMARK  4 active torsions:
REMARK  status: ('A' for Active; 'I' for Inactive)
REMARK    1  A    between atoms: C5_6  and  C6_7 
REMARK    2  A    between atoms: C6_7  and  O1_8 
REMARK    3  A    between atoms: O1_8  and  C7_9 
REMARK    4  A    between atoms: C10_12  and  C11_13 
ROOT
HETATM    1  C7  UNL     1      22.318   0.598  53.153  1.00  0.00     0.090 A 
HETATM    2  C8  UNL     1      23.060   1.542  52.473  1.00  0.00     0.039 A 
HETATM    3  C9  UNL     1      24.432   1.461  52.490  1.00  0.00     0.016 A 
HETATM    4  C10 UNL     1      25.117   0.465  53.165  1.00  0.00    -0.008 A 
HETATM    5  C15 UNL     1      24.314  -0.444  53.822  1.00  0.00     0.040 A 
HETATM    6  C16 UNL     1      22.937  -0.436  53.856  1.00  0.00     0.068 A 
HETATM    7 CL1  UNL     1      22.057  -1.669  54.742  1.00  0.00    -0.081 Cl
ENDROOT
BRANCH   1   8
HETATM    8  O1  UNL     1      20.919   0.598  53.192  1.00  0.00    -0.345 OA
BRANCH   8   9
HETATM    9  C6  UNL     1      20.141   0.651  51.993  1.00  0.00     0.214 C 
BRANCH   9  10
HETATM   10  C5  UNL     1      18.915  -0.178  52.224  1.00  0.00    -0.031 A 
HETATM   11  C4  UNL     1      17.755   0.023  51.509  1.00  0.00     0.009 A 
HETATM   12  C3  UNL     1      16.613  -0.735  51.711  1.00  0.00     0.004 A 
HETATM   13  C2  UNL     1      16.688  -1.725  52.686  1.00  0.00     0.042 A 
HETATM   14  C1  UNL     1      17.824  -1.977  53.439  1.00  0.00     0.117 A 
HETATM   15  F1  UNL     1      17.823  -2.964  54.376  1.00  0.00    -0.206 F 
HETATM   16  C17 UNL     1      18.918  -1.168  53.167  1.00  0.00     0.051 A 
ENDBRANCH   9  10
ENDBRANCH   8   9
ENDBRANCH   1   8
BRANCH   4  17
HETATM   17  C11 UNL     1      26.574   0.356  53.200  1.00  0.00     0.065 C 
HETATM   18  N1  UNL     1      27.184   1.451  53.399  1.00  0.00    -0.270 NA
HETATM   19  C12 UNL     1      28.578   1.719  53.492  1.00  0.00     0.299 C 
HETATM   20  N2  UNL     1      29.401   0.667  53.982  1.00  0.00    -0.257 NA
HETATM   21  C13 UNL     1      29.406  -0.609  53.892  1.00  0.00     0.247 C 
HETATM   22  O2  UNL     1      28.402  -1.225  53.156  1.00  0.00    -0.339 OA
HETATM   23  C14 UNL     1      27.035  -1.017  52.995  1.00  0.00     0.236 C 
ENDBRANCH   4  17
TORSDOF 4
ENDMDL
MODEL 3
REMARK VINA RESULT:      -8.3      4.194      8.800
REMARK  4 active torsions:
REMARK  status: ('A' for Active; 'I' for Inactive)
REMARK    1  A    between atoms: C5_6  and  C6_7 
REMARK    2  A    between atoms: C6_7  and  O1_8 
REMARK    3  A    between atoms: O1_8  and  C7_9 
REMARK    4  A    between atoms: C10_12  and  C11_13 
ROOT
HETATM    1  C7  UNL     1      23.589  -0.179  53.626  1.00  0.00     0.090 A 
HETATM    2  C8  UNL     1      22.736  -0.934  54.405  1.00  0.00     0.039 A 
HETATM    3  C9  UNL     1      21.397  -0.974  54.095  1.00  0.00     0.016 A 
HETATM    4  C10 UNL     1      20.853  -0.286  53.024  1.00  0.00    -0.008 A 
HETATM    5  C15 UNL     1      21.762   0.448  52.289  1.00  0.00     0.040 A 
HETATM    6  C16 UNL     1      23.115   0.542  52.530  1.00  0.00     0.068 A 
HETATM    7 CL1  UNL     1      24.140   1.522  51.497  1.00  0.00    -0.081 Cl
ENDROOT
BRANCH   1   8
HETATM    8  O1  UNL     1      24.964  -0.077  53.863  1.00  0.00    -0.345 OA
BRANCH   8   9
HETATM    9  C6  UNL     1      25.882  -1.047  53.350  1.00  0.00     0.214 C 
BRANCH   9  10
HETATM   10  C5  UNL     1      27.253  -0.452  53.443  1.00  0.00    -0.031 A 
HETATM   11  C4  UNL     1      28.389  -1.227  53.365  1.00  0.00     0.009 A 
HETATM   12  C3  UNL     1      29.664  -0.691  53.449  1.00  0.00     0.004 A 
HETATM   13  C2  UNL     1      29.750   0.687  53.620  1.00  0.00     0.042 A 
HETATM   14  C1  UNL     1      28.646   1.521  53.706  1.00  0.00     0.117 A 
HETATM   15  F1  UNL     1      28.808   2.861  53.874  1.00  0.00    -0.206 F 
HETATM   16  C17 UNL     1      27.411   0.895  53.611  1.00  0.00     0.051 A 
ENDBRANCH   9  10
ENDBRANCH   8   9
ENDBRANCH   1   8
BRANCH   4  17
HETATM   17  C11 UNL     1      19.436  -0.311  52.672  1.00  0.00     0.065 C 
HETATM   18  N1  UNL     1      18.735  -1.126  53.348  1.00  0.00    -0.270 NA
HETATM   19  C12 UNL     1      17.344  -1.414  53.280  1.00  0.00     0.299 C 
HETATM   20  N2  UNL     1      16.492  -0.356  52.854  1.00  0.00    -0.257 NA
HETATM   21  C13 UNL     1      16.580   0.612  52.024  1.00  0.00     0.247 C 
HETATM   22  O2  UNL     1      17.757   0.762  51.304  1.00  0.00    -0.339 OA
HETATM   23  C14 UNL     1      19.111   0.626  51.597  1.00  0.00     0.236 C 
ENDBRANCH   4  17
TORSDOF 4
ENDMDL
MODEL 4
REMARK VINA RESULT:      -8.3      4.110      8.717
REMARK  4 active torsions:
REMARK  status: ('A' for Active; 'I' for Inactive)
REMARK    1  A    between atoms: C5_6  and  C6_7 
REMARK    2  A    between atoms: C6_7  and  O1_8 
REMARK    3  A    between atoms: O1_8  and  C7_9 
REMARK    4  A    between atoms: C10_12  and  C11_13 
ROOT
HETATM    1  C7  UNL     1      23.462   0.075  53.210  1.00  0.00     0.090 A 
HETATM    2  C8  UNL     1      22.926   0.686  52.094  1.00  0.00     0.039 A 
HETATM    3  C9  UNL     1      21.574   0.598  51.862  1.00  0.00     0.016 A 
HETATM    4  C10 UNL     1      20.710  -0.082  52.703  1.00  0.00    -0.008 A 
HETATM    5  C15 UNL     1      21.313  -0.668  53.798  1.00  0.00     0.040 A 
HETATM    6  C16 UNL     1      22.655  -0.628  54.105  1.00  0.00     0.068 A 
HETATM    7 CL1  UNL     1      23.268  -1.428  55.540  1.00  0.00    -0.081 Cl
ENDROOT
BRANCH   1   8
HETATM    8  O1  UNL     1      24.824   0.110  53.529  1.00  0.00    -0.345 OA
BRANCH   8   9
HETATM    9  C6  UNL     1      25.736  -0.859  53.005  1.00  0.00     0.214 C 
BRANCH   9  10
HETATM   10  C5  UNL     1      27.121  -0.337  53.239  1.00  0.00    -0.031 A 
HETATM   11  C4  UNL     1      28.215  -1.173  53.287  1.00  0.00     0.009 A 
HETATM   12  C3  UNL     1      29.501  -0.705  53.502  1.00  0.00     0.004 A 
HETATM   13  C2  UNL     1      29.643   0.669  53.673  1.00  0.00     0.042 A 
HETATM   14  C1  UNL     1      28.583   1.562  53.636  1.00  0.00     0.117 A 
HETATM   15  F1  UNL     1      28.800   2.893  53.811  1.00  0.00    -0.206 F 
HETATM   16  C17 UNL     1      27.333   1.002  53.414  1.00  0.00     0.051 A 
ENDBRANCH   9  10
ENDBRANCH   8   9
ENDBRANCH   1   8
BRANCH   4  17
HETATM   17  C11 UNL     1      19.270  -0.191  52.481  1.00  0.00     0.065 C 
HETATM   18  N1  UNL     1      18.681  -1.037  53.222  1.00  0.00    -0.270 NA
HETATM   19  C12 UNL     1      17.308  -1.402  53.282  1.00  0.00     0.299 C 
HETATM   20  N2  UNL     1      16.362  -0.399  52.927  1.00  0.00    -0.257 NA
HETATM   21  C13 UNL     1      16.320   0.562  52.085  1.00  0.00     0.247 C 
HETATM   22  O2  UNL     1      17.418   0.769  51.261  1.00  0.00    -0.339 OA
HETATM   23  C14 UNL     1      18.799   0.713  51.432  1.00  0.00     0.236 C 
ENDBRANCH   4  17
TORSDOF 4
ENDMDL
MODEL 5
REMARK VINA RESULT:      -8.2      4.101      8.652
REMARK  4 active torsions:
REMARK  status: ('A' for Active; 'I' for Inactive)
REMARK    1  A    between atoms: C5_6  and  C6_7 
REMARK    2  A    between atoms: C6_7  and  O1_8 
REMARK    3  A    between atoms: O1_8  and  C7_9 
REMARK    4  A    between atoms: C10_12  and  C11_13 
ROOT
HETATM    1  C7  UNL     1      23.550   0.099  53.131  1.00  0.00     0.090 A 
HETATM    2  C8  UNL     1      22.955   0.708  52.045  1.00  0.00     0.039 A 
HETATM    3  C9  UNL     1      21.590   0.636  51.896  1.00  0.00     0.016 A 
HETATM    4  C10 UNL     1      20.771  -0.027  52.794  1.00  0.00    -0.008 A 
HETATM    5  C15 UNL     1      21.431  -0.612  53.854  1.00  0.00     0.040 A 
HETATM    6  C16 UNL     1      22.790  -0.587  54.079  1.00  0.00     0.068 A 
HETATM    7 CL1  UNL     1      23.480  -1.384  55.482  1.00  0.00    -0.081 Cl
ENDROOT
BRANCH   1   8
HETATM    8  O1  UNL     1      24.929   0.119  53.367  1.00  0.00    -0.345 OA
BRANCH   8   9
HETATM    9  C6  UNL     1      25.861   0.358  52.308  1.00  0.00     0.214 C 
BRANCH   9  10
HETATM   10  C5  UNL     1      27.222   0.008  52.828  1.00  0.00    -0.031 A 
HETATM   11  C4  UNL     1      28.100   0.971  53.274  1.00  0.00     0.009 A 
HETATM   12  C3  UNL     1      29.361   0.663  53.757  1.00  0.00     0.004 A 
HETATM   13  C2  UNL     1      29.710  -0.684  53.773  1.00  0.00     0.042 A 
HETATM   14  C1  UNL     1      28.872  -1.700  53.339  1.00  0.00     0.117 A 
HETATM   15  F1  UNL     1      29.283  -2.996  53.384  1.00  0.00    -0.206 F 
HETATM   16  C17 UNL     1      27.629  -1.296  52.872  1.00  0.00     0.051 A 
ENDBRANCH   9  10
ENDBRANCH   8   9
ENDBRANCH   1   8
BRANCH   4  17
HETATM   17  C11 UNL     1      19.319  -0.119  52.660  1.00  0.00     0.065 C 
HETATM   18  N1  UNL     1      18.803   0.731  51.870  1.00  0.00    -0.270 NA
HETATM   19  C12 UNL     1      17.445   0.933  51.502  1.00  0.00     0.299 C 
HETATM   20  N2  UNL     1      16.598  -0.211  51.522  1.00  0.00    -0.257 NA
HETATM   21  C13 UNL     1      16.500  -1.263  52.242  1.00  0.00     0.247 C 
HETATM   22  O2  UNL     1      17.392  -1.434  53.292  1.00  0.00    -0.339 OA
HETATM   23  C14 UNL     1      18.751  -1.191  53.476  1.00  0.00     0.236 C 
ENDBRANCH   4  17
TORSDOF 4
ENDMDL
MODEL 6
REMARK VINA RESULT:      -8.0      2.062      2.659
REMARK  4 active torsions:
REMARK  status: ('A' for Active; 'I' for Inactive)
REMARK    1  A    between atoms: C5_6  and  C6_7 
REMARK    2  A    between atoms: C6_7  and  O1_8 
REMARK    3  A    between atoms: O1_8  and  C7_9 
REMARK    4  A    between atoms: C10_12  and  C11_13 
ROOT
HETATM    1  C7  UNL     1      21.950   1.032  52.821  1.00  0.00     0.090 A 
HETATM    2  C8  UNL     1      22.500  -0.134  53.313  1.00  0.00     0.039 A 
HETATM    3  C9  UNL     1      23.855  -0.198  53.533  1.00  0.00     0.016 A 
HETATM    4  C10 UNL     1      24.709   0.863  53.283  1.00  0.00    -0.008 A 
HETATM    5  C15 UNL     1      24.092   1.996  52.793  1.00  0.00     0.040 A 
HETATM    6  C16 UNL     1      22.745   2.145  52.544  1.00  0.00     0.068 A 
HETATM    7 CL1  UNL     1      22.113   3.657  51.918  1.00  0.00    -0.081 Cl
ENDROOT
BRANCH   1   8
HETATM    8  O1  UNL     1      20.583   1.192  52.566  1.00  0.00    -0.345 OA
BRANCH   8   9
HETATM    9  C6  UNL     1      19.989   0.700  51.361  1.00  0.00     0.214 C 
BRANCH   9  10
HETATM   10  C5  UNL     1      18.760  -0.062  51.752  1.00  0.00    -0.031 A 
HETATM   11  C4  UNL     1      18.693  -0.783  52.924  1.00  0.00     0.009 A 
HETATM   12  C3  UNL     1      17.563  -1.492  53.299  1.00  0.00     0.004 A 
HETATM   13  C2  UNL     1      16.481  -1.446  52.426  1.00  0.00     0.042 A 
HETATM   14  C1  UNL     1      16.486  -0.740  51.232  1.00  0.00     0.117 A 
HETATM   15  F1  UNL     1      15.388  -0.742  50.429  1.00  0.00    -0.206 F 
HETATM   16  C17 UNL     1      17.660  -0.060  50.941  1.00  0.00     0.051 A 
ENDBRANCH   9  10
ENDBRANCH   8   9
ENDBRANCH   1   8
BRANCH   4  17
HETATM   17  C11 UNL     1      26.152   0.821  53.507  1.00  0.00     0.065 C 
HETATM   18  N1  UNL     1      26.740   1.941  53.388  1.00  0.00    -0.270 NA
HETATM   19  C12 UNL     1      28.115   2.272  53.534  1.00  0.00     0.299 C 
HETATM   20  N2  UNL     1      28.875   1.474  54.436  1.00  0.00    -0.257 NA
HETATM   21  C13 UNL     1      28.884   0.244  54.783  1.00  0.00     0.247 C 
HETATM   22  O2  UNL     1      27.967  -0.617  54.197  1.00  0.00    -0.339 OA
HETATM   23  C14 UNL     1      26.627  -0.523  53.830  1.00  0.00     0.236 C 
ENDBRANCH   4  17
TORSDOF 4
ENDMDL
MODEL 7
REMARK VINA RESULT:      -8.0      2.254      3.013
REMARK  4 active torsions:
REMARK  status: ('A' for Active; 'I' for Inactive)
REMARK    1  A    between atoms: C5_6  and  C6_7 
REMARK    2  A    between atoms: C6_7  and  O1_8 
REMARK    3  A    between atoms: O1_8  and  C7_9 
REMARK    4  A    between atoms: C10_12  and  C11_13 
ROOT
HETATM    1  C7  UNL     1      22.182   0.611  53.146  1.00  0.00     0.090 A 
HETATM    2  C8  UNL     1      23.214   1.396  52.676  1.00  0.00     0.039 A 
HETATM    3  C9  UNL     1      24.513   0.999  52.888  1.00  0.00     0.016 A 
HETATM    4  C10 UNL     1      24.843  -0.165  53.560  1.00  0.00    -0.008 A 
HETATM    5  C15 UNL     1      23.763  -0.901  54.002  1.00  0.00     0.040 A 
HETATM    6  C16 UNL     1      22.434  -0.578  53.832  1.00  0.00     0.068 A 
HETATM    7 CL1  UNL     1      21.172  -1.624  54.457  1.00  0.00    -0.081 Cl
ENDROOT
BRANCH   1   8
HETATM    8  O1  UNL     1      20.830   0.932  52.978  1.00  0.00    -0.345 OA
BRANCH   8   9
HETATM    9  C6  UNL     1      20.100   0.498  51.827  1.00  0.00     0.214 C 
BRANCH   9  10
HETATM   10  C5  UNL     1      20.494   1.389  50.690  1.00  0.00    -0.031 A 
HETATM   11  C4  UNL     1      20.125   2.716  50.643  1.00  0.00     0.009 A 
HETATM   12  C3  UNL     1      20.482   3.552  49.598  1.00  0.00     0.004 A 
HETATM   13  C2  UNL     1      21.241   2.986  48.578  1.00  0.00     0.042 A 
HETATM   14  C1  UNL     1      21.643   1.659  48.566  1.00  0.00     0.117 A 
HETATM   15  F1  UNL     1      22.385   1.175  47.533  1.00  0.00    -0.206 F 
HETATM   16  C17 UNL     1      21.239   0.898  49.654  1.00  0.00     0.051 A 
ENDBRANCH   9  10
ENDBRANCH   8   9
ENDBRANCH   1   8
BRANCH   4  17
HETATM   17  C11 UNL     1      26.214  -0.610  53.799  1.00  0.00     0.065 C 
HETATM   18  N1  UNL     1      26.598  -1.569  53.060  1.00  0.00    -0.270 NA
HETATM   19  C12 UNL     1      27.847  -2.247  53.016  1.00  0.00     0.299 C 
HETATM   20  N2  UNL     1      28.997  -1.495  53.386  1.00  0.00    -0.257 NA
HETATM   21  C13 UNL     1      29.253  -0.573  54.234  1.00  0.00     0.247 C 
HETATM   22  O2  UNL     1      28.224  -0.115  55.046  1.00  0.00    -0.339 OA
HETATM   23  C14 UNL     1      26.871   0.155  54.858  1.00  0.00     0.236 C 
ENDBRANCH   4  17
TORSDOF 4
ENDMDL
MODEL 8
REMARK VINA RESULT:      -7.9      4.163      8.679
REMARK  4 active torsions:
REMARK  status: ('A' for Active; 'I' for Inactive)
REMARK    1  A    between atoms: C5_6  and  C6_7 
REMARK    2  A    between atoms: C6_7  and  O1_8 
REMARK    3  A    between atoms: O1_8  and  C7_9 
REMARK    4  A    between atoms: C10_12  and  C11_13 
ROOT
HETATM    1  C7  UNL     1      23.837   0.556  53.215  1.00  0.00     0.090 A 
HETATM    2  C8  UNL     1      23.765   1.516  52.226  1.00  0.00     0.039 A 
HETATM    3  C9  UNL     1      22.533   1.908  51.757  1.00  0.00     0.016 A 
HETATM    4  C10 UNL     1      21.345   1.382  52.234  1.00  0.00    -0.008 A 
HETATM    5  C15 UNL     1      21.492   0.429  53.221  1.00  0.00     0.040 A 
HETATM    6  C16 UNL     1      22.683  -0.021  53.746  1.00  0.00     0.068 A 
HETATM    7 CL1  UNL     1      22.701  -1.244  55.003  1.00  0.00    -0.081 Cl
ENDROOT
BRANCH   1   8
HETATM    8  O1  UNL     1      25.043   0.094  53.754  1.00  0.00    -0.345 OA
BRANCH   8   9
HETATM    9  C6  UNL     1      25.827  -0.896  53.083  1.00  0.00     0.214 C 
BRANCH   9  10
HETATM   10  C5  UNL     1      27.267  -0.534  53.286  1.00  0.00    -0.031 A 
HETATM   11  C4  UNL     1      28.276  -1.462  53.155  1.00  0.00     0.009 A 
HETATM   12  C3  UNL     1      29.611  -1.142  53.340  1.00  0.00     0.004 A 
HETATM   13  C2  UNL     1      29.895   0.179  53.670  1.00  0.00     0.042 A 
HETATM   14  C1  UNL     1      28.926   1.160  53.816  1.00  0.00     0.117 A 
HETATM   15  F1  UNL     1      29.280   2.433  54.141  1.00  0.00    -0.206 F 
HETATM   16  C17 UNL     1      27.617   0.747  53.612  1.00  0.00     0.051 A 
ENDBRANCH   9  10
ENDBRANCH   8   9
ENDBRANCH   1   8
BRANCH   4  17
HETATM   17  C11 UNL     1      20.024   1.781  51.754  1.00  0.00     0.065 C 
HETATM   18  N1  UNL     1      19.357   0.852  51.201  1.00  0.00    -0.270 NA
HETATM   19  C12 UNL     1      18.057   0.876  50.627  1.00  0.00     0.299 C 
HETATM   20  N2  UNL     1      17.132   1.810  51.173  1.00  0.00    -0.257 NA
HETATM   21  C13 UNL     1      17.204   2.991  51.659  1.00  0.00     0.247 C 
HETATM   22  O2  UNL     1      18.445   3.610  51.715  1.00  0.00    -0.339 OA
HETATM   23  C14 UNL     1      19.738   3.191  52.015  1.00  0.00     0.236 C 
ENDBRANCH   4  17
TORSDOF 4
ENDMDL
MODEL 9
REMARK VINA RESULT:      -7.8      4.497      8.640
REMARK  4 active torsions:
REMARK  status: ('A' for Active; 'I' for Inactive)
REMARK    1  A    between atoms: C5_6  and  C6_7 
REMARK    2  A    between atoms: C6_7  and  O1_8 
REMARK    3  A    between atoms: O1_8  and  C7_9 
REMARK    4  A    between atoms: C10_12  and  C11_13 
ROOT
HETATM    1  C7  UNL     1      21.988   0.399  53.302  1.00  0.00     0.090 A 
HETATM    2  C8  UNL     1      21.050   0.896  52.420  1.00  0.00     0.039 A 
HETATM    3  C9  UNL     1      19.795   0.336  52.386  1.00  0.00     0.016 A 
HETATM    4  C10 UNL     1      19.419  -0.717  53.202  1.00  0.00    -0.008 A 
HETATM    5  C15 UNL     1      20.405  -1.163  54.058  1.00  0.00     0.040 A 
HETATM    6  C16 UNL     1      21.684  -0.661  54.157  1.00  0.00     0.068 A 
HETATM    7 CL1  UNL     1      22.826  -1.342  55.301  1.00  0.00    -0.081 Cl
ENDROOT
BRANCH   1   8
HETATM    8  O1  UNL     1      23.289   0.903  53.408  1.00  0.00    -0.345 OA
BRANCH   8   9
HETATM    9  C6  UNL     1      24.069   1.201  52.247  1.00  0.00     0.214 C 
BRANCH   9  10
HETATM   10  C5  UNL     1      25.502   0.942  52.598  1.00  0.00    -0.031 A 
HETATM   11  C4  UNL     1      26.006  -0.335  52.706  1.00  0.00     0.009 A 
HETATM   12  C3  UNL     1      27.329  -0.590  53.030  1.00  0.00     0.004 A 
HETATM   13  C2  UNL     1      28.141   0.519  53.247  1.00  0.00     0.042 A 
HETATM   14  C1  UNL     1      27.695   1.829  53.153  1.00  0.00     0.117 A 
HETATM   15  F1  UNL     1      28.549   2.863  53.379  1.00  0.00    -0.206 F 
HETATM   16  C17 UNL     1      26.356   1.986  52.823  1.00  0.00     0.051 A 
ENDBRANCH   9  10
ENDBRANCH   8   9
ENDBRANCH   1   8
BRANCH   4  17
HETATM   17  C11 UNL     1      18.093  -1.330  53.186  1.00  0.00     0.065 C 
HETATM   18  N1  UNL     1      17.174  -0.596  52.709  1.00  0.00    -0.270 NA
HETATM   19  C12 UNL     1      15.786  -0.858  52.540  1.00  0.00     0.299 C 
HETATM   20  N2  UNL     1      15.413  -2.216  52.330  1.00  0.00    -0.257 NA
HETATM   21  C13 UNL     1      15.825  -3.353  52.743  1.00  0.00     0.247 C 
HETATM   22  O2  UNL     1      16.902  -3.388  53.619  1.00  0.00    -0.339 OA
HETATM   23  C14 UNL     1      18.100  -2.687  53.732  1.00  0.00     0.236 C 
ENDBRANCH   4  17
TORSDOF 4
ENDMDL
