MODEL 1
REMARK VINA RESULT:      -9.4      0.000      0.000
REMARK  4 active torsions:
REMARK  status: ('A' for Active; 'I' for Inactive)
REMARK    1  A    between atoms: C2_2  and  C3_3 
REMARK       I    between atoms: C3_3  and  N1_5 
REMARK    2  A    between atoms: N1_5  and  C4_6 
REMARK    3  A    between atoms: C7_9  and  C8_10 
REMARK    4  A    between atoms: C14_18  and  N4_19 
ROOT
HETATM    1  C4  UNL     1      23.244   4.667  52.156  1.00  0.00     0.035 A 
HETATM    2  C5  UNL     1      21.914   4.354  52.288  1.00  0.00     0.030 A 
HETATM    3  C6  UNL     1      21.418   3.088  52.488  1.00  0.00     0.010 A 
HETATM    4  C7  UNL     1      22.310   2.017  52.568  1.00  0.00    -0.046 A 
HETATM    5  C10 UNL     1      23.649   2.314  52.437  1.00  0.00    -0.002 A 
HETATM    6  C11 UNL     1      24.651   1.276  52.508  1.00  0.00     0.056 C 
HETATM    7  N2  UNL     1      24.453   0.043  52.986  1.00  0.00    -0.200 NA
HETATM    8  C12 UNL     1      25.547  -0.768  52.972  1.00  0.00     0.060 C 
HETATM    9  C13 UNL     1      26.476  -1.436  52.972  1.00  0.00     0.062 C 
HETATM   10  N3  UNL     1      27.616  -2.230  52.989  1.00  0.00    -0.179 NA
HETATM   11  C14 UNL     1      28.669  -1.603  53.524  1.00  0.00     0.131 C 
HETATM   12  C15 UNL     1      29.362  -0.395  54.005  1.00  0.00     0.046 C 
HETATM   13  C16 UNL     1      29.225   0.903  54.029  1.00  0.00    -0.022 C 
HETATM   14  C17 UNL     1      28.186   1.846  53.491  1.00  0.00    -0.001 C 
HETATM   15  C18 UNL     1      27.028   2.122  52.789  1.00  0.00     0.031 C 
HETATM   16  C19 UNL     1      26.044   1.352  52.044  1.00  0.00     0.066 C 
HETATM   17  C20 UNL     1      24.102   3.599  52.237  1.00  0.00     0.043 A 
ENDROOT
BRANCH   4  18
HETATM   18  C8  UNL     1      21.816   0.634  52.789  1.00  0.00     0.035 C 
HETATM   19  C9  UNL     1      20.754   0.564  53.857  1.00  0.00     0.010 C 
ENDBRANCH   4  18
BRANCH   1  20
HETATM   20  N1  UNL     1      23.774   5.954  51.961  1.00  0.00    -0.327 N 
HETATM   21  C3  UNL     1      24.046   6.625  50.755  1.00  0.00     0.221 C 
HETATM   22  O1  UNL     1      23.812   6.074  49.655  1.00  0.00    -0.273 OA
HETATM   23  H6  UNL     1      24.022   6.550  52.778  1.00  0.00     0.169 HD
BRANCH  21  24
HETATM   24  C2  UNL     1      24.604   7.976  50.552  1.00  0.00     0.098 C 
HETATM   25  C1  UNL     1      26.071   7.770  50.165  1.00  0.00     0.014 C 
ENDBRANCH  21  24
ENDBRANCH   1  20
BRANCH  11  26
HETATM   26  N4  UNL     1      29.334  -2.824  53.268  1.00  0.00    -0.383 N 
HETATM   27  H14 UNL     1      29.855  -3.500  52.668  1.00  0.00     0.157 HD
HETATM   28  H15 UNL     1      29.597  -3.716  53.746  1.00  0.00     0.157 HD
ENDBRANCH  11  26
TORSDOF 4
ENDMDL
MODEL 2
REMARK VINA RESULT:      -9.0      2.718      6.102
REMARK  4 active torsions:
REMARK  status: ('A' for Active; 'I' for Inactive)
REMARK    1  A    between atoms: C2_2  and  C3_3 
REMARK       I    between atoms: C3_3  and  N1_5 
REMARK    2  A    between atoms: N1_5  and  C4_6 
REMARK    3  A    between atoms: C7_9  and  C8_10 
REMARK    4  A    between atoms: C14_18  and  N4_19 
ROOT
HETATM    1  C4  UNL     1      25.862   2.932  51.332  1.00  0.00     0.035 A 
HETATM    2  C5  UNL     1      27.018   2.241  51.598  1.00  0.00     0.030 A 
HETATM    3  C6  UNL     1      27.082   1.027  52.238  1.00  0.00     0.010 A 
HETATM    4  C7  UNL     1      25.896   0.424  52.664  1.00  0.00    -0.046 A 
HETATM    5  C10 UNL     1      24.726   1.105  52.406  1.00  0.00    -0.002 A 
HETATM    6  C11 UNL     1      23.448   0.564  52.804  1.00  0.00     0.056 C 
HETATM    7  N2  UNL     1      23.224  -0.706  53.160  1.00  0.00    -0.200 NA
HETATM    8  C12 UNL     1      21.934  -1.000  53.482  1.00  0.00     0.060 C 
HETATM    9  C13 UNL     1      20.844  -1.241  53.733  1.00  0.00     0.062 C 
HETATM   10  N3  UNL     1      19.514  -1.528  54.015  1.00  0.00    -0.179 NA
HETATM   11  C14 UNL     1      18.682  -1.073  53.071  1.00  0.00     0.131 C 
HETATM   12  C15 UNL     1      18.376  -0.251  51.888  1.00  0.00     0.046 C 
HETATM   13  C16 UNL     1      18.911   0.676  51.139  1.00  0.00    -0.022 C 
HETATM   14  C17 UNL     1      20.220   1.412  51.177  1.00  0.00    -0.001 C 
HETATM   15  C18 UNL     1      21.443   1.708  51.748  1.00  0.00     0.031 C 
HETATM   16  C19 UNL     1      22.177   1.290  52.932  1.00  0.00     0.066 C 
HETATM   17  C20 UNL     1      24.710   2.322  51.760  1.00  0.00     0.043 A 
ENDROOT
BRANCH   4  18
HETATM   18  C8  UNL     1      25.921  -0.890  53.355  1.00  0.00     0.035 C 
HETATM   19  C9  UNL     1      26.831  -1.883  52.677  1.00  0.00     0.010 C 
ENDBRANCH   4  18
BRANCH   1  20
HETATM   20  N1  UNL     1      25.773   4.168  50.670  1.00  0.00    -0.327 N 
HETATM   21  C3  UNL     1      26.467   4.614  49.530  1.00  0.00     0.221 C 
HETATM   22  O1  UNL     1      27.298   3.870  48.962  1.00  0.00    -0.273 OA
HETATM   23  H6  UNL     1      25.122   4.904  51.015  1.00  0.00     0.169 HD
BRANCH  21  24
HETATM   24  C2  UNL     1      26.373   5.913  48.837  1.00  0.00     0.098 C 
HETATM   25  C1  UNL     1      27.778   6.208  48.305  1.00  0.00     0.014 C 
ENDBRANCH  21  24
ENDBRANCH   1  20
BRANCH  11  26
HETATM   26  N4  UNL     1      17.684  -1.655  53.886  1.00  0.00    -0.383 N 
HETATM   27  H14 UNL     1      17.196  -2.456  54.343  1.00  0.00     0.157 HD
HETATM   28  H15 UNL     1      16.860  -1.386  54.470  1.00  0.00     0.157 HD
ENDBRANCH  11  26
TORSDOF 4
ENDMDL
MODEL 3
REMARK VINA RESULT:      -8.6      2.495      7.261
REMARK  4 active torsions:
REMARK  status: ('A' for Active; 'I' for Inactive)
REMARK    1  A    between atoms: C2_2  and  C3_3 
REMARK       I    between atoms: C3_3  and  N1_5 
REMARK    2  A    between atoms: N1_5  and  C4_6 
REMARK    3  A    between atoms: C7_9  and  C8_10 
REMARK    4  A    between atoms: C14_18  and  N4_19 
ROOT
HETATM    1  C4  UNL     1      25.604   0.167  53.064  1.00  0.00     0.035 A 
HETATM    2  C5  UNL     1      24.747  -0.761  53.598  1.00  0.00     0.030 A 
HETATM    3  C6  UNL     1      23.385  -0.611  53.704  1.00  0.00     0.010 A 
HETATM    4  C7  UNL     1      22.798   0.568  53.241  1.00  0.00    -0.046 A 
HETATM    5  C10 UNL     1      23.644   1.512  52.701  1.00  0.00    -0.002 A 
HETATM    6  C11 UNL     1      23.133   2.764  52.191  1.00  0.00     0.056 C 
HETATM    7  N2  UNL     1      21.851   3.017  51.909  1.00  0.00    -0.200 NA
HETATM    8  C12 UNL     1      21.598   4.263  51.422  1.00  0.00     0.060 C 
HETATM    9  C13 UNL     1      21.399   5.306  50.997  1.00  0.00     0.062 C 
HETATM   10  N3  UNL     1      21.171   6.567  50.460  1.00  0.00    -0.179 NA
HETATM   11  C14 UNL     1      22.015   6.859  49.463  1.00  0.00     0.131 C 
HETATM   12  C15 UNL     1      23.229   6.611  48.668  1.00  0.00     0.046 C 
HETATM   13  C16 UNL     1      24.300   5.864  48.670  1.00  0.00    -0.022 C 
HETATM   14  C17 UNL     1      24.834   4.820  49.610  1.00  0.00    -0.001 C 
HETATM   15  C18 UNL     1      24.780   4.075  50.773  1.00  0.00     0.031 C 
HETATM   16  C19 UNL     1      23.895   3.991  51.924  1.00  0.00     0.066 C 
HETATM   17  C20 UNL     1      25.005   1.318  52.615  1.00  0.00     0.043 A 
ENDROOT
BRANCH   4  18
HETATM   18  C8  UNL     1      21.329   0.769  53.331  1.00  0.00     0.035 C 
HETATM   19  C9  UNL     1      20.748   0.220  54.609  1.00  0.00     0.010 C 
ENDBRANCH   4  18
BRANCH   1  20
HETATM   20  N1  UNL     1      26.997   0.030  52.936  1.00  0.00    -0.327 N 
HETATM   21  C3  UNL     1      28.009   0.407  53.837  1.00  0.00     0.221 C 
HETATM   22  O1  UNL     1      27.718   0.946  54.930  1.00  0.00    -0.273 OA
HETATM   23  H6  UNL     1      27.407  -0.403  52.083  1.00  0.00     0.169 HD
BRANCH  21  24
HETATM   24  C2  UNL     1      29.471   0.265  53.702  1.00  0.00     0.098 C 
HETATM   25  C1  UNL     1      29.723  -1.215  53.399  1.00  0.00     0.014 C 
ENDBRANCH  21  24
ENDBRANCH   1  20
BRANCH  11  26
HETATM   26  N4  UNL     1      21.290   8.071  49.408  1.00  0.00    -0.383 N 
HETATM   27  H14 UNL     1      20.925   8.925  48.931  1.00  0.00     0.157 HD
HETATM   28  H15 UNL     1      20.708   8.694  50.015  1.00  0.00     0.157 HD
ENDBRANCH  11  26
TORSDOF 4
ENDMDL
MODEL 4
REMARK VINA RESULT:      -8.2      2.144      2.430
REMARK  4 active torsions:
REMARK  status: ('A' for Active; 'I' for Inactive)
REMARK    1  A    between atoms: C2_2  and  C3_3 
REMARK       I    between atoms: C3_3  and  N1_5 
REMARK    2  A    between atoms: N1_5  and  C4_6 
REMARK    3  A    between atoms: C7_9  and  C8_10 
REMARK    4  A    between atoms: C14_18  and  N4_19 
ROOT
HETATM    1  C4  UNL     1      21.516   2.886  52.103  1.00  0.00     0.035 A 
HETATM    2  C5  UNL     1      20.438   2.201  52.603  1.00  0.00     0.030 A 
HETATM    3  C6  UNL     1      20.499   0.977  53.224  1.00  0.00     0.010 A 
HETATM    4  C7  UNL     1      21.742   0.356  53.373  1.00  0.00    -0.046 A 
HETATM    5  C10 UNL     1      22.836   1.031  52.875  1.00  0.00    -0.002 A 
HETATM    6  C11 UNL     1      24.164   0.473  52.982  1.00  0.00     0.056 C 
HETATM    7  N2  UNL     1      24.517  -0.533  53.790  1.00  0.00    -0.200 NA
HETATM    8  C12 UNL     1      25.832  -0.885  53.739  1.00  0.00     0.060 C 
HETATM    9  C13 UNL     1      26.941  -1.161  53.701  1.00  0.00     0.062 C 
HETATM   10  N3  UNL     1      28.294  -1.473  53.665  1.00  0.00    -0.179 NA
HETATM   11  C14 UNL     1      29.072  -0.390  53.774  1.00  0.00     0.131 C 
HETATM   12  C15 UNL     1      29.289   1.066  53.765  1.00  0.00     0.046 C 
HETATM   13  C16 UNL     1      28.660   2.177  53.488  1.00  0.00    -0.022 C 
HETATM   14  C17 UNL     1      27.283   2.488  52.973  1.00  0.00    -0.001 C 
HETATM   15  C18 UNL     1      26.038   2.117  52.501  1.00  0.00     0.031 C 
HETATM   16  C19 UNL     1      25.355   0.864  52.216  1.00  0.00     0.066 C 
HETATM   17  C20 UNL     1      22.726   2.258  52.258  1.00  0.00     0.043 A 
ENDROOT
BRANCH   4  18
HETATM   18  C8  UNL     1      21.853  -0.965  54.043  1.00  0.00     0.035 C 
HETATM   19  C9  UNL     1      20.546  -1.715  54.064  1.00  0.00     0.010 C 
ENDBRANCH   4  18
BRANCH   1  20
HETATM   20  N1  UNL     1      21.478   4.142  51.473  1.00  0.00    -0.327 N 
HETATM   21  C3  UNL     1      20.843   4.511  50.273  1.00  0.00     0.221 C 
HETATM   22  O1  UNL     1      20.200   3.667  49.609  1.00  0.00    -0.273 OA
HETATM   23  H6  UNL     1      21.964   4.959  51.899  1.00  0.00     0.169 HD
BRANCH  21  24
HETATM   24  C2  UNL     1      20.805   5.830  49.613  1.00  0.00     0.098 C 
HETATM   25  C1  UNL     1      21.481   5.639  48.252  1.00  0.00     0.014 C 
ENDBRANCH  21  24
ENDBRANCH   1  20
BRANCH  11  26
HETATM   26  N4  UNL     1      30.127  -1.328  53.696  1.00  0.00    -0.383 N 
HETATM   27  H14 UNL     1      30.952  -1.845  54.072  1.00  0.00     0.157 HD
HETATM   28  H15 UNL     1      30.551  -2.015  53.030  1.00  0.00     0.157 HD
ENDBRANCH  11  26
TORSDOF 4
ENDMDL
MODEL 5
REMARK VINA RESULT:      -7.8      3.615      7.380
REMARK  4 active torsions:
REMARK  status: ('A' for Active; 'I' for Inactive)
REMARK    1  A    between atoms: C2_2  and  C3_3 
REMARK       I    between atoms: C3_3  and  N1_5 
REMARK    2  A    between atoms: N1_5  and  C4_6 
REMARK    3  A    between atoms: C7_9  and  C8_10 
REMARK    4  A    between atoms: C14_18  and  N4_19 
ROOT
HETATM    1  C4  UNL     1      24.816   0.110  53.195  1.00  0.00     0.035 A 
HETATM    2  C5  UNL     1      24.244  -0.670  54.168  1.00  0.00     0.030 A 
HETATM    3  C6  UNL     1      22.894  -0.784  54.396  1.00  0.00     0.010 A 
HETATM    4  C7  UNL     1      22.010  -0.062  53.591  1.00  0.00    -0.046 A 
HETATM    5  C10 UNL     1      22.568   0.727  52.609  1.00  0.00    -0.002 A 
HETATM    6  C11 UNL     1      21.737   1.509  51.723  1.00  0.00     0.056 C 
HETATM    7  N2  UNL     1      20.422   1.340  51.547  1.00  0.00    -0.200 NA
HETATM    8  C12 UNL     1      19.844   2.182  50.647  1.00  0.00     0.060 C 
HETATM    9  C13 UNL     1      19.371   2.883  49.876  1.00  0.00     0.062 C 
HETATM   10  N3  UNL     1      18.811   3.723  48.921  1.00  0.00    -0.179 NA
HETATM   11  C14 UNL     1      19.513   3.744  47.783  1.00  0.00     0.131 C 
HETATM   12  C15 UNL     1      20.719   3.453  46.989  1.00  0.00     0.046 C 
HETATM   13  C16 UNL     1      21.943   3.022  47.136  1.00  0.00    -0.022 C 
HETATM   14  C17 UNL     1      22.760   2.608  48.327  1.00  0.00    -0.001 C 
HETATM   15  C18 UNL     1      22.942   2.426  49.685  1.00  0.00     0.031 C 
HETATM   16  C19 UNL     1      22.153   2.644  50.888  1.00  0.00     0.066 C 
HETATM   17  C20 UNL     1      23.929   0.811  52.417  1.00  0.00     0.043 A 
ENDROOT
BRANCH   4  18
HETATM   18  C8  UNL     1      20.542  -0.161  53.800  1.00  0.00     0.035 C 
HETATM   19  C9  UNL     1      20.059  -1.589  53.838  1.00  0.00     0.010 C 
ENDBRANCH   4  18
BRANCH   1  20
HETATM   20  N1  UNL     1      26.193   0.233  52.938  1.00  0.00    -0.327 N 
HETATM   21  C3  UNL     1      27.190   0.829  53.731  1.00  0.00     0.221 C 
HETATM   22  O1  UNL     1      26.901   1.344  54.835  1.00  0.00    -0.273 OA
HETATM   23  H6  UNL     1      26.599  -0.146  52.058  1.00  0.00     0.169 HD
BRANCH  21  24
HETATM   24  C2  UNL     1      28.635   0.960  53.459  1.00  0.00     0.098 C 
HETATM   25  C1  UNL     1      28.983   2.425  53.734  1.00  0.00     0.014 C 
ENDBRANCH  21  24
ENDBRANCH   1  20
BRANCH  11  26
HETATM   26  N4  UNL     1      18.504   4.636  47.355  1.00  0.00    -0.383 N 
HETATM   27  H14 UNL     1      17.515   4.913  47.167  1.00  0.00     0.157 HD
HETATM   28  H15 UNL     1      18.388   5.601  46.970  1.00  0.00     0.157 HD
ENDBRANCH  11  26
TORSDOF 4
ENDMDL
MODEL 6
REMARK VINA RESULT:      -7.7      3.468      4.804
REMARK  4 active torsions:
REMARK  status: ('A' for Active; 'I' for Inactive)
REMARK    1  A    between atoms: C2_2  and  C3_3 
REMARK       I    between atoms: C3_3  and  N1_5 
REMARK    2  A    between atoms: N1_5  and  C4_6 
REMARK    3  A    between atoms: C7_9  and  C8_10 
REMARK    4  A    between atoms: C14_18  and  N4_19 
ROOT
HETATM    1  C4  UNL     1      18.918   1.309  49.988  1.00  0.00     0.035 A 
HETATM    2  C5  UNL     1      17.783   0.742  50.510  1.00  0.00     0.030 A 
HETATM    3  C6  UNL     1      17.745  -0.072  51.617  1.00  0.00     0.010 A 
HETATM    4  C7  UNL     1      18.938  -0.363  52.283  1.00  0.00    -0.046 A 
HETATM    5  C10 UNL     1      20.088   0.199  51.771  1.00  0.00    -0.002 A 
HETATM    6  C11 UNL     1      21.370  -0.039  52.390  1.00  0.00     0.056 C 
HETATM    7  N2  UNL     1      21.555  -0.533  53.620  1.00  0.00    -0.200 NA
HETATM    8  C12 UNL     1      22.855  -0.658  54.006  1.00  0.00     0.060 C 
HETATM    9  C13 UNL     1      23.950  -0.743  54.327  1.00  0.00     0.062 C 
HETATM   10  N3  UNL     1      25.281  -0.821  54.717  1.00  0.00    -0.179 NA
HETATM   11  C14 UNL     1      25.950   0.314  54.480  1.00  0.00     0.131 C 
HETATM   12  C15 UNL     1      26.088   1.640  53.856  1.00  0.00     0.046 C 
HETATM   13  C16 UNL     1      25.496   2.410  52.982  1.00  0.00    -0.022 C 
HETATM   14  C17 UNL     1      24.283   2.247  52.112  1.00  0.00    -0.001 C 
HETATM   15  C18 UNL     1      23.221   1.516  51.614  1.00  0.00     0.031 C 
HETATM   16  C19 UNL     1      22.697   0.171  51.794  1.00  0.00     0.066 C 
HETATM   17  C20 UNL     1      20.078   1.010  50.657  1.00  0.00     0.043 A 
ENDROOT
BRANCH   4  18
HETATM   18  C8  UNL     1      18.941  -1.234  53.486  1.00  0.00     0.035 C 
HETATM   19  C9  UNL     1      17.796  -2.215  53.493  1.00  0.00     0.010 C 
ENDBRANCH   4  18
BRANCH   1  20
HETATM   20  N1  UNL     1      18.979   2.152  48.865  1.00  0.00    -0.327 N 
HETATM   21  C3  UNL     1      18.938   3.557  48.810  1.00  0.00     0.221 C 
HETATM   22  O1  UNL     1      18.837   4.231  49.860  1.00  0.00    -0.273 OA
HETATM   23  H6  UNL     1      19.066   1.749  47.909  1.00  0.00     0.169 HD
BRANCH  21  24
HETATM   24  C2  UNL     1      19.000   4.441  47.630  1.00  0.00     0.098 C 
HETATM   25  C1  UNL     1      19.463   3.559  46.467  1.00  0.00     0.014 C 
ENDBRANCH  21  24
ENDBRANCH   1  20
BRANCH  11  26
HETATM   26  N4  UNL     1      27.036  -0.386  55.055  1.00  0.00    -0.383 N 
HETATM   27  H14 UNL     1      27.861  -1.025  55.026  1.00  0.00     0.157 HD
HETATM   28  H15 UNL     1      27.504  -0.534  55.978  1.00  0.00     0.157 HD
ENDBRANCH  11  26
TORSDOF 4
ENDMDL
MODEL 7
REMARK VINA RESULT:      -7.6      2.716      4.982
REMARK  4 active torsions:
REMARK  status: ('A' for Active; 'I' for Inactive)
REMARK    1  A    between atoms: C2_2  and  C3_3 
REMARK       I    between atoms: C3_3  and  N1_5 
REMARK    2  A    between atoms: N1_5  and  C4_6 
REMARK    3  A    between atoms: C7_9  and  C8_10 
REMARK    4  A    between atoms: C14_18  and  N4_19 
ROOT
HETATM    1  C4  UNL     1      22.121   5.178  49.535  1.00  0.00     0.035 A 
HETATM    2  C5  UNL     1      22.753   5.865  48.530  1.00  0.00     0.030 A 
HETATM    3  C6  UNL     1      24.107   5.855  48.296  1.00  0.00     0.010 A 
HETATM    4  C7  UNL     1      24.931   5.096  49.130  1.00  0.00    -0.046 A 
HETATM    5  C10 UNL     1      24.313   4.399  50.146  1.00  0.00    -0.002 A 
HETATM    6  C11 UNL     1      25.078   3.583  51.059  1.00  0.00     0.056 C 
HETATM    7  N2  UNL     1      26.337   3.177  50.863  1.00  0.00    -0.200 NA
HETATM    8  C12 UNL     1      26.857   2.398  51.852  1.00  0.00     0.060 C 
HETATM    9  C13 UNL     1      27.277   1.730  52.680  1.00  0.00     0.062 C 
HETATM   10  N3  UNL     1      27.771   0.901  53.679  1.00  0.00    -0.179 NA
HETATM   11  C14 UNL     1      26.924  -0.087  53.990  1.00  0.00     0.131 C 
HETATM   12  C15 UNL     1      25.600  -0.732  53.947  1.00  0.00     0.046 C 
HETATM   13  C16 UNL     1      24.375  -0.494  53.560  1.00  0.00    -0.022 C 
HETATM   14  C17 UNL     1      23.697   0.693  52.937  1.00  0.00    -0.001 C 
HETATM   15  C18 UNL     1      23.688   1.993  52.468  1.00  0.00     0.031 C 
HETATM   16  C19 UNL     1      24.650   3.080  52.372  1.00  0.00     0.066 C 
HETATM   17  C20 UNL     1      22.950   4.439  50.343  1.00  0.00     0.043 A 
ENDROOT
BRANCH   4  18
HETATM   18  C8  UNL     1      26.399   5.053  48.908  1.00  0.00     0.035 C 
HETATM   19  C9  UNL     1      26.953   6.378  48.449  1.00  0.00     0.010 C 
ENDBRANCH   4  18
BRANCH   1  20
HETATM   20  N1  UNL     1      20.739   5.165  49.786  1.00  0.00    -0.327 N 
HETATM   21  C3  UNL     1      19.754   4.303  49.272  1.00  0.00     0.221 C 
HETATM   22  O1  UNL     1      20.064   3.389  48.474  1.00  0.00    -0.273 OA
HETATM   23  H6  UNL     1      20.315   5.863  50.433  1.00  0.00     0.169 HD
BRANCH  21  24
HETATM   24  C2  UNL     1      18.302   4.292  49.534  1.00  0.00     0.098 C 
HETATM   25  C1  UNL     1      17.937   2.833  49.820  1.00  0.00     0.014 C 
ENDBRANCH  21  24
ENDBRANCH   1  20
BRANCH  11  26
HETATM   26  N4  UNL     1      27.937  -0.465  54.899  1.00  0.00    -0.383 N 
HETATM   27  H14 UNL     1      28.739  -0.278  55.542  1.00  0.00     0.157 HD
HETATM   28  H15 UNL     1      28.333  -1.316  55.361  1.00  0.00     0.157 HD
ENDBRANCH  11  26
TORSDOF 4
ENDMDL
MODEL 8
REMARK VINA RESULT:      -7.6      3.358      6.829
REMARK  4 active torsions:
REMARK  status: ('A' for Active; 'I' for Inactive)
REMARK    1  A    between atoms: C2_2  and  C3_3 
REMARK       I    between atoms: C3_3  and  N1_5 
REMARK    2  A    between atoms: N1_5  and  C4_6 
REMARK    3  A    between atoms: C7_9  and  C8_10 
REMARK    4  A    between atoms: C14_18  and  N4_19 
ROOT
HETATM    1  C4  UNL     1      24.240   2.735  50.699  1.00  0.00     0.035 A 
HETATM    2  C5  UNL     1      25.334   2.204  51.333  1.00  0.00     0.030 A 
HETATM    3  C6  UNL     1      25.289   1.224  52.296  1.00  0.00     0.010 A 
HETATM    4  C7  UNL     1      24.048   0.711  52.681  1.00  0.00    -0.046 A 
HETATM    5  C10 UNL     1      22.939   1.235  52.053  1.00  0.00    -0.002 A 
HETATM    6  C11 UNL     1      21.612   0.768  52.379  1.00  0.00     0.056 C 
HETATM    7  N2  UNL     1      21.330  -0.359  53.042  1.00  0.00    -0.200 NA
HETATM    8  C12 UNL     1      20.004  -0.611  53.223  1.00  0.00     0.060 C 
HETATM    9  C13 UNL     1      18.888  -0.822  53.354  1.00  0.00     0.062 C 
HETATM   10  N3  UNL     1      17.529  -1.081  53.488  1.00  0.00    -0.179 NA
HETATM   11  C14 UNL     1      16.867  -0.951  52.333  1.00  0.00     0.131 C 
HETATM   12  C15 UNL     1      16.765  -0.512  50.931  1.00  0.00     0.046 C 
HETATM   13  C16 UNL     1      17.418   0.190  50.044  1.00  0.00    -0.022 C 
HETATM   14  C17 UNL     1      18.703   0.968  50.080  1.00  0.00    -0.001 C 
HETATM   15  C18 UNL     1      19.813   1.471  50.731  1.00  0.00     0.031 C 
HETATM   16  C19 UNL     1      20.338   1.439  52.088  1.00  0.00     0.066 C 
HETATM   17  C20 UNL     1      23.032   2.217  51.092  1.00  0.00     0.043 A 
ENDROOT
BRANCH   4  18
HETATM   18  C8  UNL     1      23.956  -0.352  53.714  1.00  0.00     0.035 C 
HETATM   19  C9  UNL     1      25.303  -0.736  54.271  1.00  0.00     0.010 C 
ENDBRANCH   4  18
BRANCH   1  20
HETATM   20  N1  UNL     1      24.264   3.729  49.705  1.00  0.00    -0.327 N 
HETATM   21  C3  UNL     1      24.325   5.126  49.852  1.00  0.00     0.221 C 
HETATM   22  O1  UNL     1      24.370   5.643  50.992  1.00  0.00    -0.273 OA
HETATM   23  H6  UNL     1      24.235   3.466  48.698  1.00  0.00     0.169 HD
BRANCH  21  24
HETATM   24  C2  UNL     1      24.348   6.169  48.808  1.00  0.00     0.098 C 
HETATM   25  C1  UNL     1      23.715   7.411  49.441  1.00  0.00     0.014 C 
ENDBRANCH  21  24
ENDBRANCH   1  20
BRANCH  11  26
HETATM   26  N4  UNL     1      15.746  -1.325  53.108  1.00  0.00    -0.383 N 
HETATM   27  H14 UNL     1      14.781  -1.197  53.486  1.00  0.00     0.157 HD
HETATM   28  H15 UNL     1      15.426  -2.084  53.753  1.00  0.00     0.157 HD
ENDBRANCH  11  26
TORSDOF 4
ENDMDL
MODEL 9
REMARK VINA RESULT:      -7.6      2.695      4.858
REMARK  4 active torsions:
REMARK  status: ('A' for Active; 'I' for Inactive)
REMARK    1  A    between atoms: C2_2  and  C3_3 
REMARK       I    between atoms: C3_3  and  N1_5 
REMARK    2  A    between atoms: N1_5  and  C4_6 
REMARK    3  A    between atoms: C7_9  and  C8_10 
REMARK    4  A    between atoms: C14_18  and  N4_19 
ROOT
HETATM    1  C4  UNL     1      22.791   5.723  49.386  1.00  0.00     0.035 A 
HETATM    2  C5  UNL     1      23.801   6.095  48.534  1.00  0.00     0.030 A 
HETATM    3  C6  UNL     1      25.079   5.591  48.558  1.00  0.00     0.010 A 
HETATM    4  C7  UNL     1      25.407   4.625  49.513  1.00  0.00    -0.046 A 
HETATM    5  C10 UNL     1      24.404   4.241  50.376  1.00  0.00    -0.002 A 
HETATM    6  C11 UNL     1      24.643   3.246  51.396  1.00  0.00     0.056 C 
HETATM    7  N2  UNL     1      25.685   2.408  51.429  1.00  0.00    -0.200 NA
HETATM    8  C12 UNL     1      25.699   1.540  52.478  1.00  0.00     0.060 C 
HETATM    9  C13 UNL     1      25.692   0.803  53.353  1.00  0.00     0.062 C 
HETATM   10  N3  UNL     1      25.662  -0.103  54.406  1.00  0.00    -0.179 NA
HETATM   11  C14 UNL     1      24.475  -0.708  54.527  1.00  0.00     0.131 C 
HETATM   12  C15 UNL     1      23.040  -0.838  54.220  1.00  0.00     0.046 C 
HETATM   13  C16 UNL     1      22.076  -0.196  53.617  1.00  0.00    -0.022 C 
HETATM   14  C17 UNL     1      21.997   1.126  52.908  1.00  0.00    -0.001 C 
HETATM   15  C18 UNL     1      22.541   2.321  52.478  1.00  0.00     0.031 C 
HETATM   16  C19 UNL     1      23.830   2.988  52.592  1.00  0.00     0.066 C 
HETATM   17  C20 UNL     1      23.136   4.774  50.315  1.00  0.00     0.043 A 
ENDROOT
BRANCH   4  18
HETATM   18  C8  UNL     1      26.776   4.051  49.569  1.00  0.00     0.035 C 
HETATM   19  C9  UNL     1      27.742   4.767  48.660  1.00  0.00     0.010 C 
ENDBRANCH   4  18
BRANCH   1  20
HETATM   20  N1  UNL     1      21.476   6.217  49.372  1.00  0.00    -0.327 N 
HETATM   21  C3  UNL     1      21.016   7.516  49.652  1.00  0.00     0.221 C 
HETATM   22  O1  UNL     1      21.822   8.422  49.964  1.00  0.00    -0.273 OA
HETATM   23  H6  UNL     1      20.681   5.589  49.130  1.00  0.00     0.169 HD
BRANCH  21  24
HETATM   24  C2  UNL     1      19.634   8.033  49.640  1.00  0.00     0.098 C 
HETATM   25  C1  UNL     1      19.665   9.296  48.775  1.00  0.00     0.014 C 
ENDBRANCH  21  24
ENDBRANCH   1  20
BRANCH  11  26
HETATM   26  N4  UNL     1      25.099  -1.383  55.600  1.00  0.00    -0.383 N 
HETATM   27  H14 UNL     1      25.486  -2.225  56.081  1.00  0.00     0.157 HD
HETATM   28  H15 UNL     1      25.494  -1.199  56.551  1.00  0.00     0.157 HD
ENDBRANCH  11  26
TORSDOF 4
ENDMDL
