MODEL 1
REMARK VINA RESULT:      -7.6      0.000      0.000
REMARK  2 active torsions:
REMARK  status: ('A' for Active; 'I' for Inactive)
REMARK    1  A    between atoms: C5_7  and  N2_8 
REMARK    2  A    between atoms: N2_8  and  C6_9 
ROOT
HETATM    1  O1  UNL     1      29.791  -0.871  54.202  1.00  0.00    -0.265 OA
HETATM    2  C1  UNL     1      28.783  -0.112  54.148  1.00  0.00     0.267 C 
HETATM    3  C2  UNL     1      29.060   1.300  54.467  1.00  0.00     0.131 C 
HETATM    4  C3  UNL     1      28.647   2.287  53.436  1.00  0.00     0.130 C 
HETATM    5  N1  UNL     1      27.259   2.323  53.099  1.00  0.00    -0.383 N 
HETATM    6  C4  UNL     1      26.265   1.339  53.283  1.00  0.00     0.128 A 
HETATM    7  C5  UNL     1      25.019   1.898  53.106  1.00  0.00     0.160 A 
HETATM    8  N3  UNL     1      23.960   1.082  53.256  1.00  0.00    -0.222 NA
HETATM    9  C12 UNL     1      24.065  -0.225  53.565  1.00  0.00     0.238 A 
HETATM   10  N4  UNL     1      25.280  -0.819  53.748  1.00  0.00    -0.215 NA
HETATM   11  C13 UNL     1      26.372  -0.000  53.599  1.00  0.00     0.204 A 
HETATM   12  O2  UNL     1      27.570  -0.690  53.804  1.00  0.00    -0.257 OA
HETATM   13  H5  UNL     1      26.921   3.204  52.647  1.00  0.00     0.159 HD
ENDROOT
BRANCH   7  14
HETATM   14  N2  UNL     1      24.754   3.251  52.770  1.00  0.00    -0.339 N 
HETATM   15  H6  UNL     1      25.030   3.732  53.646  1.00  0.00     0.167 HD
BRANCH  14  16
HETATM   16  C6  UNL     1      24.253   3.866  51.594  1.00  0.00     0.035 A 
HETATM   17  C7  UNL     1      24.651   3.334  50.385  1.00  0.00     0.029 A 
HETATM   18  C8  UNL     1      24.170   3.938  49.244  1.00  0.00     0.004 A 
HETATM   19  C9  UNL     1      23.319   5.040  49.335  1.00  0.00     0.019 A 
HETATM   20  C10 UNL     1      22.931   5.560  50.560  1.00  0.00     0.013 A 
HETATM   21 BR1  UNL     1      21.763   7.074  50.722  1.00  0.00    -0.051 Br
HETATM   22  C11 UNL     1      23.418   4.949  51.715  1.00  0.00     0.048 A 
ENDBRANCH  14  16
ENDBRANCH   7  14
TORSDOF 2
ENDMDL
MODEL 2
REMARK VINA RESULT:      -7.4      2.281      3.824
REMARK  2 active torsions:
REMARK  status: ('A' for Active; 'I' for Inactive)
REMARK    1  A    between atoms: C5_7  and  N2_8 
REMARK    2  A    between atoms: N2_8  and  C6_9 
ROOT
HETATM    1  O1  UNL     1      22.691  -1.751  55.709  1.00  0.00    -0.265 OA
HETATM    2  C1  UNL     1      23.136  -1.159  54.686  1.00  0.00     0.267 C 
HETATM    3  C2  UNL     1      22.131  -0.907  53.638  1.00  0.00     0.131 C 
HETATM    4  C3  UNL     1      21.994   0.507  53.204  1.00  0.00     0.130 C 
HETATM    5  N1  UNL     1      23.159   1.130  52.658  1.00  0.00    -0.383 N 
HETATM    6  C4  UNL     1      24.516   0.775  52.803  1.00  0.00     0.128 A 
HETATM    7  C5  UNL     1      25.275   1.444  51.868  1.00  0.00     0.160 A 
HETATM    8  N3  UNL     1      26.598   1.206  51.875  1.00  0.00    -0.222 NA
HETATM    9  C12 UNL     1      27.198   0.361  52.735  1.00  0.00     0.238 A 
HETATM   10  N4  UNL     1      26.485  -0.322  53.678  1.00  0.00    -0.215 NA
HETATM   11  C13 UNL     1      25.131  -0.091  53.685  1.00  0.00     0.204 A 
HETATM   12  O2  UNL     1      24.483  -0.828  54.679  1.00  0.00    -0.257 OA
HETATM   13  H5  UNL     1      22.990   1.973  52.063  1.00  0.00     0.159 HD
ENDROOT
BRANCH   7  14
HETATM   14  N2  UNL     1      24.786   2.370  50.909  1.00  0.00    -0.339 N 
HETATM   15  H6  UNL     1      23.845   1.979  50.716  1.00  0.00     0.167 HD
BRANCH  14  16
HETATM   16  C6  UNL     1      25.353   3.529  50.321  1.00  0.00     0.035 A 
HETATM   17  C7  UNL     1      26.483   3.358  49.550  1.00  0.00     0.029 A 
HETATM   18  C8  UNL     1      27.036   4.487  48.987  1.00  0.00     0.004 A 
HETATM   19  C9  UNL     1      26.459   5.739  49.205  1.00  0.00     0.019 A 
HETATM   20  C10 UNL     1      25.323   5.890  49.983  1.00  0.00     0.013 A 
HETATM   21 BR1  UNL     1      24.502   7.595  50.304  1.00  0.00    -0.051 Br
HETATM   22  C11 UNL     1      24.762   4.747  50.553  1.00  0.00     0.048 A 
ENDBRANCH  14  16
ENDBRANCH   7  14
TORSDOF 2
ENDMDL
MODEL 3
REMARK VINA RESULT:      -7.3      2.299      2.959
REMARK  2 active torsions:
REMARK  status: ('A' for Active; 'I' for Inactive)
REMARK    1  A    between atoms: C5_7  and  N2_8 
REMARK    2  A    between atoms: N2_8  and  C6_9 
ROOT
HETATM    1  O1  UNL     1      29.417   0.981  54.187  1.00  0.00    -0.265 OA
HETATM    2  C1  UNL     1      28.164   0.961  54.033  1.00  0.00     0.267 C 
HETATM    3  C2  UNL     1      27.637   2.019  53.152  1.00  0.00     0.131 C 
HETATM    4  C3  UNL     1      26.811   1.554  52.008  1.00  0.00     0.130 C 
HETATM    5  N1  UNL     1      25.631   0.814  52.326  1.00  0.00    -0.383 N 
HETATM    6  C4  UNL     1      25.301   0.114  53.505  1.00  0.00     0.128 A 
HETATM    7  C5  UNL     1      23.957  -0.187  53.507  1.00  0.00     0.160 A 
HETATM    8  N3  UNL     1      23.485  -0.853  54.576  1.00  0.00    -0.222 NA
HETATM    9  C12 UNL     1      24.251  -1.228  55.618  1.00  0.00     0.238 A 
HETATM   10  N4  UNL     1      25.587  -0.950  55.657  1.00  0.00    -0.215 NA
HETATM   11  C13 UNL     1      26.086  -0.270  54.573  1.00  0.00     0.204 A 
HETATM   12  O2  UNL     1      27.457  -0.031  54.697  1.00  0.00    -0.257 OA
HETATM   13  H5  UNL     1      24.898   0.780  51.580  1.00  0.00     0.159 HD
ENDROOT
BRANCH   7  14
HETATM   14  N2  UNL     1      23.031   0.132  52.480  1.00  0.00    -0.339 N 
HETATM   15  H6  UNL     1      23.259  -0.592  51.774  1.00  0.00     0.167 HD
BRANCH  14  16
HETATM   16  C6  UNL     1      22.038   1.137  52.363  1.00  0.00     0.035 A 
HETATM   17  C7  UNL     1      20.723   0.744  52.496  1.00  0.00     0.029 A 
HETATM   18  C8  UNL     1      19.759   1.721  52.374  1.00  0.00     0.004 A 
HETATM   19  C9  UNL     1      20.125   3.045  52.126  1.00  0.00     0.019 A 
HETATM   20  C10 UNL     1      21.452   3.420  51.996  1.00  0.00     0.013 A 
HETATM   21 BR1  UNL     1      21.992   5.230  51.656  1.00  0.00    -0.051 Br
HETATM   22  C11 UNL     1      22.428   2.431  52.120  1.00  0.00     0.048 A 
ENDBRANCH  14  16
ENDBRANCH   7  14
TORSDOF 2
ENDMDL
MODEL 4
REMARK VINA RESULT:      -7.3      4.702      6.889
REMARK  2 active torsions:
REMARK  status: ('A' for Active; 'I' for Inactive)
REMARK    1  A    between atoms: C5_7  and  N2_8 
REMARK    2  A    between atoms: N2_8  and  C6_9 
ROOT
HETATM    1  O1  UNL     1      17.916  -0.047  52.656  1.00  0.00    -0.265 OA
HETATM    2  C1  UNL     1      19.173  -0.159  52.603  1.00  0.00     0.267 C 
HETATM    3  C2  UNL     1      19.754   0.085  51.270  1.00  0.00     0.131 C 
HETATM    4  C3  UNL     1      20.815   1.123  51.209  1.00  0.00     0.130 C 
HETATM    5  N1  UNL     1      21.979   0.901  52.008  1.00  0.00    -0.383 N 
HETATM    6  C4  UNL     1      22.149   0.070  53.135  1.00  0.00     0.128 A 
HETATM    7  C5  UNL     1      23.491  -0.084  53.401  1.00  0.00     0.160 A 
HETATM    8  N3  UNL     1      23.817  -0.860  54.450  1.00  0.00    -0.222 NA
HETATM    9  C12 UNL     1      22.910  -1.478  55.231  1.00  0.00     0.238 A 
HETATM   10  N4  UNL     1      21.570  -1.352  55.002  1.00  0.00    -0.215 NA
HETATM   11  C13 UNL     1      21.219  -0.563  53.935  1.00  0.00     0.204 A 
HETATM   12  O2  UNL     1      19.832  -0.490  53.777  1.00  0.00    -0.257 OA
HETATM   13  H5  UNL     1      22.836   1.429  51.723  1.00  0.00     0.159 HD
ENDROOT
BRANCH   7  14
HETATM   14  N2  UNL     1      24.557   0.510  52.677  1.00  0.00    -0.339 N 
HETATM   15  H6  UNL     1      24.080   0.763  51.792  1.00  0.00     0.167 HD
BRANCH  14  16
HETATM   16  C6  UNL     1      25.920   0.738  52.993  1.00  0.00     0.035 A 
HETATM   17  C7  UNL     1      26.298   2.036  53.263  1.00  0.00     0.029 A 
HETATM   18  C8  UNL     1      27.624   2.256  53.561  1.00  0.00     0.004 A 
HETATM   19  C9  UNL     1      28.528   1.193  53.582  1.00  0.00     0.019 A 
HETATM   20  C10 UNL     1      28.129  -0.105  53.307  1.00  0.00     0.013 A 
HETATM   21 BR1  UNL     1      29.344  -1.591  53.326  1.00  0.00    -0.051 Br
HETATM   22  C11 UNL     1      26.786  -0.328  53.005  1.00  0.00     0.048 A 
ENDBRANCH  14  16
ENDBRANCH   7  14
TORSDOF 2
ENDMDL
MODEL 5
REMARK VINA RESULT:      -7.1      2.466      3.827
REMARK  2 active torsions:
REMARK  status: ('A' for Active; 'I' for Inactive)
REMARK    1  A    between atoms: C5_7  and  N2_8 
REMARK    2  A    between atoms: N2_8  and  C6_9 
ROOT
HETATM    1  O1  UNL     1      24.454  -1.208  55.827  1.00  0.00    -0.265 OA
HETATM    2  C1  UNL     1      24.959  -0.662  54.805  1.00  0.00     0.267 C 
HETATM    3  C2  UNL     1      24.333  -1.052  53.529  1.00  0.00     0.131 C 
HETATM    4  C3  UNL     1      23.836   0.065  52.687  1.00  0.00     0.130 C 
HETATM    5  N1  UNL     1      24.801   1.031  52.264  1.00  0.00    -0.383 N 
HETATM    6  C4  UNL     1      26.066   1.332  52.809  1.00  0.00     0.128 A 
HETATM    7  C5  UNL     1      26.787   2.097  51.919  1.00  0.00     0.160 A 
HETATM    8  N3  UNL     1      28.025   2.463  52.294  1.00  0.00    -0.222 NA
HETATM    9  C12 UNL     1      28.577   2.121  53.474  1.00  0.00     0.238 A 
HETATM   10  N4  UNL     1      27.899   1.364  54.385  1.00  0.00    -0.215 NA
HETATM   11  C13 UNL     1      26.632   0.982  54.018  1.00  0.00     0.204 A 
HETATM   12  O2  UNL     1      26.014   0.214  55.009  1.00  0.00    -0.257 OA
HETATM   13  H5  UNL     1      24.539   1.604  51.429  1.00  0.00     0.159 HD
ENDROOT
BRANCH   7  14
HETATM   14  N2  UNL     1      26.335   2.542  50.648  1.00  0.00    -0.339 N 
HETATM   15  H6  UNL     1      26.207   1.639  50.155  1.00  0.00     0.167 HD
BRANCH  14  16
HETATM   16  C6  UNL     1      26.097   3.834  50.115  1.00  0.00     0.035 A 
HETATM   17  C7  UNL     1      24.857   4.392  50.342  1.00  0.00     0.029 A 
HETATM   18  C8  UNL     1      24.624   5.644  49.816  1.00  0.00     0.004 A 
HETATM   19  C9  UNL     1      25.619   6.297  49.086  1.00  0.00     0.019 A 
HETATM   20  C10 UNL     1      26.859   5.719  48.869  1.00  0.00     0.013 A 
HETATM   21 BR1  UNL     1      28.250   6.588  47.871  1.00  0.00    -0.051 Br
HETATM   22  C11 UNL     1      27.095   4.452  49.402  1.00  0.00     0.048 A 
ENDBRANCH  14  16
ENDBRANCH   7  14
TORSDOF 2
ENDMDL
MODEL 6
REMARK VINA RESULT:      -7.1      3.356      3.938
REMARK  2 active torsions:
REMARK  status: ('A' for Active; 'I' for Inactive)
REMARK    1  A    between atoms: C5_7  and  N2_8 
REMARK    2  A    between atoms: N2_8  and  C6_9 
ROOT
HETATM    1  O1  UNL     1      28.320   0.378  55.029  1.00  0.00    -0.265 OA
HETATM    2  C1  UNL     1      27.122   0.476  54.639  1.00  0.00     0.267 C 
HETATM    3  C2  UNL     1      26.852   1.634  53.768  1.00  0.00     0.131 C 
HETATM    4  C3  UNL     1      26.236   1.322  52.453  1.00  0.00     0.130 C 
HETATM    5  N1  UNL     1      24.968   0.663  52.477  1.00  0.00    -0.383 N 
HETATM    6  C4  UNL     1      24.366  -0.087  53.509  1.00  0.00     0.128 A 
HETATM    7  C5  UNL     1      23.030  -0.273  53.231  1.00  0.00     0.160 A 
HETATM    8  N3  UNL     1      22.313  -0.969  54.130  1.00  0.00    -0.222 NA
HETATM    9  C12 UNL     1      22.832  -1.480  55.263  1.00  0.00     0.238 A 
HETATM   10  N4  UNL     1      24.151  -1.320  55.577  1.00  0.00    -0.215 NA
HETATM   11  C13 UNL     1      24.899  -0.610  54.670  1.00  0.00     0.204 A 
HETATM   12  O2  UNL     1      26.232  -0.497  55.071  1.00  0.00    -0.257 OA
HETATM   13  H5  UNL     1      24.395   0.743  51.606  1.00  0.00     0.159 HD
ENDROOT
BRANCH   7  14
HETATM   14  N2  UNL     1      22.347   0.195  52.077  1.00  0.00    -0.339 N 
HETATM   15  H6  UNL     1      22.948  -0.186  51.323  1.00  0.00     0.167 HD
BRANCH  14  16
HETATM   16  C6  UNL     1      21.170   0.967  51.908  1.00  0.00     0.035 A 
HETATM   17  C7  UNL     1      21.180   2.251  52.410  1.00  0.00     0.029 A 
HETATM   18  C8  UNL     1      20.033   2.997  52.252  1.00  0.00     0.004 A 
HETATM   19  C9  UNL     1      18.921   2.452  51.608  1.00  0.00     0.019 A 
HETATM   20  C10 UNL     1      18.930   1.159  51.110  1.00  0.00     0.013 A 
HETATM   21 BR1  UNL     1      17.421   0.377  50.219  1.00  0.00    -0.051 Br
HETATM   22  C11 UNL     1      20.092   0.404  51.270  1.00  0.00     0.048 A 
ENDBRANCH  14  16
ENDBRANCH   7  14
TORSDOF 2
ENDMDL
MODEL 7
REMARK VINA RESULT:      -7.0      4.178      6.304
REMARK  2 active torsions:
REMARK  status: ('A' for Active; 'I' for Inactive)
REMARK    1  A    between atoms: C5_7  and  N2_8 
REMARK    2  A    between atoms: N2_8  and  C6_9 
ROOT
HETATM    1  O1  UNL     1      27.168   7.626  49.205  1.00  0.00    -0.265 OA
HETATM    2  C1  UNL     1      26.386   6.650  49.378  1.00  0.00     0.267 C 
HETATM    3  C2  UNL     1      26.717   5.451  48.587  1.00  0.00     0.131 C 
HETATM    4  C3  UNL     1      26.895   4.196  49.362  1.00  0.00     0.130 C 
HETATM    5  N1  UNL     1      25.775   3.749  50.130  1.00  0.00    -0.383 N 
HETATM    6  C4  UNL     1      24.658   4.475  50.592  1.00  0.00     0.128 A 
HETATM    7  C5  UNL     1      23.679   3.603  51.015  1.00  0.00     0.160 A 
HETATM    8  N3  UNL     1      22.541   4.146  51.482  1.00  0.00    -0.222 NA
HETATM    9  C12 UNL     1      22.323   5.473  51.551  1.00  0.00     0.238 A 
HETATM   10  N4  UNL     1      23.265   6.372  51.143  1.00  0.00    -0.215 NA
HETATM   11  C13 UNL     1      24.434   5.835  50.663  1.00  0.00     0.204 A 
HETATM   12  O2  UNL     1      25.339   6.825  50.270  1.00  0.00    -0.257 OA
HETATM   13  H5  UNL     1      25.777   2.736  50.393  1.00  0.00     0.159 HD
ENDROOT
BRANCH   7  14
HETATM   14  N2  UNL     1      23.769   2.186  51.013  1.00  0.00    -0.339 N 
HETATM   15  H6  UNL     1      23.586   1.976  50.014  1.00  0.00     0.167 HD
BRANCH  14  16
HETATM   16  C6  UNL     1      24.033   1.241  52.037  1.00  0.00     0.035 A 
HETATM   17  C7  UNL     1      25.354   0.994  52.344  1.00  0.00     0.029 A 
HETATM   18  C8  UNL     1      25.608   0.070  53.333  1.00  0.00     0.004 A 
HETATM   19  C9  UNL     1      24.553  -0.576  53.981  1.00  0.00     0.019 A 
HETATM   20  C10 UNL     1      23.232  -0.315  53.658  1.00  0.00     0.013 A 
HETATM   21 BR1  UNL     1      21.758  -1.184  54.527  1.00  0.00    -0.051 Br
HETATM   22  C11 UNL     1      22.975   0.621  52.656  1.00  0.00     0.048 A 
ENDBRANCH  14  16
ENDBRANCH   7  14
TORSDOF 2
ENDMDL
MODEL 8
REMARK VINA RESULT:      -7.0      2.255      2.602
REMARK  2 active torsions:
REMARK  status: ('A' for Active; 'I' for Inactive)
REMARK    1  A    between atoms: C5_7  and  N2_8 
REMARK    2  A    between atoms: N2_8  and  C6_9 
ROOT
HETATM    1  O1  UNL     1      28.247  -1.220  53.819  1.00  0.00    -0.265 OA
HETATM    2  C1  UNL     1      27.209  -0.512  53.692  1.00  0.00     0.267 C 
HETATM    3  C2  UNL     1      27.458   0.864  53.223  1.00  0.00     0.131 C 
HETATM    4  C3  UNL     1      26.711   1.275  52.006  1.00  0.00     0.130 C 
HETATM    5  N1  UNL     1      25.284   1.238  52.084  1.00  0.00    -0.383 N 
HETATM    6  C4  UNL     1      24.452   0.524  52.971  1.00  0.00     0.128 A 
HETATM    7  C5  UNL     1      23.167   1.014  52.900  1.00  0.00     0.160 A 
HETATM    8  N3  UNL     1      22.251   0.436  53.697  1.00  0.00    -0.222 NA
HETATM    9  C12 UNL     1      22.530  -0.576  54.540  1.00  0.00     0.238 A 
HETATM   10  N4  UNL     1      23.790  -1.092  54.642  1.00  0.00    -0.215 NA
HETATM   11  C13 UNL     1      24.738  -0.513  53.835  1.00  0.00     0.204 A 
HETATM   12  O2  UNL     1      25.994  -1.103  54.004  1.00  0.00    -0.257 OA
HETATM   13  H5  UNL     1      24.774   1.824  51.383  1.00  0.00     0.159 HD
ENDROOT
BRANCH   7  14
HETATM   14  N2  UNL     1      22.722   2.065  52.055  1.00  0.00    -0.339 N 
HETATM   15  H6  UNL     1      22.743   2.869  52.709  1.00  0.00     0.167 HD
BRANCH  14  16
HETATM   16  C6  UNL     1      22.337   2.099  50.691  1.00  0.00     0.035 A 
HETATM   17  C7  UNL     1      21.752   0.964  50.171  1.00  0.00     0.029 A 
HETATM   18  C8  UNL     1      21.387   0.997  48.843  1.00  0.00     0.004 A 
HETATM   19  C9  UNL     1      21.612   2.143  48.078  1.00  0.00     0.019 A 
HETATM   20  C10 UNL     1      22.201   3.273  48.619  1.00  0.00     0.013 A 
HETATM   21 BR1  UNL     1      22.525   4.866  47.598  1.00  0.00    -0.051 Br
HETATM   22  C11 UNL     1      22.571   3.241  49.964  1.00  0.00     0.048 A 
ENDBRANCH  14  16
ENDBRANCH   7  14
TORSDOF 2
ENDMDL
MODEL 9
REMARK VINA RESULT:      -6.9      2.044      2.399
REMARK  2 active torsions:
REMARK  status: ('A' for Active; 'I' for Inactive)
REMARK    1  A    between atoms: C5_7  and  N2_8 
REMARK    2  A    between atoms: N2_8  and  C6_9 
ROOT
HETATM    1  O1  UNL     1      27.919  -0.355  54.995  1.00  0.00    -0.265 OA
HETATM    2  C1  UNL     1      27.108   0.332  54.313  1.00  0.00     0.267 C 
HETATM    3  C2  UNL     1      27.607   1.664  53.925  1.00  0.00     0.131 C 
HETATM    4  C3  UNL     1      27.580   1.964  52.471  1.00  0.00     0.130 C 
HETATM    5  N1  UNL     1      26.304   1.923  51.829  1.00  0.00    -0.383 N 
HETATM    6  C4  UNL     1      25.116   1.282  52.234  1.00  0.00     0.128 A 
HETATM    7  C5  UNL     1      24.055   1.754  51.493  1.00  0.00     0.160 A 
HETATM    8  N3  UNL     1      22.844   1.239  51.768  1.00  0.00    -0.222 NA
HETATM    9  C12 UNL     1      22.629   0.304  52.714  1.00  0.00     0.238 A 
HETATM   10  N4  UNL     1      23.651  -0.192  53.471  1.00  0.00    -0.215 NA
HETATM   11  C13 UNL     1      24.896   0.324  53.203  1.00  0.00     0.204 A 
HETATM   12  O2  UNL     1      25.878  -0.240  54.021  1.00  0.00    -0.257 OA
HETATM   13  H5  UNL     1      26.232   2.443  50.924  1.00  0.00     0.159 HD
ENDROOT
BRANCH   7  14
HETATM   14  N2  UNL     1      24.128   2.725  50.460  1.00  0.00    -0.339 N 
HETATM   15  H6  UNL     1      23.896   2.150  49.630  1.00  0.00     0.167 HD
BRANCH  14  16
HETATM   16  C6  UNL     1      24.427   4.111  50.468  1.00  0.00     0.035 A 
HETATM   17  C7  UNL     1      23.688   4.912  51.314  1.00  0.00     0.029 A 
HETATM   18  C8  UNL     1      23.974   6.259  51.314  1.00  0.00     0.004 A 
HETATM   19  C9  UNL     1      24.973   6.768  50.483  1.00  0.00     0.019 A 
HETATM   20  C10 UNL     1      25.705   5.947  49.640  1.00  0.00     0.013 A 
HETATM   21 BR1  UNL     1      27.086   6.611  48.484  1.00  0.00    -0.051 Br
HETATM   22  C11 UNL     1      25.416   4.582  49.640  1.00  0.00     0.048 A 
ENDBRANCH  14  16
ENDBRANCH   7  14
TORSDOF 2
ENDMDL
