MODEL 1
REMARK VINA RESULT:      -8.3      0.000      0.000
REMARK  5 active torsions:
REMARK  status: ('A' for Active; 'I' for Inactive)
REMARK    1  A    between atoms: C1_2  and  C2_3 
REMARK       I    between atoms: C1_2  and  N2_12 
REMARK    2  A    between atoms: C2_3  and  C3_4 
REMARK    3  A    between atoms: C3_4  and  C4_5 
REMARK    4  A    between atoms: C14_19  and  N4_20 
REMARK    5  A    between atoms: N4_20  and  C15_21 
ROOT
HETATM    1  O1  UNL     1      21.614   1.076  49.944  1.00  0.00    -0.273 OA
HETATM    2  C1  UNL     1      20.966   0.906  51.010  1.00  0.00     0.227 C 
HETATM    3  N2  UNL     1      21.559   0.262  52.118  1.00  0.00    -0.303 N 
HETATM    4  C9  UNL     1      20.797  -0.131  53.271  1.00  0.00     0.100 A 
HETATM    5  C10 UNL     1      21.186  -0.637  54.399  1.00  0.00     0.031 A 
HETATM    6  C11 UNL     1      22.606  -0.879  54.594  1.00  0.00    -0.003 A 
HETATM    7  C12 UNL     1      23.167  -1.404  55.662  1.00  0.00     0.129 C 
HETATM    8  N3  UNL     1      24.616  -1.535  55.605  1.00  0.00    -0.255 NA
HETATM    9  C13 UNL     1      25.201  -0.635  54.861  1.00  0.00     0.115 C 
HETATM   10  C14 UNL     1      24.894  -0.715  53.548  1.00  0.00     0.076 C 
HETATM   11  C21 UNL     1      23.454  -0.496  53.432  1.00  0.00     0.021 A 
HETATM   12  C22 UNL     1      22.953   0.027  52.316  1.00  0.00     0.114 A 
ENDROOT
BRANCH   2  13
HETATM   13  C2  UNL     1      19.574   1.367  51.190  1.00  0.00     0.105 C 
BRANCH  13  14
HETATM   14  C3  UNL     1      19.337   2.697  51.767  1.00  0.00     0.029 C 
BRANCH  14  15
HETATM   15  C4  UNL     1      19.898   3.792  50.801  1.00  0.00     0.118 C 
HETATM   16  N1  UNL     1      20.964   4.425  51.153  1.00  0.00    -0.406 N 
HETATM   17  C5  UNL     1      21.856   5.145  49.972  1.00  0.00     0.152 C 
HETATM   18  C8  UNL     1      21.775   4.559  52.278  1.00  0.00     0.136 A 
HETATM   19  C6  UNL     1      22.698   4.497  50.640  1.00  0.00    -0.057 A 
HETATM   20  P1  UNL     1      23.534   3.821  51.329  1.00  0.00    -0.103 P 
HETATM   21  C7  UNL     1      23.585   3.780  51.372  1.00  0.00     0.081 A 
HETATM   22  H9  UNL     1      24.927   2.664  52.431  1.00  0.00     0.059 HD
ENDBRANCH  14  15
ENDBRANCH  13  14
ENDBRANCH   2  13
BRANCH  10  23
HETATM   23  N4  UNL     1      25.703  -1.003  52.414  1.00  0.00    -0.353 N 
HETATM   24  H17 UNL     1      25.492  -1.732  51.692  1.00  0.00     0.166 HD
BRANCH  23  25
HETATM   25  C15 UNL     1      26.634   0.041  52.816  1.00  0.00     0.034 A 
HETATM   26  C16 UNL     1      26.339   1.377  52.831  1.00  0.00     0.032 A 
HETATM   27  C17 UNL     1      27.306   2.324  53.166  1.00  0.00     0.046 A 
HETATM   28  C18 UNL     1      28.525   1.815  53.466  1.00  0.00     0.138 A 
HETATM   29  F1  UNL     1      29.438   2.778  53.781  1.00  0.00    -0.204 F 
HETATM   30  C19 UNL     1      28.998   0.494  53.500  1.00  0.00     0.074 A 
HETATM   31 CL1  UNL     1      30.600   0.001  53.904  1.00  0.00    -0.081 Cl
HETATM   32  C20 UNL     1      27.920  -0.340  53.144  1.00  0.00     0.056 A 
ENDBRANCH  23  25
ENDBRANCH  10  23
TORSDOF 5
ENDMDL
MODEL 2
REMARK VINA RESULT:      -8.3      3.059      4.742
REMARK  5 active torsions:
REMARK  status: ('A' for Active; 'I' for Inactive)
REMARK    1  A    between atoms: C1_2  and  C2_3 
REMARK       I    between atoms: C1_2  and  N2_12 
REMARK    2  A    between atoms: C2_3  and  C3_4 
REMARK    3  A    between atoms: C3_4  and  C4_5 
REMARK    4  A    between atoms: C14_19  and  N4_20 
REMARK    5  A    between atoms: N4_20  and  C15_21 
ROOT
HETATM    1  O1  UNL     1      21.164   0.431  53.229  1.00  0.00    -0.273 OA
HETATM    2  C1  UNL     1      21.166   0.780  52.019  1.00  0.00     0.227 C 
HETATM    3  N2  UNL     1      22.249   1.511  51.484  1.00  0.00    -0.303 N 
HETATM    4  C9  UNL     1      22.199   2.101  50.174  1.00  0.00     0.100 A 
HETATM    5  C10 UNL     1      23.119   2.714  49.496  1.00  0.00     0.031 A 
HETATM    6  C11 UNL     1      24.432   2.871  50.099  1.00  0.00    -0.003 A 
HETATM    7  C12 UNL     1      25.466   3.483  49.564  1.00  0.00     0.129 C 
HETATM    8  N3  UNL     1      26.673   3.497  50.379  1.00  0.00    -0.255 NA
HETATM    9  C13 UNL     1      26.786   2.470  51.178  1.00  0.00     0.115 C 
HETATM   10  C14 UNL     1      25.838   2.409  52.140  1.00  0.00     0.076 C 
HETATM   11  C21 UNL     1      24.550   2.284  51.463  1.00  0.00     0.021 A 
HETATM   12  C22 UNL     1      23.541   1.665  52.070  1.00  0.00     0.114 A 
ENDROOT
BRANCH   2  13
HETATM   13  C2  UNL     1      20.073   0.450  51.082  1.00  0.00     0.105 C 
BRANCH  13  14
HETATM   14  C3  UNL     1      18.684   0.669  51.507  1.00  0.00     0.029 C 
BRANCH  14  15
HETATM   15  C4  UNL     1      18.371   2.202  51.496  1.00  0.00     0.118 C 
HETATM   16  N1  UNL     1      17.172   2.576  51.206  1.00  0.00    -0.406 N 
HETATM   17  C5  UNL     1      16.689   4.066  51.711  1.00  0.00     0.152 C 
HETATM   18  C8  UNL     1      15.992   2.014  50.725  1.00  0.00     0.136 A 
HETATM   19  C6  UNL     1      15.761   3.302  52.075  1.00  0.00    -0.057 A 
HETATM   20  P1  UNL     1      14.835   2.505  52.445  1.00  0.00    -0.103 P 
HETATM   21  C7  UNL     1      14.778   2.455  52.466  1.00  0.00     0.081 A 
HETATM   22  H9  UNL     1      13.313   1.187  53.109  1.00  0.00     0.059 HD
ENDBRANCH  14  15
ENDBRANCH  13  14
ENDBRANCH   2  13
BRANCH  10  23
HETATM   23  N4  UNL     1      25.937   2.492  53.557  1.00  0.00    -0.353 N 
HETATM   24  H17 UNL     1      25.339   3.097  54.168  1.00  0.00     0.166 HD
BRANCH  23  25
HETATM   25  C15 UNL     1      27.012   1.511  53.537  1.00  0.00     0.034 A 
HETATM   26  C16 UNL     1      28.324   1.795  53.802  1.00  0.00     0.032 A 
HETATM   27  C17 UNL     1      29.309   0.813  53.699  1.00  0.00     0.046 A 
HETATM   28  C18 UNL     1      28.860  -0.409  53.326  1.00  0.00     0.138 A 
HETATM   29  F1  UNL     1      29.858  -1.333  53.233  1.00  0.00    -0.204 F 
HETATM   30  C19 UNL     1      27.571  -0.873  53.019  1.00  0.00     0.074 A 
HETATM   31 CL1  UNL     1      27.156  -2.480  52.551  1.00  0.00    -0.081 Cl
HETATM   32  C20 UNL     1      26.693   0.219  53.166  1.00  0.00     0.056 A 
ENDBRANCH  23  25
ENDBRANCH  10  23
TORSDOF 5
ENDMDL
MODEL 3
REMARK VINA RESULT:      -8.1      2.490      4.668
REMARK  5 active torsions:
REMARK  status: ('A' for Active; 'I' for Inactive)
REMARK    1  A    between atoms: C1_2  and  C2_3 
REMARK       I    between atoms: C1_2  and  N2_12 
REMARK    2  A    between atoms: C2_3  and  C3_4 
REMARK    3  A    between atoms: C3_4  and  C4_5 
REMARK    4  A    between atoms: C14_19  and  N4_20 
REMARK    5  A    between atoms: N4_20  and  C15_21 
ROOT
HETATM    1  O1  UNL     1      20.609   3.722  52.692  1.00  0.00    -0.273 OA
HETATM    2  C1  UNL     1      20.879   4.151  51.539  1.00  0.00     0.227 C 
HETATM    3  N2  UNL     1      22.216   4.213  51.090  1.00  0.00    -0.303 N 
HETATM    4  C9  UNL     1      22.582   4.880  49.871  1.00  0.00     0.100 A 
HETATM    5  C10 UNL     1      23.728   4.952  49.267  1.00  0.00     0.031 A 
HETATM    6  C11 UNL     1      24.868   4.280  49.867  1.00  0.00    -0.003 A 
HETATM    7  C12 UNL     1      26.099   4.271  49.403  1.00  0.00     0.129 C 
HETATM    8  N3  UNL     1      27.059   3.515  50.196  1.00  0.00    -0.255 NA
HETATM    9  C13 UNL     1      26.535   2.513  50.850  1.00  0.00     0.115 C 
HETATM   10  C14 UNL     1      25.654   2.876  51.808  1.00  0.00     0.076 C 
HETATM   11  C21 UNL     1      24.557   3.571  51.139  1.00  0.00     0.021 A 
HETATM   12  C22 UNL     1      23.339   3.551  51.673  1.00  0.00     0.114 A 
ENDROOT
BRANCH   2  13
HETATM   13  C2  UNL     1      19.847   4.598  50.582  1.00  0.00     0.105 C 
BRANCH  13  14
HETATM   14  C3  UNL     1      19.436   3.686  49.506  1.00  0.00     0.029 C 
BRANCH  14  15
HETATM   15  C4  UNL     1      18.680   2.462  50.121  1.00  0.00     0.118 C 
HETATM   16  N1  UNL     1      19.300   1.334  50.185  1.00  0.00    -0.406 N 
HETATM   17  C5  UNL     1      18.771   0.226  51.281  1.00  0.00     0.152 C 
HETATM   18  C8  UNL     1      20.484   0.766  49.719  1.00  0.00     0.136 A 
HETATM   19  C6  UNL     1      20.010   0.279  51.472  1.00  0.00    -0.057 A 
HETATM   20  P1  UNL     1      21.271   0.357  51.656  1.00  0.00    -0.103 P 
HETATM   21  C7  UNL     1      21.349   0.362  51.665  1.00  0.00     0.081 A 
HETATM   22  H9  UNL     1      23.356   0.513  52.006  1.00  0.00     0.059 HD
ENDBRANCH  14  15
ENDBRANCH  13  14
ENDBRANCH   2  13
BRANCH  10  23
HETATM   23  N4  UNL     1      25.694   2.723  53.222  1.00  0.00    -0.353 N 
HETATM   24  H17 UNL     1      25.442   3.466  53.916  1.00  0.00     0.166 HD
BRANCH  23  25
HETATM   25  C15 UNL     1      26.134   1.345  53.058  1.00  0.00     0.034 A 
HETATM   26  C16 UNL     1      25.305   0.298  52.764  1.00  0.00     0.032 A 
HETATM   27  C17 UNL     1      25.791  -1.007  52.688  1.00  0.00     0.046 A 
HETATM   28  C18 UNL     1      27.119  -1.136  52.922  1.00  0.00     0.138 A 
HETATM   29  F1  UNL     1      27.547  -2.428  52.842  1.00  0.00    -0.204 F 
HETATM   30  C19 UNL     1      28.105  -0.187  53.234  1.00  0.00     0.074 A 
HETATM   31 CL1  UNL     1      29.775  -0.513  53.511  1.00  0.00    -0.081 Cl
HETATM   32  C20 UNL     1      27.470   1.070  53.275  1.00  0.00     0.056 A 
ENDBRANCH  23  25
ENDBRANCH  10  23
TORSDOF 5
ENDMDL
MODEL 4
REMARK VINA RESULT:      -8.1      3.357      5.235
REMARK  5 active torsions:
REMARK  status: ('A' for Active; 'I' for Inactive)
REMARK    1  A    between atoms: C1_2  and  C2_3 
REMARK       I    between atoms: C1_2  and  N2_12 
REMARK    2  A    between atoms: C2_3  and  C3_4 
REMARK    3  A    between atoms: C3_4  and  C4_5 
REMARK    4  A    between atoms: C14_19  and  N4_20 
REMARK    5  A    between atoms: N4_20  and  C15_21 
ROOT
HETATM    1  O1  UNL     1      21.295   0.332  53.459  1.00  0.00    -0.273 OA
HETATM    2  C1  UNL     1      21.258   0.668  52.246  1.00  0.00     0.227 C 
HETATM    3  N2  UNL     1      22.313   1.412  51.674  1.00  0.00    -0.303 N 
HETATM    4  C9  UNL     1      22.218   1.987  50.361  1.00  0.00     0.100 A 
HETATM    5  C10 UNL     1      23.109   2.608  49.652  1.00  0.00     0.031 A 
HETATM    6  C11 UNL     1      24.435   2.793  50.218  1.00  0.00    -0.003 A 
HETATM    7  C12 UNL     1      25.444   3.416  49.648  1.00  0.00     0.129 C 
HETATM    8  N3  UNL     1      26.672   3.459  50.430  1.00  0.00    -0.255 NA
HETATM    9  C13 UNL     1      26.824   2.442  51.236  1.00  0.00     0.115 C 
HETATM   10  C14 UNL     1      25.904   2.375  52.223  1.00  0.00     0.076 C 
HETATM   11  C21 UNL     1      24.600   2.222  51.583  1.00  0.00     0.021 A 
HETATM   12  C22 UNL     1      23.619   1.593  52.223  1.00  0.00     0.114 A 
ENDROOT
BRANCH   2  13
HETATM   13  C2  UNL     1      20.146   0.310  51.342  1.00  0.00     0.105 C 
BRANCH  13  14
HETATM   14  C3  UNL     1      18.828   0.919  51.565  1.00  0.00     0.029 C 
BRANCH  14  15
HETATM   15  C4  UNL     1      17.742   0.117  50.774  1.00  0.00     0.118 C 
HETATM   16  N1  UNL     1      16.818  -0.480  51.446  1.00  0.00    -0.406 N 
HETATM   17  C5  UNL     1      15.414  -0.841  50.667  1.00  0.00     0.152 C 
HETATM   18  C8  UNL     1      16.523  -0.783  52.773  1.00  0.00     0.136 A 
HETATM   19  C6  UNL     1      15.042  -0.282  51.728  1.00  0.00    -0.057 A 
HETATM   20  P1  UNL     1      14.688   0.299  52.808  1.00  0.00    -0.103 P 
HETATM   21  C7  UNL     1      14.667   0.334  52.876  1.00  0.00     0.081 A 
HETATM   22  H9  UNL     1      14.087   1.306  54.574  1.00  0.00     0.059 HD
ENDBRANCH  14  15
ENDBRANCH  13  14
ENDBRANCH   2  13
BRANCH  10  23
HETATM   23  N4  UNL     1      26.039   2.474  53.636  1.00  0.00    -0.353 N 
HETATM   24  H17 UNL     1      25.458   3.087  54.255  1.00  0.00     0.166 HD
BRANCH  23  25
HETATM   25  C15 UNL     1      27.112   1.491  53.600  1.00  0.00     0.034 A 
HETATM   26  C16 UNL     1      28.428   1.773  53.844  1.00  0.00     0.032 A 
HETATM   27  C17 UNL     1      29.410   0.790  53.726  1.00  0.00     0.046 A 
HETATM   28  C18 UNL     1      28.954  -0.431  53.360  1.00  0.00     0.138 A 
HETATM   29  F1  UNL     1      29.948  -1.357  53.251  1.00  0.00    -0.204 F 
HETATM   30  C19 UNL     1      27.660  -0.893  53.073  1.00  0.00     0.074 A 
HETATM   31 CL1  UNL     1      27.235  -2.499  52.611  1.00  0.00    -0.081 Cl
HETATM   32  C20 UNL     1      26.786   0.200  53.234  1.00  0.00     0.056 A 
ENDBRANCH  23  25
ENDBRANCH  10  23
TORSDOF 5
ENDMDL
MODEL 5
REMARK VINA RESULT:      -8.1      2.626      4.014
REMARK  5 active torsions:
REMARK  status: ('A' for Active; 'I' for Inactive)
REMARK    1  A    between atoms: C1_2  and  C2_3 
REMARK       I    between atoms: C1_2  and  N2_12 
REMARK    2  A    between atoms: C2_3  and  C3_4 
REMARK    3  A    between atoms: C3_4  and  C4_5 
REMARK    4  A    between atoms: C14_19  and  N4_20 
REMARK    5  A    between atoms: N4_20  and  C15_21 
ROOT
HETATM    1  O1  UNL     1      21.230   0.287  53.256  1.00  0.00    -0.273 OA
HETATM    2  C1  UNL     1      21.227   0.635  52.046  1.00  0.00     0.227 C 
HETATM    3  N2  UNL     1      22.293   1.393  51.513  1.00  0.00    -0.303 N 
HETATM    4  C9  UNL     1      22.232   1.980  50.203  1.00  0.00     0.100 A 
HETATM    5  C10 UNL     1      23.138   2.615  49.527  1.00  0.00     0.031 A 
HETATM    6  C11 UNL     1      24.444   2.808  50.135  1.00  0.00    -0.003 A 
HETATM    7  C12 UNL     1      25.465   3.445  49.603  1.00  0.00     0.129 C 
HETATM    8  N3  UNL     1      26.668   3.492  50.422  1.00  0.00    -0.255 NA
HETATM    9  C13 UNL     1      26.805   2.469  51.223  1.00  0.00     0.115 C 
HETATM   10  C14 UNL     1      25.855   2.384  52.181  1.00  0.00     0.076 C 
HETATM   11  C21 UNL     1      24.573   2.225  51.500  1.00  0.00     0.021 A 
HETATM   12  C22 UNL     1      23.579   1.581  52.104  1.00  0.00     0.114 A 
ENDROOT
BRANCH   2  13
HETATM   13  C2  UNL     1      20.147   0.275  51.105  1.00  0.00     0.105 C 
BRANCH  13  14
HETATM   14  C3  UNL     1      18.752   0.375  51.556  1.00  0.00     0.029 C 
BRANCH  14  15
HETATM   15  C4  UNL     1      17.914   1.155  50.490  1.00  0.00     0.118 C 
HETATM   16  N1  UNL     1      17.806   2.433  50.617  1.00  0.00    -0.406 N 
HETATM   17  C5  UNL     1      17.428   3.310  49.276  1.00  0.00     0.152 C 
HETATM   18  C8  UNL     1      18.108   3.417  51.555  1.00  0.00     0.136 A 
HETATM   19  C6  UNL     1      18.416   3.909  49.767  1.00  0.00    -0.057 A 
HETATM   20  P1  UNL     1      19.429   4.495  50.277  1.00  0.00    -0.103 P 
HETATM   21  C7  UNL     1      19.490   4.531  50.310  1.00  0.00     0.081 A 
HETATM   22  H9  UNL     1      21.139   5.451  51.086  1.00  0.00     0.059 HD
ENDBRANCH  14  15
ENDBRANCH  13  14
ENDBRANCH   2  13
BRANCH  10  23
HETATM   23  N4  UNL     1      25.946   2.471  53.598  1.00  0.00    -0.353 N 
HETATM   24  H17 UNL     1      25.335   3.065  54.206  1.00  0.00     0.166 HD
BRANCH  23  25
HETATM   25  C15 UNL     1      27.041   1.512  53.584  1.00  0.00     0.034 A 
HETATM   26  C16 UNL     1      28.347   1.824  53.847  1.00  0.00     0.032 A 
HETATM   27  C17 UNL     1      29.352   0.862  53.749  1.00  0.00     0.046 A 
HETATM   28  C18 UNL     1      28.928  -0.372  53.384  1.00  0.00     0.138 A 
HETATM   29  F1  UNL     1      29.944  -1.276  53.296  1.00  0.00    -0.204 F 
HETATM   30  C19 UNL     1      27.649  -0.863  53.081  1.00  0.00     0.074 A 
HETATM   31 CL1  UNL     1      27.266  -2.481  52.623  1.00  0.00    -0.081 Cl
HETATM   32  C20 UNL     1      26.748   0.212  53.222  1.00  0.00     0.056 A 
ENDBRANCH  23  25
ENDBRANCH  10  23
TORSDOF 5
ENDMDL
MODEL 6
REMARK VINA RESULT:      -8.0      5.409      7.472
REMARK  5 active torsions:
REMARK  status: ('A' for Active; 'I' for Inactive)
REMARK    1  A    between atoms: C1_2  and  C2_3 
REMARK       I    between atoms: C1_2  and  N2_12 
REMARK    2  A    between atoms: C2_3  and  C3_4 
REMARK    3  A    between atoms: C3_4  and  C4_5 
REMARK    4  A    between atoms: C14_19  and  N4_20 
REMARK    5  A    between atoms: N4_20  and  C15_21 
ROOT
HETATM    1  O1  UNL     1      24.780   4.996  49.956  1.00  0.00    -0.273 OA
HETATM    2  C1  UNL     1      25.677   4.117  50.038  1.00  0.00     0.227 C 
HETATM    3  N2  UNL     1      25.520   3.009  50.900  1.00  0.00    -0.303 N 
HETATM    4  C9  UNL     1      26.596   2.097  51.176  1.00  0.00     0.100 A 
HETATM    5  C10 UNL     1      26.604   0.993  51.855  1.00  0.00     0.031 A 
HETATM    6  C11 UNL     1      25.364   0.549  52.468  1.00  0.00    -0.003 A 
HETATM    7  C12 UNL     1      25.200  -0.529  53.204  1.00  0.00     0.129 C 
HETATM    8  N3  UNL     1      23.848  -0.748  53.697  1.00  0.00    -0.255 NA
HETATM    9  C13 UNL     1      22.914  -0.266  52.921  1.00  0.00     0.115 C 
HETATM   10  C14 UNL     1      22.923   1.081  52.813  1.00  0.00     0.076 C 
HETATM   11  C21 UNL     1      24.206   1.454  52.223  1.00  0.00     0.021 A 
HETATM   12  C22 UNL     1      24.303   2.567  51.501  1.00  0.00     0.114 A 
ENDROOT
BRANCH   2  13
HETATM   13  C2  UNL     1      26.926   4.160  49.251  1.00  0.00     0.105 C 
BRANCH  13  14
HETATM   14  C3  UNL     1      27.281   5.403  48.553  1.00  0.00     0.029 C 
BRANCH  14  15
HETATM   15  C4  UNL     1      28.832   5.473  48.368  1.00  0.00     0.118 C 
HETATM   16  N1  UNL     1      29.345   6.578  47.947  1.00  0.00    -0.406 N 
HETATM   17  C5  UNL     1      30.936   6.856  48.263  1.00  0.00     0.152 C 
HETATM   18  C8  UNL     1      28.915   7.797  47.427  1.00  0.00     0.136 A 
HETATM   19  C6  UNL     1      30.362   7.913  48.623  1.00  0.00    -0.057 A 
HETATM   20  P1  UNL     1      29.755   8.974  48.992  1.00  0.00    -0.103 P 
HETATM   21  C7  UNL     1      29.717   9.039  49.013  1.00  0.00     0.081 A 
HETATM   22  H9  UNL     1      28.756  10.722  49.654  1.00  0.00     0.059 HD
ENDBRANCH  14  15
ENDBRANCH  13  14
ENDBRANCH   2  13
BRANCH  10  23
HETATM   23  N4  UNL     1      21.966   2.057  53.207  1.00  0.00    -0.353 N 
HETATM   24  H17 UNL     1      22.160   2.873  53.834  1.00  0.00     0.166 HD
BRANCH  23  25
HETATM   25  C15 UNL     1      20.953   1.381  52.410  1.00  0.00     0.034 A 
HETATM   26  C16 UNL     1      20.760   1.582  51.071  1.00  0.00     0.032 A 
HETATM   27  C17 UNL     1      19.724   0.946  50.388  1.00  0.00     0.046 A 
HETATM   28  C18 UNL     1      18.951   0.135  51.150  1.00  0.00     0.138 A 
HETATM   29  F1  UNL     1      17.949  -0.459  50.442  1.00  0.00    -0.204 F 
HETATM   30  C19 UNL     1      19.002  -0.183  52.516  1.00  0.00     0.074 A 
HETATM   31 CL1  UNL     1      17.930  -1.245  53.350  1.00  0.00    -0.081 Cl
HETATM   32  C20 UNL     1      20.088   0.526  53.065  1.00  0.00     0.056 A 
ENDBRANCH  23  25
ENDBRANCH  10  23
TORSDOF 5
ENDMDL
MODEL 7
REMARK VINA RESULT:      -7.9      2.602      3.581
REMARK  5 active torsions:
REMARK  status: ('A' for Active; 'I' for Inactive)
REMARK    1  A    between atoms: C1_2  and  C2_3 
REMARK       I    between atoms: C1_2  and  N2_12 
REMARK    2  A    between atoms: C2_3  and  C3_4 
REMARK    3  A    between atoms: C3_4  and  C4_5 
REMARK    4  A    between atoms: C14_19  and  N4_20 
REMARK    5  A    between atoms: N4_20  and  C15_21 
ROOT
HETATM    1  O1  UNL     1      21.283   2.216  50.533  1.00  0.00    -0.273 OA
HETATM    2  C1  UNL     1      20.712   1.825  51.585  1.00  0.00     0.227 C 
HETATM    3  N2  UNL     1      21.377   0.967  52.488  1.00  0.00    -0.303 N 
HETATM    4  C9  UNL     1      20.696   0.339  53.586  1.00  0.00     0.100 A 
HETATM    5  C10 UNL     1      21.160  -0.389  54.554  1.00  0.00     0.031 A 
HETATM    6  C11 UNL     1      22.587  -0.660  54.590  1.00  0.00    -0.003 A 
HETATM    7  C12 UNL     1      23.219  -1.393  55.481  1.00  0.00     0.129 C 
HETATM    8  N3  UNL     1      24.658  -1.503  55.293  1.00  0.00    -0.255 NA
HETATM    9  C13 UNL     1      25.198  -0.464  54.712  1.00  0.00     0.115 C 
HETATM   10  C14 UNL     1      24.795  -0.271  53.436  1.00  0.00     0.076 C 
HETATM   11  C21 UNL     1      23.354  -0.039  53.474  1.00  0.00     0.021 A 
HETATM   12  C22 UNL     1      22.779   0.702  52.531  1.00  0.00     0.114 A 
ENDROOT
BRANCH   2  13
HETATM   13  C2  UNL     1      19.341   2.232  51.958  1.00  0.00     0.105 C 
BRANCH  13  14
HETATM   14  C3  UNL     1      18.534   2.979  50.985  1.00  0.00     0.029 C 
BRANCH  14  15
HETATM   15  C4  UNL     1      17.326   3.651  51.716  1.00  0.00     0.118 C 
HETATM   16  N1  UNL     1      16.155   3.135  51.558  1.00  0.00    -0.406 N 
HETATM   17  C5  UNL     1      15.013   3.455  52.699  1.00  0.00     0.152 C 
HETATM   18  C8  UNL     1      15.541   2.165  50.768  1.00  0.00     0.136 A 
HETATM   19  C6  UNL     1      14.966   2.208  52.558  1.00  0.00    -0.057 A 
HETATM   20  P1  UNL     1      14.943   0.940  52.406  1.00  0.00    -0.103 P 
HETATM   21  C7  UNL     1      14.942   0.863  52.395  1.00  0.00     0.081 A 
HETATM   22  H9  UNL     1      14.928  -1.169  52.200  1.00  0.00     0.059 HD
ENDBRANCH  14  15
ENDBRANCH  13  14
ENDBRANCH   2  13
BRANCH  10  23
HETATM   23  N4  UNL     1      25.517  -0.313  52.211  1.00  0.00    -0.353 N 
HETATM   24  H17 UNL     1      25.160  -0.721  51.315  1.00  0.00     0.166 HD
BRANCH  23  25
HETATM   25  C15 UNL     1      26.635   0.367  52.849  1.00  0.00     0.034 A 
HETATM   26  C16 UNL     1      26.660   1.701  53.151  1.00  0.00     0.032 A 
HETATM   27  C17 UNL     1      27.795   2.294  53.703  1.00  0.00     0.046 A 
HETATM   28  C18 UNL     1      28.837   1.453  53.908  1.00  0.00     0.138 A 
HETATM   29  F1  UNL     1      29.924   2.078  54.442  1.00  0.00    -0.204 F 
HETATM   30  C19 UNL     1      28.985   0.080  53.661  1.00  0.00     0.074 A 
HETATM   31 CL1  UNL     1      30.395  -0.861  53.978  1.00  0.00    -0.081 Cl
HETATM   32  C20 UNL     1      27.770  -0.375  53.110  1.00  0.00     0.056 A 
ENDBRANCH  23  25
ENDBRANCH  10  23
TORSDOF 5
ENDMDL
MODEL 8
REMARK VINA RESULT:      -7.9      3.659      7.345
REMARK  5 active torsions:
REMARK  status: ('A' for Active; 'I' for Inactive)
REMARK    1  A    between atoms: C1_2  and  C2_3 
REMARK       I    between atoms: C1_2  and  N2_12 
REMARK    2  A    between atoms: C2_3  and  C3_4 
REMARK    3  A    between atoms: C3_4  and  C4_5 
REMARK    4  A    between atoms: C14_19  and  N4_20 
REMARK    5  A    between atoms: N4_20  and  C15_21 
ROOT
HETATM    1  O1  UNL     1      24.708   3.018  53.500  1.00  0.00    -0.273 OA
HETATM    2  C1  UNL     1      23.603   2.699  52.989  1.00  0.00     0.227 C 
HETATM    3  N2  UNL     1      22.829   3.656  52.297  1.00  0.00    -0.303 N 
HETATM    4  C9  UNL     1      21.480   3.390  51.879  1.00  0.00     0.100 A 
HETATM    5  C10 UNL     1      20.668   4.104  51.163  1.00  0.00     0.031 A 
HETATM    6  C11 UNL     1      21.128   5.394  50.678  1.00  0.00    -0.003 A 
HETATM    7  C12 UNL     1      20.432   6.250  49.962  1.00  0.00     0.129 C 
HETATM    8  N3  UNL     1      21.131   7.475  49.600  1.00  0.00    -0.255 NA
HETATM    9  C13 UNL     1      22.425   7.333  49.483  1.00  0.00     0.115 C 
HETATM   10  C14 UNL     1      23.055   7.020  50.637  1.00  0.00     0.076 C 
HETATM   11  C21 UNL     1      22.521   5.734  51.080  1.00  0.00     0.021 A 
HETATM   12  C22 UNL     1      23.277   4.923  51.814  1.00  0.00     0.114 A 
ENDROOT
BRANCH   2  13
HETATM   13  C2  UNL     1      23.046   1.333  53.056  1.00  0.00     0.105 C 
BRANCH  13  14
HETATM   14  C3  UNL     1      23.896   0.201  52.663  1.00  0.00     0.029 C 
BRANCH  14  15
HETATM   15  C4  UNL     1      24.868  -0.152  53.836  1.00  0.00     0.118 C 
HETATM   16  N1  UNL     1      26.136  -0.137  53.601  1.00  0.00    -0.406 N 
HETATM   17  C5  UNL     1      27.153   0.042  54.882  1.00  0.00     0.152 C 
HETATM   18  C8  UNL     1      26.993  -0.029  52.508  1.00  0.00     0.136 A 
HETATM   19  C6  UNL     1      27.558   0.889  54.049  1.00  0.00    -0.057 A 
HETATM   20  P1  UNL     1      27.944   1.751  53.190  1.00  0.00    -0.103 P 
HETATM   21  C7  UNL     1      27.968   1.803  53.136  1.00  0.00     0.081 A 
HETATM   22  H9  UNL     1      28.566   3.221  51.795  1.00  0.00     0.059 HD
ENDBRANCH  14  15
ENDBRANCH  13  14
ENDBRANCH   2  13
BRANCH  10  23
HETATM   23  N4  UNL     1      24.020   7.734  51.399  1.00  0.00    -0.353 N 
HETATM   24  H17 UNL     1      23.914   8.005  52.406  1.00  0.00     0.166 HD
BRANCH  23  25
HETATM   25  C15 UNL     1      24.902   7.774  50.241  1.00  0.00     0.034 A 
HETATM   26  C16 UNL     1      24.962   8.811  49.350  1.00  0.00     0.032 A 
HETATM   27  C17 UNL     1      25.784   8.748  48.226  1.00  0.00     0.046 A 
HETATM   28  C18 UNL     1      26.497   7.602  48.103  1.00  0.00     0.138 A 
HETATM   29  F1  UNL     1      27.281   7.584  46.988  1.00  0.00    -0.204 F 
HETATM   30  C19 UNL     1      26.558   6.454  48.908  1.00  0.00     0.074 A 
HETATM   31 CL1  UNL     1      27.525   5.058  48.612  1.00  0.00    -0.081 Cl
HETATM   32  C20 UNL     1      25.683   6.663  49.993  1.00  0.00     0.056 A 
ENDBRANCH  23  25
ENDBRANCH  10  23
TORSDOF 5
ENDMDL
MODEL 9
REMARK VINA RESULT:      -7.9      5.355      7.633
REMARK  5 active torsions:
REMARK  status: ('A' for Active; 'I' for Inactive)
REMARK    1  A    between atoms: C1_2  and  C2_3 
REMARK       I    between atoms: C1_2  and  N2_12 
REMARK    2  A    between atoms: C2_3  and  C3_4 
REMARK    3  A    between atoms: C3_4  and  C4_5 
REMARK    4  A    between atoms: C14_19  and  N4_20 
REMARK    5  A    between atoms: N4_20  and  C15_21 
ROOT
HETATM    1  O1  UNL     1      28.189   4.529  48.284  1.00  0.00    -0.273 OA
HETATM    2  C1  UNL     1      27.539   5.545  48.644  1.00  0.00     0.227 C 
HETATM    3  N2  UNL     1      26.345   5.408  49.387  1.00  0.00    -0.303 N 
HETATM    4  C9  UNL     1      25.472   6.521  49.640  1.00  0.00     0.100 A 
HETATM    5  C10 UNL     1      24.402   6.598  50.369  1.00  0.00     0.031 A 
HETATM    6  C11 UNL     1      23.954   5.403  51.065  1.00  0.00    -0.003 A 
HETATM    7  C12 UNL     1      22.885   5.298  51.823  1.00  0.00     0.129 C 
HETATM    8  N3  UNL     1      22.662   3.984  52.410  1.00  0.00    -0.255 NA
HETATM    9  C13 UNL     1      23.758   3.305  52.624  1.00  0.00     0.115 C 
HETATM   10  C14 UNL     1      24.427   2.965  51.500  1.00  0.00     0.076 C 
HETATM   11  C21 UNL     1      24.816   4.208  50.841  1.00  0.00     0.021 A 
HETATM   12  C22 UNL     1      25.903   4.239  50.075  1.00  0.00     0.114 A 
ENDROOT
BRANCH   2  13
HETATM   13  C2  UNL     1      27.966   6.927  48.342  1.00  0.00     0.105 C 
BRANCH  13  14
HETATM   14  C3  UNL     1      29.090   7.135  47.420  1.00  0.00     0.029 C 
BRANCH  14  15
HETATM   15  C4  UNL     1      30.224   7.927  48.151  1.00  0.00     0.118 C 
HETATM   16  N1  UNL     1      31.124   7.255  48.783  1.00  0.00    -0.406 N 
HETATM   17  C5  UNL     1      32.570   7.988  49.071  1.00  0.00     0.152 C 
HETATM   18  C8  UNL     1      31.361   5.940  49.177  1.00  0.00     0.136 A 
HETATM   19  C6  UNL     1      32.882   6.873  48.585  1.00  0.00    -0.057 A 
HETATM   20  P1  UNL     1      33.175   5.739  48.078  1.00  0.00    -0.103 P 
HETATM   21  C7  UNL     1      33.192   5.669  48.048  1.00  0.00     0.081 A 
HETATM   22  H9  UNL     1      33.676   3.879  47.193  1.00  0.00     0.059 HD
ENDBRANCH  14  15
ENDBRANCH  13  14
ENDBRANCH   2  13
BRANCH  10  23
HETATM   23  N4  UNL     1      24.715   1.692  50.933  1.00  0.00    -0.353 N 
HETATM   24  H17 UNL     1      24.405   1.371  49.986  1.00  0.00     0.166 HD
BRANCH  23  25
HETATM   25  C15 UNL     1      25.463   1.331  52.129  1.00  0.00     0.034 A 
HETATM   26  C16 UNL     1      26.742   1.738  52.394  1.00  0.00     0.032 A 
HETATM   27  C17 UNL     1      27.418   1.295  53.530  1.00  0.00     0.046 A 
HETATM   28  C18 UNL     1      26.712   0.455  54.324  1.00  0.00     0.138 A 
HETATM   29  F1  UNL     1      27.414   0.045  55.418  1.00  0.00    -0.204 F 
HETATM   30  C19 UNL     1      25.411  -0.060  54.208  1.00  0.00     0.074 A 
HETATM   31 CL1  UNL     1      24.645  -1.137  55.315  1.00  0.00    -0.081 Cl
HETATM   32  C20 UNL     1      24.860   0.470  53.025  1.00  0.00     0.056 A 
ENDBRANCH  23  25
ENDBRANCH  10  23
TORSDOF 5
ENDMDL
