MODEL 1
REMARK VINA RESULT:      -9.4      0.000      0.000
REMARK  5 active torsions:
REMARK  status: ('A' for Active; 'I' for Inactive)
REMARK       I    between atoms: C1_2  and  N1_3 
REMARK    1  A    between atoms: C1_2  and  C18_24 
REMARK    2  A    between atoms: N1_3  and  C2_4 
REMARK    3  A    between atoms: C2_4  and  C3_5 
REMARK    4  A    between atoms: C3_5  and  C4_6 
REMARK    5  A    between atoms: C12_16  and  C13_17 
ROOT
HETATM    1  C4  UNL     1      23.961   3.007  50.240  1.00  0.00     0.212 A 
HETATM    2  N2  UNL     1      25.219   2.568  50.727  1.00  0.00    -0.010 N 
HETATM    3  C5  UNL     1      25.596   2.427  52.046  1.00  0.00     0.233 A 
HETATM    4  C6  UNL     1      25.540   2.434  53.417  1.00  0.00     0.021 A 
HETATM    5  C7  UNL     1      24.250   2.880  53.087  1.00  0.00     0.125 A 
HETATM    6  C8  UNL     1      24.095   2.947  51.654  1.00  0.00     0.218 A 
HETATM    7  C9  UNL     1      23.240   1.973  52.314  1.00  0.00     0.163 A 
HETATM    8  N3  UNL     1      22.768   0.984  53.164  1.00  0.00    -0.293 NA
HETATM    9  C10 UNL     1      23.745   0.024  53.468  1.00  0.00     0.113 C 
HETATM   10  C11 UNL     1      24.977  -0.066  52.805  1.00  0.00     0.051 C 
HETATM   11  C12 UNL     1      26.337   0.288  52.627  1.00  0.00     0.067 C 
HETATM   12  N5  UNL     1      26.685   1.592  52.232  1.00  0.00    -0.246 NA
HETATM   13  H5  UNL     1      25.866   2.309  49.930  1.00  0.00     0.285 HD
ENDROOT
BRANCH   1  14
HETATM   14  C3  UNL     1      22.727   3.432  50.046  1.00  0.00     0.054 C 
BRANCH  14  15
HETATM   15  C2  UNL     1      22.641   4.685  49.276  1.00  0.00     0.130 C 
BRANCH  15  16
HETATM   16  N1  UNL     1      23.897   5.045  48.625  1.00  0.00    -0.356 N 
HETATM   17  C1  UNL     1      24.759   6.010  49.184  1.00  0.00     0.251 C 
HETATM   18  O1  UNL     1      24.431   6.566  50.258  1.00  0.00    -0.268 OA
HETATM   19  H1  UNL     1      24.184   4.595  47.743  1.00  0.00     0.162 HD
BRANCH  17  20
HETATM   20  C18 UNL     1      26.027   6.399  48.581  1.00  0.00     0.032 A 
HETATM   21  C19 UNL     1      27.148   5.587  48.732  1.00  0.00     0.017 A 
HETATM   22  C20 UNL     1      28.397   5.826  48.217  1.00  0.00     0.001 A 
HETATM   23  C21 UNL     1      28.569   6.986  47.467  1.00  0.00     0.000 A 
HETATM   24  C22 UNL     1      27.476   7.844  47.276  1.00  0.00     0.001 A 
HETATM   25  C23 UNL     1      26.241   7.550  47.824  1.00  0.00     0.017 A 
ENDBRANCH  17  20
ENDBRANCH  15  16
ENDBRANCH  14  15
ENDBRANCH   1  14
BRANCH  11  26
HETATM   26  C13 UNL     1      27.369  -0.704  52.879  1.00  0.00     0.010 A 
HETATM   27  C14 UNL     1      28.589  -0.206  53.363  1.00  0.00     0.017 A 
HETATM   28  C15 UNL     1      29.514  -1.229  53.577  1.00  0.00     0.020 A 
HETATM   29  C16 UNL     1      29.296  -2.574  53.354  1.00  0.00     0.116 A 
HETATM   30  N4  UNL     1      28.095  -2.953  52.891  1.00  0.00    -0.272 NA
HETATM   31  C17 UNL     1      27.145  -2.041  52.656  1.00  0.00     0.130 A 
ENDBRANCH  11  26
TORSDOF 5
ENDMDL
MODEL 2
REMARK VINA RESULT:      -9.4      1.886      2.771
REMARK  5 active torsions:
REMARK  status: ('A' for Active; 'I' for Inactive)
REMARK       I    between atoms: C1_2  and  N1_3 
REMARK    1  A    between atoms: C1_2  and  C18_24 
REMARK    2  A    between atoms: N1_3  and  C2_4 
REMARK    3  A    between atoms: C2_4  and  C3_5 
REMARK    4  A    between atoms: C3_5  and  C4_6 
REMARK    5  A    between atoms: C12_16  and  C13_17 
ROOT
HETATM    1  C4  UNL     1      23.538   5.669  51.875  1.00  0.00     0.212 A 
HETATM    2  N2  UNL     1      23.946   4.606  52.722  1.00  0.00    -0.010 N 
HETATM    3  C5  UNL     1      23.979   3.263  52.412  1.00  0.00     0.233 A 
HETATM    4  C6  UNL     1      23.856   2.093  51.705  1.00  0.00     0.021 A 
HETATM    5  C7  UNL     1      23.428   3.034  50.755  1.00  0.00     0.125 A 
HETATM    6  C8  UNL     1      23.480   4.365  51.311  1.00  0.00     0.218 A 
HETATM    7  C9  UNL     1      24.387   4.134  50.198  1.00  0.00     0.163 A 
HETATM    8  N3  UNL     1      25.297   3.551  49.329  1.00  0.00    -0.293 NA
HETATM    9  C10 UNL     1      26.237   2.748  49.992  1.00  0.00     0.113 C 
HETATM   10  C11 UNL     1      26.394   2.727  51.385  1.00  0.00     0.051 C 
HETATM   11  C12 UNL     1      26.068   2.251  52.678  1.00  0.00     0.067 C 
HETATM   12  N5  UNL     1      24.806   2.518  53.236  1.00  0.00    -0.246 NA
HETATM   13  H5  UNL     1      24.276   4.973  53.658  1.00  0.00     0.285 HD
ENDROOT
BRANCH   1  14
HETATM   14  C3  UNL     1      23.119   6.462  50.908  1.00  0.00     0.054 C 
BRANCH  14  15
HETATM   15  C2  UNL     1      23.890   7.712  50.784  1.00  0.00     0.130 C 
BRANCH  15  16
HETATM   16  N1  UNL     1      25.304   7.486  50.497  1.00  0.00    -0.356 N 
HETATM   17  C1  UNL     1      25.772   7.375  49.173  1.00  0.00     0.251 C 
HETATM   18  O1  UNL     1      24.952   7.470  48.230  1.00  0.00    -0.268 OA
HETATM   19  H1  UNL     1      25.992   7.408  51.261  1.00  0.00     0.162 HD
BRANCH  17  20
HETATM   20  C18 UNL     1      27.172   7.157  48.832  1.00  0.00     0.032 A 
HETATM   21  C19 UNL     1      27.622   5.875  48.523  1.00  0.00     0.017 A 
HETATM   22  C20 UNL     1      28.903   5.528  48.181  1.00  0.00     0.001 A 
HETATM   23  C21 UNL     1      29.851   6.546  48.131  1.00  0.00     0.000 A 
HETATM   24  C22 UNL     1      29.459   7.859  48.429  1.00  0.00     0.001 A 
HETATM   25  C23 UNL     1      28.151   8.147  48.771  1.00  0.00     0.017 A 
ENDBRANCH  17  20
ENDBRANCH  15  16
ENDBRANCH  14  15
ENDBRANCH   1  14
BRANCH  11  26
HETATM   26  C13 UNL     1      27.045   1.464  53.413  1.00  0.00     0.010 A 
HETATM   27  C14 UNL     1      28.347   1.988  53.450  1.00  0.00     0.017 A 
HETATM   28  C15 UNL     1      29.213   1.169  54.177  1.00  0.00     0.020 A 
HETATM   29  C16 UNL     1      28.870  -0.015  54.799  1.00  0.00     0.116 A 
HETATM   30  N4  UNL     1      27.599  -0.433  54.708  1.00  0.00    -0.272 NA
HETATM   31  C17 UNL     1      26.698   0.288  54.030  1.00  0.00     0.130 A 
ENDBRANCH  11  26
TORSDOF 5
ENDMDL
MODEL 3
REMARK VINA RESULT:      -9.2      4.107      8.573
REMARK  5 active torsions:
REMARK  status: ('A' for Active; 'I' for Inactive)
REMARK       I    between atoms: C1_2  and  N1_3 
REMARK    1  A    between atoms: C1_2  and  C18_24 
REMARK    2  A    between atoms: N1_3  and  C2_4 
REMARK    3  A    between atoms: C2_4  and  C3_5 
REMARK    4  A    between atoms: C3_5  and  C4_6 
REMARK    5  A    between atoms: C12_16  and  C13_17 
ROOT
HETATM    1  C4  UNL     1      27.545   5.473  48.728  1.00  0.00     0.212 A 
HETATM    2  N2  UNL     1      28.862   5.369  48.209  1.00  0.00    -0.010 N 
HETATM    3  C5  UNL     1      29.532   6.307  47.454  1.00  0.00     0.233 A 
HETATM    4  C6  UNL     1      29.804   7.463  46.765  1.00  0.00     0.021 A 
HETATM    5  C7  UNL     1      28.497   7.710  47.212  1.00  0.00     0.125 A 
HETATM    6  C8  UNL     1      28.009   6.588  47.978  1.00  0.00     0.218 A 
HETATM    7  C9  UNL     1      28.155   7.822  48.732  1.00  0.00     0.163 A 
HETATM    8  N3  UNL     1      28.637   9.027  49.222  1.00  0.00    -0.293 NA
HETATM    9  C10 UNL     1      30.037   9.054  49.303  1.00  0.00     0.113 C 
HETATM   10  C11 UNL     1      30.846   7.920  49.141  1.00  0.00     0.051 C 
HETATM   11  C12 UNL     1      31.576   7.001  48.349  1.00  0.00     0.067 C 
HETATM   12  N5  UNL     1      30.908   6.147  47.454  1.00  0.00    -0.246 NA
HETATM   13  H5  UNL     1      29.317   4.462  48.509  1.00  0.00     0.285 HD
ENDROOT
BRANCH   1  14
HETATM   14  C3  UNL     1      26.323   5.811  49.094  1.00  0.00     0.054 C 
BRANCH  14  15
HETATM   15  C2  UNL     1      25.585   4.735  49.779  1.00  0.00     0.130 C 
BRANCH  15  16
HETATM   16  N1  UNL     1      26.444   3.880  50.592  1.00  0.00    -0.356 N 
HETATM   17  C1  UNL     1      25.961   2.680  51.152  1.00  0.00     0.251 C 
HETATM   18  O1  UNL     1      24.770   2.351  50.945  1.00  0.00    -0.268 OA
HETATM   19  H1  UNL     1      27.428   4.134  50.770  1.00  0.00     0.162 HD
BRANCH  17  20
HETATM   20  C18 UNL     1      26.778   1.787  51.964  1.00  0.00     0.032 A 
HETATM   21  C19 UNL     1      26.539   0.415  51.942  1.00  0.00     0.017 A 
HETATM   22  C20 UNL     1      27.230  -0.537  52.647  1.00  0.00     0.001 A 
HETATM   23  C21 UNL     1      28.271  -0.102  53.462  1.00  0.00     0.000 A 
HETATM   24  C22 UNL     1      28.562   1.268  53.524  1.00  0.00     0.001 A 
HETATM   25  C23 UNL     1      27.828   2.181  52.790  1.00  0.00     0.017 A 
ENDBRANCH  17  20
ENDBRANCH  15  16
ENDBRANCH  14  15
ENDBRANCH   1  14
BRANCH  11  26
HETATM   26  C13 UNL     1      33.026   6.967  48.455  1.00  0.00     0.010 A 
HETATM   27  C14 UNL     1      33.590   5.706  48.704  1.00  0.00     0.017 A 
HETATM   28  C15 UNL     1      34.982   5.771  48.787  1.00  0.00     0.020 A 
HETATM   29  C16 UNL     1      35.746   6.913  48.646  1.00  0.00     0.116 A 
HETATM   30  N4  UNL     1      35.114   8.072  48.408  1.00  0.00    -0.272 NA
HETATM   31  C17 UNL     1      33.780   8.106  48.312  1.00  0.00     0.130 A 
ENDBRANCH  11  26
TORSDOF 5
ENDMDL
MODEL 4
REMARK VINA RESULT:      -9.0      3.373      6.351
REMARK  5 active torsions:
REMARK  status: ('A' for Active; 'I' for Inactive)
REMARK       I    between atoms: C1_2  and  N1_3 
REMARK    1  A    between atoms: C1_2  and  C18_24 
REMARK    2  A    between atoms: N1_3  and  C2_4 
REMARK    3  A    between atoms: C2_4  and  C3_5 
REMARK    4  A    between atoms: C3_5  and  C4_6 
REMARK    5  A    between atoms: C12_16  and  C13_17 
ROOT
HETATM    1  C4  UNL     1      23.412   2.526  50.246  1.00  0.00     0.212 A 
HETATM    2  N2  UNL     1      24.733   2.215  50.661  1.00  0.00    -0.010 N 
HETATM    3  C5  UNL     1      25.219   2.213  51.950  1.00  0.00     0.233 A 
HETATM    4  C6  UNL     1      25.270   2.333  53.317  1.00  0.00     0.021 A 
HETATM    5  C7  UNL     1      23.929   2.662  53.061  1.00  0.00     0.125 A 
HETATM    6  C8  UNL     1      23.659   2.596  51.644  1.00  0.00     0.218 A 
HETATM    7  C9  UNL     1      22.932   1.628  52.449  1.00  0.00     0.163 A 
HETATM    8  N3  UNL     1      22.600   0.686  53.412  1.00  0.00    -0.293 NA
HETATM    9  C10 UNL     1      23.665  -0.177  53.709  1.00  0.00     0.113 C 
HETATM   10  C11 UNL     1      24.845  -0.242  52.955  1.00  0.00     0.051 C 
HETATM   11  C12 UNL     1      26.157   0.185  52.637  1.00  0.00     0.067 C 
HETATM   12  N5  UNL     1      26.378   1.470  52.111  1.00  0.00    -0.246 NA
HETATM   13  H5  UNL     1      25.332   1.932  49.835  1.00  0.00     0.285 HD
ENDROOT
BRANCH   1  14
HETATM   14  C3  UNL     1      22.139   2.850  50.123  1.00  0.00     0.054 C 
BRANCH  14  15
HETATM   15  C2  UNL     1      21.361   1.915  49.292  1.00  0.00     0.130 C 
BRANCH  15  16
HETATM   16  N1  UNL     1      20.597   0.950  50.078  1.00  0.00    -0.356 N 
HETATM   17  C1  UNL     1      19.258   1.200  50.439  1.00  0.00     0.251 C 
HETATM   18  O1  UNL     1      18.724   2.274  50.079  1.00  0.00    -0.268 OA
HETATM   19  H1  UNL     1      21.021   0.060  50.380  1.00  0.00     0.162 HD
BRANCH  17  20
HETATM   20  C18 UNL     1      18.449   0.269  51.215  1.00  0.00     0.032 A 
HETATM   21  C19 UNL     1      17.190  -0.109  50.754  1.00  0.00     0.017 A 
HETATM   22  C20 UNL     1      16.328  -0.977  51.374  1.00  0.00     0.001 A 
HETATM   23  C21 UNL     1      16.742  -1.540  52.578  1.00  0.00     0.000 A 
HETATM   24  C22 UNL     1      18.001  -1.200  53.093  1.00  0.00     0.001 A 
HETATM   25  C23 UNL     1      18.825  -0.316  52.422  1.00  0.00     0.017 A 
ENDBRANCH  17  20
ENDBRANCH  15  16
ENDBRANCH  14  15
ENDBRANCH   1  14
BRANCH  11  26
HETATM   26  C13 UNL     1      27.276  -0.711  52.880  1.00  0.00     0.010 A 
HETATM   27  C14 UNL     1      28.447  -0.108  53.364  1.00  0.00     0.017 A 
HETATM   28  C15 UNL     1      29.462  -1.044  53.570  1.00  0.00     0.020 A 
HETATM   29  C16 UNL     1      29.365  -2.403  53.340  1.00  0.00     0.116 A 
HETATM   30  N4  UNL     1      28.202  -2.885  52.878  1.00  0.00    -0.272 NA
HETATM   31  C17 UNL     1      27.172  -2.061  52.651  1.00  0.00     0.130 A 
ENDBRANCH  11  26
TORSDOF 5
ENDMDL
MODEL 5
REMARK VINA RESULT:      -8.9      1.890      3.266
REMARK  5 active torsions:
REMARK  status: ('A' for Active; 'I' for Inactive)
REMARK       I    between atoms: C1_2  and  N1_3 
REMARK    1  A    between atoms: C1_2  and  C18_24 
REMARK    2  A    between atoms: N1_3  and  C2_4 
REMARK    3  A    between atoms: C2_4  and  C3_5 
REMARK    4  A    between atoms: C3_5  and  C4_6 
REMARK    5  A    between atoms: C12_16  and  C13_17 
ROOT
HETATM    1  C4  UNL     1      23.497   6.823  51.269  1.00  0.00     0.212 A 
HETATM    2  N2  UNL     1      23.900   5.844  52.214  1.00  0.00    -0.010 N 
HETATM    3  C5  UNL     1      23.345   4.597  52.404  1.00  0.00     0.233 A 
HETATM    4  C6  UNL     1      22.526   3.506  52.253  1.00  0.00     0.021 A 
HETATM    5  C7  UNL     1      22.018   4.370  51.270  1.00  0.00     0.125 A 
HETATM    6  C8  UNL     1      22.758   5.609  51.262  1.00  0.00     0.218 A 
HETATM    7  C9  UNL     1      22.879   4.819  50.047  1.00  0.00     0.163 A 
HETATM    8  N3  UNL     1      23.008   3.759  49.163  1.00  0.00    -0.293 NA
HETATM    9  C10 UNL     1      23.837   2.742  49.659  1.00  0.00     0.113 C 
HETATM   10  C11 UNL     1      24.635   2.881  50.803  1.00  0.00     0.051 C 
HETATM   11  C12 UNL     1      24.847   2.818  52.202  1.00  0.00     0.067 C 
HETATM   12  N5  UNL     1      24.179   3.707  53.061  1.00  0.00    -0.246 NA
HETATM   13  H5  UNL     1      24.742   6.173  52.765  1.00  0.00     0.285 HD
ENDROOT
BRANCH   1  14
HETATM   14  C3  UNL     1      22.941   7.550  50.319  1.00  0.00     0.054 C 
BRANCH  14  15
HETATM   15  C2  UNL     1      23.865   8.498  49.673  1.00  0.00     0.130 C 
BRANCH  15  16
HETATM   16  N1  UNL     1      25.221   7.974  49.538  1.00  0.00    -0.356 N 
HETATM   17  C1  UNL     1      25.695   7.481  48.306  1.00  0.00     0.251 C 
HETATM   18  O1  UNL     1      24.931   7.493  47.314  1.00  0.00    -0.268 OA
HETATM   19  H1  UNL     1      25.865   7.959  50.344  1.00  0.00     0.162 HD
BRANCH  17  20
HETATM   20  C18 UNL     1      27.041   6.955  48.116  1.00  0.00     0.032 A 
HETATM   21  C19 UNL     1      27.365   5.686  48.592  1.00  0.00     0.017 A 
HETATM   22  C20 UNL     1      28.583   5.066  48.479  1.00  0.00     0.001 A 
HETATM   23  C21 UNL     1      29.597   5.761  47.826  1.00  0.00     0.000 A 
HETATM   24  C22 UNL     1      29.332   7.042  47.322  1.00  0.00     0.001 A 
HETATM   25  C23 UNL     1      28.083   7.616  47.470  1.00  0.00     0.017 A 
ENDBRANCH  17  20
ENDBRANCH  15  16
ENDBRANCH  14  15
ENDBRANCH   1  14
BRANCH  11  26
HETATM   26  C13 UNL     1      25.747   1.810  52.740  1.00  0.00     0.010 A 
HETATM   27  C14 UNL     1      26.021   0.724  51.894  1.00  0.00     0.017 A 
HETATM   28  C15 UNL     1      26.893  -0.188  52.493  1.00  0.00     0.020 A 
HETATM   29  C16 UNL     1      27.439  -0.071  53.756  1.00  0.00     0.116 A 
HETATM   30  N4  UNL     1      27.117   1.005  54.488  1.00  0.00    -0.272 NA
HETATM   31  C17 UNL     1      26.287   1.933  53.996  1.00  0.00     0.130 A 
ENDBRANCH  11  26
TORSDOF 5
ENDMDL
MODEL 6
REMARK VINA RESULT:      -8.5      2.332      4.095
REMARK  5 active torsions:
REMARK  status: ('A' for Active; 'I' for Inactive)
REMARK       I    between atoms: C1_2  and  N1_3 
REMARK    1  A    between atoms: C1_2  and  C18_24 
REMARK    2  A    between atoms: N1_3  and  C2_4 
REMARK    3  A    between atoms: C2_4  and  C3_5 
REMARK    4  A    between atoms: C3_5  and  C4_6 
REMARK    5  A    between atoms: C12_16  and  C13_17 
ROOT
HETATM    1  C4  UNL     1      24.579   6.821  50.796  1.00  0.00     0.212 A 
HETATM    2  N2  UNL     1      24.190   5.716  51.597  1.00  0.00    -0.010 N 
HETATM    3  C5  UNL     1      23.870   4.448  51.163  1.00  0.00     0.233 A 
HETATM    4  C6  UNL     1      23.647   3.382  50.328  1.00  0.00     0.021 A 
HETATM    5  C7  UNL     1      24.018   4.377  49.410  1.00  0.00     0.125 A 
HETATM    6  C8  UNL     1      24.303   5.613  50.100  1.00  0.00     0.218 A 
HETATM    7  C9  UNL     1      25.443   5.016  49.423  1.00  0.00     0.163 A 
HETATM    8  N3  UNL     1      26.360   4.102  48.926  1.00  0.00    -0.293 NA
HETATM    9  C10 UNL     1      26.585   3.033  49.805  1.00  0.00     0.113 C 
HETATM   10  C11 UNL     1      26.129   3.008  51.130  1.00  0.00     0.051 C 
HETATM   11  C12 UNL     1      25.148   2.739  52.116  1.00  0.00     0.067 C 
HETATM   12  N5  UNL     1      23.954   3.479  52.150  1.00  0.00    -0.246 NA
HETATM   13  H5  UNL     1      24.206   5.969  52.625  1.00  0.00     0.285 HD
ENDROOT
BRANCH   1  14
HETATM   14  C3  UNL     1      24.913   7.675  49.848  1.00  0.00     0.054 C 
BRANCH  14  15
HETATM   15  C2  UNL     1      26.147   8.429  50.131  1.00  0.00     0.130 C 
BRANCH  15  16
HETATM   16  N1  UNL     1      27.357   7.717  49.729  1.00  0.00    -0.356 N 
HETATM   17  C1  UNL     1      27.860   7.815  48.416  1.00  0.00     0.251 C 
HETATM   18  O1  UNL     1      27.249   8.526  47.584  1.00  0.00    -0.268 OA
HETATM   19  H1  UNL     1      27.874   7.130  50.401  1.00  0.00     0.162 HD
BRANCH  17  20
HETATM   20  C18 UNL     1      29.065   7.133  47.965  1.00  0.00     0.032 A 
HETATM   21  C19 UNL     1      29.968   7.792  47.134  1.00  0.00     0.017 A 
HETATM   22  C20 UNL     1      31.140   7.277  46.641  1.00  0.00     0.001 A 
HETATM   23  C21 UNL     1      31.468   5.974  47.002  1.00  0.00     0.000 A 
HETATM   24  C22 UNL     1      30.601   5.258  47.840  1.00  0.00     0.001 A 
HETATM   25  C23 UNL     1      29.431   5.832  48.303  1.00  0.00     0.017 A 
ENDBRANCH  17  20
ENDBRANCH  15  16
ENDBRANCH  14  15
ENDBRANCH   1  14
BRANCH  11  26
HETATM   26  C13 UNL     1      25.381   1.673  53.077  1.00  0.00     0.010 A 
HETATM   27  C14 UNL     1      24.511   0.575  52.993  1.00  0.00     0.017 A 
HETATM   28  C15 UNL     1      24.811  -0.396  53.950  1.00  0.00     0.020 A 
HETATM   29  C16 UNL     1      25.829  -0.323  54.881  1.00  0.00     0.116 A 
HETATM   30  N4  UNL     1      26.609   0.768  54.881  1.00  0.00    -0.272 NA
HETATM   31  C17 UNL     1      26.395   1.751  53.999  1.00  0.00     0.130 A 
ENDBRANCH  11  26
TORSDOF 5
ENDMDL
MODEL 7
REMARK VINA RESULT:      -8.4      3.167      4.725
REMARK  5 active torsions:
REMARK  status: ('A' for Active; 'I' for Inactive)
REMARK       I    between atoms: C1_2  and  N1_3 
REMARK    1  A    between atoms: C1_2  and  C18_24 
REMARK    2  A    between atoms: N1_3  and  C2_4 
REMARK    3  A    between atoms: C2_4  and  C3_5 
REMARK    4  A    between atoms: C3_5  and  C4_6 
REMARK    5  A    between atoms: C12_16  and  C13_17 
ROOT
HETATM    1  C4  UNL     1      25.879   4.291  50.251  1.00  0.00     0.212 A 
HETATM    2  N2  UNL     1      25.287   3.785  51.437  1.00  0.00    -0.010 N 
HETATM    3  C5  UNL     1      23.951   3.811  51.773  1.00  0.00     0.233 A 
HETATM    4  C6  UNL     1      22.600   4.042  51.700  1.00  0.00     0.021 A 
HETATM    5  C7  UNL     1      23.039   4.584  50.481  1.00  0.00     0.125 A 
HETATM    6  C8  UNL     1      24.469   4.441  50.356  1.00  0.00     0.218 A 
HETATM    7  C9  UNL     1      23.695   3.697  49.376  1.00  0.00     0.163 A 
HETATM    8  N3  UNL     1      22.718   2.920  48.771  1.00  0.00    -0.293 NA
HETATM    9  C10 UNL     1      22.235   1.909  49.615  1.00  0.00     0.113 C 
HETATM   10  C11 UNL     1      22.834   1.564  50.835  1.00  0.00     0.051 C 
HETATM   11  C12 UNL     1      23.018   1.717  52.230  1.00  0.00     0.067 C 
HETATM   12  N5  UNL     1      23.600   2.888  52.746  1.00  0.00    -0.246 NA
HETATM   13  H5  UNL     1      26.012   3.325  52.056  1.00  0.00     0.285 HD
ENDROOT
BRANCH   1  14
HETATM   14  C3  UNL     1      26.178   4.828  49.083  1.00  0.00     0.054 C 
BRANCH  14  15
HETATM   15  C2  UNL     1      27.606   4.734  48.730  1.00  0.00     0.130 C 
BRANCH  15  16
HETATM   16  N1  UNL     1      28.262   6.036  48.647  1.00  0.00    -0.356 N 
HETATM   17  C1  UNL     1      29.633   6.145  48.341  1.00  0.00     0.251 C 
HETATM   18  O1  UNL     1      30.294   5.099  48.141  1.00  0.00    -0.268 OA
HETATM   19  H1  UNL     1      27.732   6.906  48.806  1.00  0.00     0.162 HD
BRANCH  17  20
HETATM   20  C18 UNL     1      30.334   7.418  48.238  1.00  0.00     0.032 A 
HETATM   21  C19 UNL     1      29.882   8.521  48.959  1.00  0.00     0.017 A 
HETATM   22  C20 UNL     1      30.445   9.772  48.962  1.00  0.00     0.001 A 
HETATM   23  C21 UNL     1      31.576   9.967  48.176  1.00  0.00     0.000 A 
HETATM   24  C22 UNL     1      32.082   8.893  47.428  1.00  0.00     0.001 A 
HETATM   25  C23 UNL     1      31.468   7.655  47.464  1.00  0.00     0.017 A 
ENDBRANCH  17  20
ENDBRANCH  15  16
ENDBRANCH  14  15
ENDBRANCH   1  14
BRANCH  11  26
HETATM   26  C13 UNL     1      22.580   0.658  53.125  1.00  0.00     0.010 A 
HETATM   27  C14 UNL     1      21.195   0.576  53.340  1.00  0.00     0.017 A 
HETATM   28  C15 UNL     1      20.869  -0.468  54.208  1.00  0.00     0.020 A 
HETATM   29  C16 UNL     1      21.767  -1.334  54.801  1.00  0.00     0.116 A 
HETATM   30  N4  UNL     1      23.071  -1.176  54.532  1.00  0.00    -0.272 NA
HETATM   31  C17 UNL     1      23.477  -0.201  53.710  1.00  0.00     0.130 A 
ENDBRANCH  11  26
TORSDOF 5
ENDMDL
MODEL 8
REMARK VINA RESULT:      -8.4      3.186      8.284
REMARK  5 active torsions:
REMARK  status: ('A' for Active; 'I' for Inactive)
REMARK       I    between atoms: C1_2  and  N1_3 
REMARK    1  A    between atoms: C1_2  and  C18_24 
REMARK    2  A    between atoms: N1_3  and  C2_4 
REMARK    3  A    between atoms: C2_4  and  C3_5 
REMARK    4  A    between atoms: C3_5  and  C4_6 
REMARK    5  A    between atoms: C12_16  and  C13_17 
ROOT
HETATM    1  C4  UNL     1      25.614   6.447  50.186  1.00  0.00     0.212 A 
HETATM    2  N2  UNL     1      26.829   6.248  49.480  1.00  0.00    -0.010 N 
HETATM    3  C5  UNL     1      27.283   6.963  48.393  1.00  0.00     0.233 A 
HETATM    4  C6  UNL     1      27.339   7.892  47.383  1.00  0.00     0.021 A 
HETATM    5  C7  UNL     1      26.109   8.208  47.982  1.00  0.00     0.125 A 
HETATM    6  C8  UNL     1      25.851   7.326  49.094  1.00  0.00     0.218 A 
HETATM    7  C9  UNL     1      26.019   8.725  49.453  1.00  0.00     0.163 A 
HETATM    8  N3  UNL     1      26.474  10.033  49.508  1.00  0.00    -0.293 NA
HETATM    9  C10 UNL     1      27.861  10.129  49.320  1.00  0.00     0.113 C 
HETATM   10  C11 UNL     1      28.723   9.023  49.319  1.00  0.00     0.051 C 
HETATM   11  C12 UNL     1      29.384   7.947  48.679  1.00  0.00     0.067 C 
HETATM   12  N5  UNL     1      28.649   6.857  48.183  1.00  0.00    -0.246 NA
HETATM   13  H5  UNL     1      27.402   5.475  49.921  1.00  0.00     0.285 HD
ENDROOT
BRANCH   1  14
HETATM   14  C3  UNL     1      24.447   6.830  50.667  1.00  0.00     0.054 C 
BRANCH  14  15
HETATM   15  C2  UNL     1      23.680   5.748  51.309  1.00  0.00     0.130 C 
BRANCH  15  16
HETATM   16  N1  UNL     1      24.460   4.528  51.497  1.00  0.00    -0.356 N 
HETATM   17  C1  UNL     1      23.884   3.374  52.064  1.00  0.00     0.251 C 
HETATM   18  O1  UNL     1      22.681   3.406  52.414  1.00  0.00    -0.268 OA
HETATM   19  H1  UNL     1      25.450   4.483  51.212  1.00  0.00     0.162 HD
BRANCH  17  20
HETATM   20  C18 UNL     1      24.614   2.129  52.266  1.00  0.00     0.032 A 
HETATM   21  C19 UNL     1      25.860   1.949  51.670  1.00  0.00     0.017 A 
HETATM   22  C20 UNL     1      26.656   0.837  51.779  1.00  0.00     0.001 A 
HETATM   23  C21 UNL     1      26.184  -0.215  52.559  1.00  0.00     0.000 A 
HETATM   24  C22 UNL     1      24.937  -0.092  53.188  1.00  0.00     0.001 A 
HETATM   25  C23 UNL     1      24.178   1.054  53.038  1.00  0.00     0.017 A 
ENDBRANCH  17  20
ENDBRANCH  15  16
ENDBRANCH  14  15
ENDBRANCH   1  14
BRANCH  11  26
HETATM   26  C13 UNL     1      30.828   7.993  48.522  1.00  0.00     0.010 A 
HETATM   27  C14 UNL     1      31.329   9.087  47.799  1.00  0.00     0.017 A 
HETATM   28  C15 UNL     1      32.721   9.048  47.702  1.00  0.00     0.020 A 
HETATM   29  C16 UNL     1      33.540   8.073  48.237  1.00  0.00     0.116 A 
HETATM   30  N4  UNL     1      32.967   7.066  48.913  1.00  0.00    -0.272 NA
HETATM   31  C17 UNL     1      31.637   7.021  49.057  1.00  0.00     0.130 A 
ENDBRANCH  11  26
TORSDOF 5
ENDMDL
MODEL 9
REMARK VINA RESULT:      -8.4      3.650      6.099
REMARK  5 active torsions:
REMARK  status: ('A' for Active; 'I' for Inactive)
REMARK       I    between atoms: C1_2  and  N1_3 
REMARK    1  A    between atoms: C1_2  and  C18_24 
REMARK    2  A    between atoms: N1_3  and  C2_4 
REMARK    3  A    between atoms: C2_4  and  C3_5 
REMARK    4  A    between atoms: C3_5  and  C4_6 
REMARK    5  A    between atoms: C12_16  and  C13_17 
ROOT
HETATM    1  C4  UNL     1      23.033   2.300  49.930  1.00  0.00     0.212 A 
HETATM    2  N2  UNL     1      24.330   2.361  50.503  1.00  0.00    -0.010 N 
HETATM    3  C5  UNL     1      24.643   2.446  51.843  1.00  0.00     0.233 A 
HETATM    4  C6  UNL     1      24.497   2.522  53.206  1.00  0.00     0.021 A 
HETATM    5  C7  UNL     1      23.157   2.466  52.788  1.00  0.00     0.125 A 
HETATM    6  C8  UNL     1      23.085   2.382  51.349  1.00  0.00     0.218 A 
HETATM    7  C9  UNL     1      22.576   1.217  52.053  1.00  0.00     0.163 A 
HETATM    8  N3  UNL     1      22.419   0.182  52.963  1.00  0.00    -0.293 NA
HETATM    9  C10 UNL     1      23.644  -0.354  53.386  1.00  0.00     0.113 C 
HETATM   10  C11 UNL     1      24.873  -0.052  52.783  1.00  0.00     0.051 C 
HETATM   11  C12 UNL     1      26.036   0.742  52.631  1.00  0.00     0.067 C 
HETATM   12  N5  UNL     1      25.938   2.057  52.142  1.00  0.00    -0.246 NA
HETATM   13  H5  UNL     1      25.078   2.293  49.757  1.00  0.00     0.285 HD
ENDROOT
BRANCH   1  14
HETATM   14  C3  UNL     1      21.744   2.255  49.653  1.00  0.00     0.054 C 
BRANCH  14  15
HETATM   15  C2  UNL     1      21.029   3.513  49.930  1.00  0.00     0.130 C 
BRANCH  15  16
HETATM   16  N1  UNL     1      19.587   3.331  50.074  1.00  0.00    -0.356 N 
HETATM   17  C1  UNL     1      18.976   3.315  51.343  1.00  0.00     0.251 C 
HETATM   18  O1  UNL     1      19.692   3.456  52.362  1.00  0.00    -0.268 OA
HETATM   19  H1  UNL     1      18.983   3.217  49.246  1.00  0.00     0.162 HD
BRANCH  17  20
HETATM   20  C18 UNL     1      17.543   3.145  51.542  1.00  0.00     0.032 A 
HETATM   21  C19 UNL     1      16.972   1.878  51.442  1.00  0.00     0.017 A 
HETATM   22  C20 UNL     1      15.645   1.573  51.610  1.00  0.00     0.001 A 
HETATM   23  C21 UNL     1      14.780   2.620  51.912  1.00  0.00     0.000 A 
HETATM   24  C22 UNL     1      15.295   3.919  52.029  1.00  0.00     0.001 A 
HETATM   25  C23 UNL     1      16.643   4.165  51.846  1.00  0.00     0.017 A 
ENDBRANCH  17  20
ENDBRANCH  15  16
ENDBRANCH  14  15
ENDBRANCH   1  14
BRANCH  11  26
HETATM   26  C13 UNL     1      27.327   0.191  53.006  1.00  0.00     0.010 A 
HETATM   27  C14 UNL     1      28.325   1.129  53.314  1.00  0.00     0.017 A 
HETATM   28  C15 UNL     1      29.526   0.509  53.664  1.00  0.00     0.020 A 
HETATM   29  C16 UNL     1      29.745  -0.853  53.715  1.00  0.00     0.116 A 
HETATM   30  N4  UNL     1      28.727  -1.670  53.405  1.00  0.00    -0.272 NA
HETATM   31  C17 UNL     1      27.538  -1.165  53.056  1.00  0.00     0.130 A 
ENDBRANCH  11  26
TORSDOF 5
ENDMDL
