MODEL 1
REMARK VINA RESULT:      -9.3      0.000      0.000
REMARK  5 active torsions:
REMARK  status: ('A' for Active; 'I' for Inactive)
REMARK    1  A    between atoms: O1_2  and  C2_3 
REMARK    2  A    between atoms: C4_5  and  O2_6 
REMARK    3  A    between atoms: O2_6  and  C5_7 
REMARK    4  A    between atoms: C11_14  and  N2_15 
REMARK    5  A    between atoms: N2_15  and  C12_16 
ROOT
HETATM    1  C2  UNL     1      19.700  -0.095  52.499  1.00  0.00     0.073 A 
HETATM    2  C3  UNL     1      20.660   0.590  51.740  1.00  0.00     0.074 A 
HETATM    3  C4  UNL     1      21.999   0.598  52.065  1.00  0.00     0.088 A 
HETATM    4  C10 UNL     1      22.373  -0.103  53.184  1.00  0.00     0.072 A 
HETATM    5  C11 UNL     1      23.691  -0.134  53.563  1.00  0.00     0.144 A 
HETATM    6  N3  UNL     1      23.986  -0.834  54.659  1.00  0.00    -0.223 NA
HETATM    7  C18 UNL     1      23.089  -1.492  55.395  1.00  0.00     0.236 A 
HETATM    8  N4  UNL     1      21.798  -1.460  55.024  1.00  0.00    -0.241 NA
HETATM    9  C19 UNL     1      21.427  -0.775  53.928  1.00  0.00     0.077 A 
HETATM   10  C20 UNL     1      20.082  -0.802  53.631  1.00  0.00     0.069 A 
ENDROOT
BRANCH   5  11
HETATM   11  N2  UNL     1      24.740   0.536  52.891  1.00  0.00    -0.340 N 
HETATM   12  H15 UNL     1      24.866   1.320  52.230  1.00  0.00     0.167 HD
BRANCH  11  13
HETATM   13  C12 UNL     1      26.111   0.145  53.057  1.00  0.00     0.035 A 
HETATM   14  C13 UNL     1      26.704  -1.062  52.768  1.00  0.00     0.032 A 
HETATM   15  C14 UNL     1      28.031  -1.338  52.989  1.00  0.00     0.046 A 
HETATM   16  C15 UNL     1      28.854  -0.377  53.530  1.00  0.00     0.138 A 
HETATM   17  F1  UNL     1      30.143  -0.723  53.715  1.00  0.00    -0.204 F 
HETATM   18  C16 UNL     1      28.291   0.841  53.832  1.00  0.00     0.074 A 
HETATM   19 CL1  UNL     1      29.455   1.983  54.521  1.00  0.00    -0.081 Cl
HETATM   20  C17 UNL     1      26.953   1.115  53.608  1.00  0.00     0.056 A 
ENDBRANCH  11  13
ENDBRANCH   5  11
BRANCH   3  21
HETATM   21  O2  UNL     1      22.876   1.276  51.296  1.00  0.00    -0.345 OA
BRANCH  21  22
HETATM   22  C5  UNL     1      22.934   2.609  50.932  1.00  0.00     0.132 C 
HETATM   23  C6  UNL     1      23.002   3.502  52.160  1.00  0.00     0.062 C 
HETATM   24  C7  UNL     1      23.479   4.872  51.748  1.00  0.00     0.272 C 
HETATM   25  N1  UNL     1      24.741   4.899  51.088  1.00  0.00     0.083 N 
HETATM   26  C8  UNL     1      25.238   3.564  50.861  1.00  0.00     0.272 C 
HETATM   27  H10 UNL     1      25.435   5.391  51.721  1.00  0.00     0.315 HD
HETATM   28  C9  UNL     1      24.175   2.810  50.068  1.00  0.00     0.062 C 
ENDBRANCH  21  22
ENDBRANCH   3  21
BRANCH   1  29
HETATM   29  O1  UNL     1      18.339  -0.090  52.150  1.00  0.00    -0.356 OA
HETATM   30  C1  UNL     1      17.437  -0.990  52.765  1.00  0.00     0.210 C 
ENDBRANCH   1  29
TORSDOF 5
ENDMDL
MODEL 2
REMARK VINA RESULT:      -8.7      3.612      7.399
REMARK  5 active torsions:
REMARK  status: ('A' for Active; 'I' for Inactive)
REMARK    1  A    between atoms: O1_2  and  C2_3 
REMARK    2  A    between atoms: C4_5  and  O2_6 
REMARK    3  A    between atoms: O2_6  and  C5_7 
REMARK    4  A    between atoms: C11_14  and  N2_15 
REMARK    5  A    between atoms: N2_15  and  C12_16 
ROOT
HETATM    1  C2  UNL     1      26.829   4.299  49.351  1.00  0.00     0.073 A 
HETATM    2  C3  UNL     1      26.683   3.105  50.070  1.00  0.00     0.074 A 
HETATM    3  C4  UNL     1      25.632   2.879  50.933  1.00  0.00     0.088 A 
HETATM    4  C10 UNL     1      24.711   3.888  51.069  1.00  0.00     0.072 A 
HETATM    5  C11 UNL     1      23.641   3.727  51.913  1.00  0.00     0.144 A 
HETATM    6  N3  UNL     1      22.783   4.744  51.999  1.00  0.00    -0.223 NA
HETATM    7  C18 UNL     1      22.904   5.889  51.323  1.00  0.00     0.236 A 
HETATM    8  N4  UNL     1      23.953   6.045  50.498  1.00  0.00    -0.241 NA
HETATM    9  C19 UNL     1      24.857   5.060  50.361  1.00  0.00     0.077 A 
HETATM   10  C20 UNL     1      25.896   5.317  49.492  1.00  0.00     0.069 A 
ENDROOT
BRANCH   5  11
HETATM   11  N2  UNL     1      23.403   2.579  52.705  1.00  0.00    -0.340 N 
HETATM   12  H15 UNL     1      23.851   2.058  53.477  1.00  0.00     0.167 HD
BRANCH  11  13
HETATM   13  C12 UNL     1      22.232   1.769  52.523  1.00  0.00     0.035 A 
HETATM   14  C13 UNL     1      21.189   1.946  51.644  1.00  0.00     0.032 A 
HETATM   15  C14 UNL     1      20.099   1.115  51.567  1.00  0.00     0.046 A 
HETATM   16  C15 UNL     1      20.004   0.025  52.403  1.00  0.00     0.138 A 
HETATM   17  F1  UNL     1      18.906  -0.743  52.266  1.00  0.00    -0.204 F 
HETATM   18  C16 UNL     1      21.030  -0.180  53.294  1.00  0.00     0.074 A 
HETATM   19 CL1  UNL     1      20.783  -1.612  54.306  1.00  0.00    -0.081 Cl
HETATM   20  C17 UNL     1      22.127   0.661  53.368  1.00  0.00     0.056 A 
ENDBRANCH  11  13
ENDBRANCH   5  11
BRANCH   3  21
HETATM   21  O2  UNL     1      25.544   1.709  51.598  1.00  0.00    -0.345 OA
BRANCH  21  22
HETATM   22  C5  UNL     1      26.505   0.943  52.232  1.00  0.00     0.132 C 
HETATM   23  C6  UNL     1      27.061   1.669  53.445  1.00  0.00     0.062 C 
HETATM   24  C7  UNL     1      27.769   0.676  54.333  1.00  0.00     0.272 C 
HETATM   25  N1  UNL     1      26.969  -0.417  54.776  1.00  0.00     0.083 N 
HETATM   26  C8  UNL     1      25.660  -0.381  54.171  1.00  0.00     0.272 C 
HETATM   27  H10 UNL     1      26.836  -0.324  55.824  1.00  0.00     0.315 HD
HETATM   28  C9  UNL     1      25.857  -0.371  52.658  1.00  0.00     0.062 C 
ENDBRANCH  21  22
ENDBRANCH   3  21
BRANCH   1  29
HETATM   29  O1  UNL     1      27.909   4.509  48.476  1.00  0.00    -0.356 OA
HETATM   30  C1  UNL     1      28.430   5.810  48.277  1.00  0.00     0.210 C 
ENDBRANCH   1  29
TORSDOF 5
ENDMDL
MODEL 3
REMARK VINA RESULT:      -8.6      2.026      4.929
REMARK  5 active torsions:
REMARK  status: ('A' for Active; 'I' for Inactive)
REMARK    1  A    between atoms: O1_2  and  C2_3 
REMARK    2  A    between atoms: C4_5  and  O2_6 
REMARK    3  A    between atoms: O2_6  and  C5_7 
REMARK    4  A    between atoms: C11_14  and  N2_15 
REMARK    5  A    between atoms: N2_15  and  C12_16 
ROOT
HETATM    1  C2  UNL     1      22.162   3.080  49.305  1.00  0.00     0.073 A 
HETATM    2  C3  UNL     1      22.142   2.333  50.492  1.00  0.00     0.074 A 
HETATM    3  C4  UNL     1      23.275   2.095  51.241  1.00  0.00     0.088 A 
HETATM    4  C10 UNL     1      24.452   2.624  50.774  1.00  0.00     0.072 A 
HETATM    5  C11 UNL     1      25.616   2.422  51.472  1.00  0.00     0.144 A 
HETATM    6  N3  UNL     1      26.724   2.964  50.965  1.00  0.00    -0.223 NA
HETATM    7  C18 UNL     1      26.764   3.677  49.838  1.00  0.00     0.236 A 
HETATM    8  N4  UNL     1      25.624   3.874  49.155  1.00  0.00    -0.241 NA
HETATM    9  C19 UNL     1      24.469   3.357  49.608  1.00  0.00     0.077 A 
HETATM   10  C20 UNL     1      23.355   3.613  48.837  1.00  0.00     0.069 A 
ENDROOT
BRANCH   5  11
HETATM   11  N2  UNL     1      25.722   1.669  52.665  1.00  0.00    -0.340 N 
HETATM   12  H15 UNL     1      25.129   1.386  53.463  1.00  0.00     0.167 HD
BRANCH  11  13
HETATM   13  C12 UNL     1      26.951   1.032  53.046  1.00  0.00     0.035 A 
HETATM   14  C13 UNL     1      28.084   1.597  53.583  1.00  0.00     0.032 A 
HETATM   15  C14 UNL     1      29.220   0.892  53.894  1.00  0.00     0.046 A 
HETATM   16  C15 UNL     1      29.272  -0.465  53.670  1.00  0.00     0.138 A 
HETATM   17  F1  UNL     1      30.420  -1.086  54.002  1.00  0.00    -0.204 F 
HETATM   18  C16 UNL     1      28.155  -1.060  53.133  1.00  0.00     0.074 A 
HETATM   19 CL1  UNL     1      28.354  -2.803  52.896  1.00  0.00    -0.081 Cl
HETATM   20  C17 UNL     1      27.011  -0.345  52.821  1.00  0.00     0.056 A 
ENDBRANCH  11  13
ENDBRANCH   5  11
BRANCH   3  21
HETATM   21  O2  UNL     1      23.194   1.369  52.375  1.00  0.00    -0.345 OA
BRANCH  21  22
HETATM   22  C5  UNL     1      22.539   0.185  52.657  1.00  0.00     0.132 C 
HETATM   23  C6  UNL     1      23.143  -0.491  53.877  1.00  0.00     0.062 C 
HETATM   24  C7  UNL     1      22.176  -1.522  54.401  1.00  0.00     0.272 C 
HETATM   25  N1  UNL     1      20.886  -1.022  54.743  1.00  0.00     0.083 N 
HETATM   26  C8  UNL     1      20.762   0.373  54.400  1.00  0.00     0.272 C 
HETATM   27  H10 UNL     1      20.770  -1.100  55.794  1.00  0.00     0.315 HD
HETATM   28  C9  UNL     1      21.069   0.506  52.911  1.00  0.00     0.062 C 
ENDBRANCH  21  22
ENDBRANCH   3  21
BRANCH   1  29
HETATM   29  O1  UNL     1      20.995   3.311  48.557  1.00  0.00    -0.356 OA
HETATM   30  C1  UNL     1      19.773   2.699  48.925  1.00  0.00     0.210 C 
ENDBRANCH   1  29
TORSDOF 5
ENDMDL
MODEL 4
REMARK VINA RESULT:      -8.4      3.478      5.687
REMARK  5 active torsions:
REMARK  status: ('A' for Active; 'I' for Inactive)
REMARK    1  A    between atoms: O1_2  and  C2_3 
REMARK    2  A    between atoms: C4_5  and  O2_6 
REMARK    3  A    between atoms: O2_6  and  C5_7 
REMARK    4  A    between atoms: C11_14  and  N2_15 
REMARK    5  A    between atoms: N2_15  and  C12_16 
ROOT
HETATM    1  C2  UNL     1      21.737  -0.082  52.672  1.00  0.00     0.073 A 
HETATM    2  C3  UNL     1      22.963   0.410  53.139  1.00  0.00     0.074 A 
HETATM    3  C4  UNL     1      23.743   1.280  52.409  1.00  0.00     0.088 A 
HETATM    4  C10 UNL     1      23.268   1.659  51.178  1.00  0.00     0.072 A 
HETATM    5  C11 UNL     1      23.997   2.523  50.400  1.00  0.00     0.144 A 
HETATM    6  N3  UNL     1      23.479   2.850  49.216  1.00  0.00    -0.223 NA
HETATM    7  C18 UNL     1      22.314   2.393  48.753  1.00  0.00     0.236 A 
HETATM    8  N4  UNL     1      21.601   1.546  49.515  1.00  0.00    -0.241 NA
HETATM    9  C19 UNL     1      22.062   1.173  50.721  1.00  0.00     0.077 A 
HETATM   10  C20 UNL     1      21.260   0.302  51.426  1.00  0.00     0.069 A 
ENDROOT
BRANCH   5  11
HETATM   11  N2  UNL     1      25.255   3.064  50.755  1.00  0.00    -0.340 N 
HETATM   12  H15 UNL     1      25.991   2.921  51.466  1.00  0.00     0.167 HD
BRANCH  11  13
HETATM   13  C12 UNL     1      25.845   4.144  50.017  1.00  0.00     0.035 A 
HETATM   14  C13 UNL     1      26.936   4.122  49.181  1.00  0.00     0.032 A 
HETATM   15  C14 UNL     1      27.434   5.228  48.537  1.00  0.00     0.046 A 
HETATM   16  C15 UNL     1      26.832   6.454  48.710  1.00  0.00     0.138 A 
HETATM   17  F1  UNL     1      27.377   7.490  48.043  1.00  0.00    -0.204 F 
HETATM   18  C16 UNL     1      25.738   6.511  49.541  1.00  0.00     0.074 A 
HETATM   19 CL1  UNL     1      25.064   8.142  49.676  1.00  0.00    -0.081 Cl
HETATM   20  C17 UNL     1      25.241   5.393  50.189  1.00  0.00     0.056 A 
ENDBRANCH  11  13
ENDBRANCH   5  11
BRANCH   3  21
HETATM   21  O2  UNL     1      24.915   1.721  52.911  1.00  0.00    -0.345 OA
BRANCH  21  22
HETATM   22  C5  UNL     1      25.937   1.056  53.563  1.00  0.00     0.132 C 
HETATM   23  C6  UNL     1      26.659   0.112  52.618  1.00  0.00     0.062 C 
HETATM   24  C7  UNL     1      27.990  -0.267  53.218  1.00  0.00     0.272 C 
HETATM   25  N1  UNL     1      28.850   0.828  53.521  1.00  0.00     0.083 N 
HETATM   26  C8  UNL     1      28.192   2.088  53.279  1.00  0.00     0.272 C 
HETATM   27  H10 UNL     1      29.688   0.779  52.873  1.00  0.00     0.315 HD
HETATM   28  C9  UNL     1      26.909   2.099  54.106  1.00  0.00     0.062 C 
ENDBRANCH  21  22
ENDBRANCH   3  21
BRANCH   1  29
HETATM   29  O1  UNL     1      20.957  -0.970  53.433  1.00  0.00    -0.356 OA
HETATM   30  C1  UNL     1      21.502  -1.610  54.571  1.00  0.00     0.210 C 
ENDBRANCH   1  29
TORSDOF 5
ENDMDL
MODEL 5
REMARK VINA RESULT:      -8.3      3.990      7.494
REMARK  5 active torsions:
REMARK  status: ('A' for Active; 'I' for Inactive)
REMARK    1  A    between atoms: O1_2  and  C2_3 
REMARK    2  A    between atoms: C4_5  and  O2_6 
REMARK    3  A    between atoms: O2_6  and  C5_7 
REMARK    4  A    between atoms: C11_14  and  N2_15 
REMARK    5  A    between atoms: N2_15  and  C12_16 
ROOT
HETATM    1  C2  UNL     1      26.996  -0.013  53.299  1.00  0.00     0.073 A 
HETATM    2  C3  UNL     1      25.606  -0.096  53.466  1.00  0.00     0.074 A 
HETATM    3  C4  UNL     1      24.729   0.765  52.844  1.00  0.00     0.088 A 
HETATM    4  C10 UNL     1      25.273   1.732  52.034  1.00  0.00     0.072 A 
HETATM    5  C11 UNL     1      24.454   2.621  51.386  1.00  0.00     0.144 A 
HETATM    6  N3  UNL     1      25.046   3.533  50.615  1.00  0.00    -0.223 NA
HETATM    7  C18 UNL     1      26.366   3.629  50.442  1.00  0.00     0.236 A 
HETATM    8  N4  UNL     1      27.167   2.758  51.079  1.00  0.00    -0.241 NA
HETATM    9  C19 UNL     1      26.639   1.810  51.872  1.00  0.00     0.077 A 
HETATM   10  C20 UNL     1      27.542   0.966  52.480  1.00  0.00     0.069 A 
ENDROOT
BRANCH   5  11
HETATM   11  N2  UNL     1      23.044   2.649  51.497  1.00  0.00    -0.340 N 
HETATM   12  H15 UNL     1      22.321   2.685  52.235  1.00  0.00     0.167 HD
BRANCH  11  13
HETATM   13  C12 UNL     1      22.197   2.626  50.338  1.00  0.00     0.035 A 
HETATM   14  C13 UNL     1      22.201   1.742  49.285  1.00  0.00     0.032 A 
HETATM   15  C14 UNL     1      21.354   1.827  48.207  1.00  0.00     0.046 A 
HETATM   16  C15 UNL     1      20.428   2.843  48.138  1.00  0.00     0.138 A 
HETATM   17  F1  UNL     1      19.632   2.857  47.051  1.00  0.00    -0.204 F 
HETATM   18  C16 UNL     1      20.399   3.745  49.175  1.00  0.00     0.074 A 
HETATM   19 CL1  UNL     1      19.166   4.998  48.960  1.00  0.00    -0.081 Cl
HETATM   20  C17 UNL     1      21.256   3.656  50.259  1.00  0.00     0.056 A 
ENDBRANCH  11  13
ENDBRANCH   5  11
BRANCH   3  21
HETATM   21  O2  UNL     1      23.401   0.636  53.043  1.00  0.00    -0.345 OA
BRANCH  21  22
HETATM   22  C5  UNL     1      22.589  -0.482  53.098  1.00  0.00     0.132 C 
HETATM   23  C6  UNL     1      22.337  -0.897  54.537  1.00  0.00     0.062 C 
HETATM   24  C7  UNL     1      21.147  -1.823  54.582  1.00  0.00     0.272 C 
HETATM   25  N1  UNL     1      19.943  -1.288  54.039  1.00  0.00     0.083 N 
HETATM   26  C8  UNL     1      20.169   0.011  53.457  1.00  0.00     0.272 C 
HETATM   27  H10 UNL     1      19.251  -1.163  54.832  1.00  0.00     0.315 HD
HETATM   28  C9  UNL     1      21.270  -0.142  52.411  1.00  0.00     0.062 C 
ENDBRANCH  21  22
ENDBRANCH   3  21
BRANCH   1  29
HETATM   29  O1  UNL     1      27.874  -0.902  53.944  1.00  0.00    -0.356 OA
HETATM   30  C1  UNL     1      29.274  -0.734  53.833  1.00  0.00     0.210 C 
ENDBRANCH   1  29
TORSDOF 5
ENDMDL
MODEL 6
REMARK VINA RESULT:      -8.2      4.197      6.737
REMARK  5 active torsions:
REMARK  status: ('A' for Active; 'I' for Inactive)
REMARK    1  A    between atoms: O1_2  and  C2_3 
REMARK    2  A    between atoms: C4_5  and  O2_6 
REMARK    3  A    between atoms: O2_6  and  C5_7 
REMARK    4  A    between atoms: C11_14  and  N2_15 
REMARK    5  A    between atoms: N2_15  and  C12_16 
ROOT
HETATM    1  C2  UNL     1      25.788  -0.315  54.600  1.00  0.00     0.073 A 
HETATM    2  C3  UNL     1      25.561   0.435  53.437  1.00  0.00     0.074 A 
HETATM    3  C4  UNL     1      24.322   0.524  52.839  1.00  0.00     0.088 A 
HETATM    4  C10 UNL     1      23.293  -0.163  53.433  1.00  0.00     0.072 A 
HETATM    5  C11 UNL     1      22.035  -0.116  52.887  1.00  0.00     0.144 A 
HETATM    6  N3  UNL     1      21.081  -0.805  53.514  1.00  0.00    -0.223 NA
HETATM    7  C18 UNL     1      21.276  -1.524  54.621  1.00  0.00     0.236 A 
HETATM    8  N4  UNL     1      22.509  -1.569  55.155  1.00  0.00    -0.241 NA
HETATM    9  C19 UNL     1      23.519  -0.899  54.576  1.00  0.00     0.077 A 
HETATM   10  C20 UNL     1      24.745  -1.008  55.198  1.00  0.00     0.069 A 
ENDROOT
BRANCH   5  11
HETATM   11  N2  UNL     1      21.693   0.585  51.708  1.00  0.00    -0.340 N 
HETATM   12  H15 UNL     1      22.128   0.863  50.812  1.00  0.00     0.167 HD
BRANCH  11  13
HETATM   13  C12 UNL     1      20.388   1.153  51.522  1.00  0.00     0.035 A 
HETATM   14  C13 UNL     1      19.901   2.359  51.969  1.00  0.00     0.032 A 
HETATM   15  C14 UNL     1      18.618   2.799  51.751  1.00  0.00     0.046 A 
HETATM   16  C15 UNL     1      17.733   2.015  51.046  1.00  0.00     0.138 A 
HETATM   17  F1  UNL     1      16.494   2.516  50.872  1.00  0.00    -0.204 F 
HETATM   18  C16 UNL     1      18.189   0.803  50.585  1.00  0.00     0.074 A 
HETATM   19 CL1  UNL     1      16.952  -0.102  49.697  1.00  0.00    -0.081 Cl
HETATM   20  C17 UNL     1      19.482   0.363  50.808  1.00  0.00     0.056 A 
ENDBRANCH  11  13
ENDBRANCH   5  11
BRANCH   3  21
HETATM   21  O2  UNL     1      24.164   1.261  51.721  1.00  0.00    -0.345 OA
BRANCH  21  22
HETATM   22  C5  UNL     1      24.555   2.551  51.414  1.00  0.00     0.132 C 
HETATM   23  C6  UNL     1      23.970   2.992  50.083  1.00  0.00     0.062 C 
HETATM   24  C7  UNL     1      24.055   4.494  49.979  1.00  0.00     0.272 C 
HETATM   25  N1  UNL     1      23.408   5.211  51.027  1.00  0.00     0.083 N 
HETATM   26  C8  UNL     1      22.898   4.311  52.033  1.00  0.00     0.272 C 
HETATM   27  H10 UNL     1      22.578   5.724  50.613  1.00  0.00     0.315 HD
HETATM   28  C9  UNL     1      24.071   3.471  52.530  1.00  0.00     0.062 C 
ENDBRANCH  21  22
ENDBRANCH   3  21
BRANCH   1  29
HETATM   29  O1  UNL     1      27.060  -0.393  55.194  1.00  0.00    -0.356 OA
HETATM   30  C1  UNL     1      28.210   0.025  54.484  1.00  0.00     0.210 C 
ENDBRANCH   1  29
TORSDOF 5
ENDMDL
MODEL 7
REMARK VINA RESULT:      -8.1      3.617      5.535
REMARK  5 active torsions:
REMARK  status: ('A' for Active; 'I' for Inactive)
REMARK    1  A    between atoms: O1_2  and  C2_3 
REMARK    2  A    between atoms: C4_5  and  O2_6 
REMARK    3  A    between atoms: O2_6  and  C5_7 
REMARK    4  A    between atoms: C11_14  and  N2_15 
REMARK    5  A    between atoms: N2_15  and  C12_16 
ROOT
HETATM    1  C2  UNL     1      23.530  -0.354  53.711  1.00  0.00     0.073 A 
HETATM    2  C3  UNL     1      22.914   0.282  52.624  1.00  0.00     0.074 A 
HETATM    3  C4  UNL     1      23.580   1.164  51.802  1.00  0.00     0.088 A 
HETATM    4  C10 UNL     1      24.900   1.408  52.089  1.00  0.00     0.072 A 
HETATM    5  C11 UNL     1      25.620   2.277  51.309  1.00  0.00     0.144 A 
HETATM    6  N3  UNL     1      26.897   2.468  51.642  1.00  0.00    -0.223 NA
HETATM    7  C18 UNL     1      27.503   1.873  52.672  1.00  0.00     0.236 A 
HETATM    8  N4  UNL     1      26.796   1.022  53.435  1.00  0.00    -0.241 NA
HETATM    9  C19 UNL     1      25.503   0.781  53.158  1.00  0.00     0.077 A 
HETATM   10  C20 UNL     1      24.865  -0.105  53.999  1.00  0.00     0.069 A 
ENDROOT
BRANCH   5  11
HETATM   11  N2  UNL     1      25.100   2.991  50.205  1.00  0.00    -0.340 N 
HETATM   12  H15 UNL     1      24.327   2.917  49.523  1.00  0.00     0.167 HD
BRANCH  11  13
HETATM   13  C12 UNL     1      25.698   4.214  49.750  1.00  0.00     0.035 A 
HETATM   14  C13 UNL     1      26.833   4.390  48.994  1.00  0.00     0.032 A 
HETATM   15  C14 UNL     1      27.333   5.616  48.631  1.00  0.00     0.046 A 
HETATM   16  C15 UNL     1      26.689   6.767  49.027  1.00  0.00     0.138 A 
HETATM   17  F1  UNL     1      27.239   7.930  48.630  1.00  0.00    -0.204 F 
HETATM   18  C16 UNL     1      25.551   6.626  49.785  1.00  0.00     0.074 A 
HETATM   19 CL1  UNL     1      24.824   8.179  50.226  1.00  0.00    -0.081 Cl
HETATM   20  C17 UNL     1      25.051   5.387  50.150  1.00  0.00     0.056 A 
ENDBRANCH  11  13
ENDBRANCH   5  11
BRANCH   3  21
HETATM   21  O2  UNL     1      22.933   1.745  50.770  1.00  0.00    -0.345 OA
BRANCH  21  22
HETATM   22  C5  UNL     1      21.730   1.443  50.159  1.00  0.00     0.132 C 
HETATM   23  C6  UNL     1      20.697   2.522  50.436  1.00  0.00     0.062 C 
HETATM   24  C7  UNL     1      19.568   2.391  49.444  1.00  0.00     0.272 C 
HETATM   25  N1  UNL     1      19.955   2.464  48.075  1.00  0.00     0.083 N 
HETATM   26  C8  UNL     1      21.390   2.541  47.944  1.00  0.00     0.272 C 
HETATM   27  H10 UNL     1      19.553   3.356  47.665  1.00  0.00     0.315 HD
HETATM   28  C9  UNL     1      21.978   1.328  48.658  1.00  0.00     0.062 C 
ENDBRANCH  21  22
ENDBRANCH   3  21
BRANCH   1  29
HETATM   29  O1  UNL     1      22.832  -1.251  54.538  1.00  0.00    -0.356 OA
HETATM   30  C1  UNL     1      21.429  -1.393  54.420  1.00  0.00     0.210 C 
ENDBRANCH   1  29
TORSDOF 5
ENDMDL
MODEL 8
REMARK VINA RESULT:      -8.0      4.154      6.706
REMARK  5 active torsions:
REMARK  status: ('A' for Active; 'I' for Inactive)
REMARK    1  A    between atoms: O1_2  and  C2_3 
REMARK    2  A    between atoms: C4_5  and  O2_6 
REMARK    3  A    between atoms: O2_6  and  C5_7 
REMARK    4  A    between atoms: C11_14  and  N2_15 
REMARK    5  A    between atoms: N2_15  and  C12_16 
ROOT
HETATM    1  C2  UNL     1      25.653  -0.349  54.444  1.00  0.00     0.073 A 
HETATM    2  C3  UNL     1      25.399   0.521  53.374  1.00  0.00     0.074 A 
HETATM    3  C4  UNL     1      24.136   0.719  52.859  1.00  0.00     0.088 A 
HETATM    4  C10 UNL     1      23.109   0.019  53.443  1.00  0.00     0.072 A 
HETATM    5  C11 UNL     1      21.828   0.171  52.977  1.00  0.00     0.144 A 
HETATM    6  N3  UNL     1      20.877  -0.537  53.588  1.00  0.00    -0.223 NA
HETATM    7  C18 UNL     1      21.098  -1.371  54.607  1.00  0.00     0.236 A 
HETATM    8  N4  UNL     1      22.354  -1.518  55.062  1.00  0.00    -0.241 NA
HETATM    9  C19 UNL     1      23.362  -0.835  54.494  1.00  0.00     0.077 A 
HETATM   10  C20 UNL     1      24.612  -1.055  55.030  1.00  0.00     0.069 A 
ENDROOT
BRANCH   5  11
HETATM   11  N2  UNL     1      21.455   0.999  51.893  1.00  0.00    -0.340 N 
HETATM   12  H15 UNL     1      21.900   1.632  51.207  1.00  0.00     0.167 HD
BRANCH  11  13
HETATM   13  C12 UNL     1      20.088   1.120  51.473  1.00  0.00     0.035 A 
HETATM   14  C13 UNL     1      19.313   0.214  50.788  1.00  0.00     0.032 A 
HETATM   15  C14 UNL     1      18.011   0.443  50.415  1.00  0.00     0.046 A 
HETATM   16  C15 UNL     1      17.406   1.639  50.726  1.00  0.00     0.138 A 
HETATM   17  F1  UNL     1      16.128   1.788  50.327  1.00  0.00    -0.204 F 
HETATM   18  C16 UNL     1      18.155   2.568  51.410  1.00  0.00     0.074 A 
HETATM   19 CL1  UNL     1      17.259   4.059  51.744  1.00  0.00    -0.081 Cl
HETATM   20  C17 UNL     1      19.467   2.333  51.783  1.00  0.00     0.056 A 
ENDBRANCH  11  13
ENDBRANCH   5  11
BRANCH   3  21
HETATM   21  O2  UNL     1      23.952   1.570  51.829  1.00  0.00    -0.345 OA
BRANCH  21  22
HETATM   22  C5  UNL     1      24.371   2.873  51.634  1.00  0.00     0.132 C 
HETATM   23  C6  UNL     1      23.864   3.412  50.307  1.00  0.00     0.062 C 
HETATM   24  C7  UNL     1      23.968   4.916  50.312  1.00  0.00     0.272 C 
HETATM   25  N1  UNL     1      23.270   5.567  51.370  1.00  0.00     0.083 N 
HETATM   26  C8  UNL     1      22.697   4.607  52.282  1.00  0.00     0.272 C 
HETATM   27  H10 UNL     1      22.469   6.118  50.947  1.00  0.00     0.315 HD
HETATM   28  C9  UNL     1      23.833   3.720  52.783  1.00  0.00     0.062 C 
ENDBRANCH  21  22
ENDBRANCH   3  21
BRANCH   1  29
HETATM   29  O1  UNL     1      26.950  -0.537  54.953  1.00  0.00    -0.356 OA
HETATM   30  C1  UNL     1      28.006   0.321  54.563  1.00  0.00     0.210 C 
ENDBRANCH   1  29
TORSDOF 5
ENDMDL
MODEL 9
REMARK VINA RESULT:      -7.9      3.809      6.619
REMARK  5 active torsions:
REMARK  status: ('A' for Active; 'I' for Inactive)
REMARK    1  A    between atoms: O1_2  and  C2_3 
REMARK    2  A    between atoms: C4_5  and  O2_6 
REMARK    3  A    between atoms: O2_6  and  C5_7 
REMARK    4  A    between atoms: C11_14  and  N2_15 
REMARK    5  A    between atoms: N2_15  and  C12_16 
ROOT
HETATM    1  C2  UNL     1      27.586   0.642  53.583  1.00  0.00     0.073 A 
HETATM    2  C3  UNL     1      26.771   1.263  52.626  1.00  0.00     0.074 A 
HETATM    3  C4  UNL     1      25.406   1.082  52.580  1.00  0.00     0.088 A 
HETATM    4  C10 UNL     1      24.856   0.251  53.524  1.00  0.00     0.072 A 
HETATM    5  C11 UNL     1      23.503   0.027  53.532  1.00  0.00     0.144 A 
HETATM    6  N3  UNL     1      23.033  -0.790  54.475  1.00  0.00    -0.223 NA
HETATM    7  C18 UNL     1      23.791  -1.392  55.395  1.00  0.00     0.236 A 
HETATM    8  N4  UNL     1      25.117  -1.172  55.385  1.00  0.00    -0.241 NA
HETATM    9  C19 UNL     1      25.659  -0.359  54.462  1.00  0.00     0.077 A 
HETATM   10  C20 UNL     1      27.026  -0.199  54.535  1.00  0.00     0.069 A 
ENDROOT
BRANCH   5  11
HETATM   11  N2  UNL     1      22.587   0.579  52.606  1.00  0.00    -0.340 N 
HETATM   12  H15 UNL     1      22.581   1.261  51.829  1.00  0.00     0.167 HD
BRANCH  11  13
HETATM   13  C12 UNL     1      21.205   0.193  52.592  1.00  0.00     0.035 A 
HETATM   14  C13 UNL     1      20.499  -0.516  53.535  1.00  0.00     0.032 A 
HETATM   15  C14 UNL     1      19.173  -0.852  53.411  1.00  0.00     0.046 A 
HETATM   16  C15 UNL     1      18.470  -0.476  52.290  1.00  0.00     0.138 A 
HETATM   17  F1  UNL     1      17.174  -0.841  52.242  1.00  0.00    -0.204 F 
HETATM   18  C16 UNL     1      19.147   0.235  51.327  1.00  0.00     0.074 A 
HETATM   19 CL1  UNL     1      18.129   0.655  49.941  1.00  0.00    -0.081 Cl
HETATM   20  C17 UNL     1      20.484   0.571  51.456  1.00  0.00     0.056 A 
ENDBRANCH  11  13
ENDBRANCH   5  11
BRANCH   3  21
HETATM   21  O2  UNL     1      24.673   1.708  51.636  1.00  0.00    -0.345 OA
BRANCH  21  22
HETATM   22  C5  UNL     1      24.731   2.997  51.139  1.00  0.00     0.132 C 
HETATM   23  C6  UNL     1      24.327   3.032  49.676  1.00  0.00     0.062 C 
HETATM   24  C7  UNL     1      23.996   4.451  49.288  1.00  0.00     0.272 C 
HETATM   25  N1  UNL     1      22.972   5.068  50.064  1.00  0.00     0.083 N 
HETATM   26  C8  UNL     1      22.549   4.207  51.142  1.00  0.00     0.272 C 
HETATM   27  H10 UNL     1      22.132   5.225  49.437  1.00  0.00     0.315 HD
HETATM   28  C9  UNL     1      23.787   3.865  51.965  1.00  0.00     0.062 C 
ENDBRANCH  21  22
ENDBRANCH   3  21
BRANCH   1  29
HETATM   29  O1  UNL     1      28.977   0.840  53.612  1.00  0.00    -0.356 OA
HETATM   30  C1  UNL     1      29.862  -0.259  53.508  1.00  0.00     0.210 C 
ENDBRANCH   1  29
TORSDOF 5
ENDMDL
