MODEL 1
REMARK VINA RESULT:      -9.3      0.000      0.000
REMARK  1 active torsions:
REMARK  status: ('A' for Active; 'I' for Inactive)
REMARK    1  A    between atoms: C2_2  and  C3_3 
REMARK       I    between atoms: C3_3  and  N1_5 
ROOT
HETATM    1  C3  UNL     1      18.977  -0.336  52.733  1.00  0.00     0.242 C 
HETATM    2  O1  UNL     1      18.346  -0.669  53.769  1.00  0.00    -0.268 OA
HETATM    3  N1  UNL     1      20.303   0.168  52.775  1.00  0.00    -0.344 N 
HETATM    4  C4  UNL     1      21.030   0.341  53.986  1.00  0.00     0.131 C 
HETATM    5  C5  UNL     1      22.404  -0.412  53.904  1.00  0.00     0.060 C 
HETATM    6  C6  UNL     1      23.002   0.412  52.845  1.00  0.00    -0.032 C 
HETATM    7  C7  UNL     1      22.360   0.851  51.742  1.00  0.00    -0.022 C 
HETATM    8  C8  UNL     1      20.915   0.516  51.487  1.00  0.00     0.166 C 
HETATM    9  C9  UNL     1      22.685   1.687  50.564  1.00  0.00    -0.023 A 
HETATM   10  C10 UNL     1      23.535   2.726  50.467  1.00  0.00    -0.043 A 
HETATM   11  C11 UNL     1      23.459   3.189  49.035  1.00  0.00     0.064 A 
HETATM   12  C12 UNL     1      22.482   2.263  48.465  1.00  0.00    -0.021 A 
HETATM   13  C13 UNL     1      22.004   1.372  49.315  1.00  0.00     0.008 A 
HETATM   14  C14 UNL     1      24.464   3.528  51.271  1.00  0.00     0.109 C 
HETATM   15  C15 UNL     1      25.469   4.242  50.354  1.00  0.00     0.037 C 
HETATM   16  N2  UNL     1      25.238   2.839  52.241  1.00  0.00    -0.366 N 
HETATM   17  C16 UNL     1      25.325   1.629  52.979  1.00  0.00     0.137 A 
HETATM   18  N3  UNL     1      26.556   1.463  53.517  1.00  0.00    -0.224 NA
HETATM   19  C17 UNL     1      26.805   0.347  54.242  1.00  0.00     0.234 A 
HETATM   20  N4  UNL     1      25.934  -0.650  54.499  1.00  0.00    -0.253 NA
HETATM   21  C18 UNL     1      24.693  -0.512  53.975  1.00  0.00     0.134 A 
HETATM   22  C19 UNL     1      24.416   0.625  53.228  1.00  0.00     0.034 A 
HETATM   23  H18 UNL     1      26.062   3.440  52.532  1.00  0.00     0.161 HD
ENDROOT
BRANCH   1  24
HETATM   24  C2  UNL     1      18.233  -0.513  51.503  1.00  0.00     0.064 C 
HETATM   25  C1  UNL     1      16.932  -0.522  51.600  1.00  0.00     0.017 C 
ENDBRANCH   1  24
TORSDOF 1
ENDMDL
MODEL 2
REMARK VINA RESULT:      -9.1      2.423      5.776
REMARK  1 active torsions:
REMARK  status: ('A' for Active; 'I' for Inactive)
REMARK    1  A    between atoms: C2_2  and  C3_3 
REMARK       I    between atoms: C3_3  and  N1_5 
ROOT
HETATM    1  C3  UNL     1      27.748   0.202  53.552  1.00  0.00     0.242 C 
HETATM    2  O1  UNL     1      28.250  -0.805  54.114  1.00  0.00    -0.268 OA
HETATM    3  N1  UNL     1      26.405   0.231  53.092  1.00  0.00    -0.344 N 
HETATM    4  C4  UNL     1      25.515  -0.871  53.226  1.00  0.00     0.131 C 
HETATM    5  C5  UNL     1      24.203  -0.421  53.957  1.00  0.00     0.060 C 
HETATM    6  C6  UNL     1      23.713   0.488  52.912  1.00  0.00    -0.032 C 
HETATM    7  C7  UNL     1      24.474   1.355  52.212  1.00  0.00    -0.022 C 
HETATM    8  C8  UNL     1      25.956   1.474  52.455  1.00  0.00     0.166 C 
HETATM    9  C9  UNL     1      24.271   2.337  51.122  1.00  0.00    -0.023 A 
HETATM   10  C10 UNL     1      23.392   2.306  50.103  1.00  0.00    -0.043 A 
HETATM   11  C11 UNL     1      23.636   3.563  49.309  1.00  0.00     0.064 A 
HETATM   12  C12 UNL     1      24.724   4.191  50.057  1.00  0.00    -0.021 A 
HETATM   13  C13 UNL     1      25.126   3.516  51.118  1.00  0.00     0.008 A 
HETATM   14  C14 UNL     1      22.326   1.475  49.531  1.00  0.00     0.109 C 
HETATM   15  C15 UNL     1      21.420   2.331  48.633  1.00  0.00     0.037 C 
HETATM   16  N2  UNL     1      21.464   0.813  50.444  1.00  0.00    -0.366 N 
HETATM   17  C16 UNL     1      21.337   0.401  51.797  1.00  0.00     0.137 A 
HETATM   18  N3  UNL     1      20.054   0.098  52.105  1.00  0.00    -0.224 NA
HETATM   19  C17 UNL     1      19.765  -0.302  53.366  1.00  0.00     0.234 A 
HETATM   20  N4  UNL     1      20.640  -0.437  54.382  1.00  0.00    -0.253 NA
HETATM   21  C18 UNL     1      21.932  -0.142  54.104  1.00  0.00     0.134 A 
HETATM   22  C19 UNL     1      22.251   0.270  52.818  1.00  0.00     0.034 A 
HETATM   23  H18 UNL     1      20.580   0.509  49.942  1.00  0.00     0.161 HD
ENDROOT
BRANCH   1  24
HETATM   24  C2  UNL     1      28.657   1.321  53.418  1.00  0.00     0.064 C 
HETATM   25  C1  UNL     1      29.383   1.617  54.460  1.00  0.00     0.017 C 
ENDBRANCH   1  24
TORSDOF 1
ENDMDL
MODEL 3
REMARK VINA RESULT:      -9.1      2.012      4.322
REMARK  1 active torsions:
REMARK  status: ('A' for Active; 'I' for Inactive)
REMARK    1  A    between atoms: C2_2  and  C3_3 
REMARK       I    between atoms: C3_3  and  N1_5 
ROOT
HETATM    1  C3  UNL     1      18.017  -1.009  52.620  1.00  0.00     0.242 C 
HETATM    2  O1  UNL     1      17.048  -0.922  51.823  1.00  0.00    -0.268 OA
HETATM    3  N1  UNL     1      19.211  -0.261  52.456  1.00  0.00    -0.344 N 
HETATM    4  C4  UNL     1      19.415   0.650  51.381  1.00  0.00     0.131 C 
HETATM    5  C5  UNL     1      19.810   2.062  51.936  1.00  0.00     0.060 C 
HETATM    6  C6  UNL     1      21.105   1.678  52.513  1.00  0.00    -0.032 C 
HETATM    7  C7  UNL     1      21.345   0.545  53.206  1.00  0.00    -0.022 C 
HETATM    8  C8  UNL     1      20.259  -0.465  53.463  1.00  0.00     0.166 C 
HETATM    9  C9  UNL     1      22.510  -0.098  53.856  1.00  0.00    -0.023 A 
HETATM   10  C10 UNL     1      23.811  -0.048  53.513  1.00  0.00    -0.043 A 
HETATM   11  C11 UNL     1      24.538  -0.888  54.530  1.00  0.00     0.064 A 
HETATM   12  C12 UNL     1      23.447  -1.344  55.388  1.00  0.00    -0.021 A 
HETATM   13  C13 UNL     1      22.250  -0.911  55.037  1.00  0.00     0.008 A 
HETATM   14  C14 UNL     1      24.711   0.526  52.505  1.00  0.00     0.109 C 
HETATM   15  C15 UNL     1      26.148   0.561  53.048  1.00  0.00     0.037 C 
HETATM   16  N2  UNL     1      24.426   1.843  52.061  1.00  0.00    -0.366 N 
HETATM   17  C16 UNL     1      23.409   2.834  52.011  1.00  0.00     0.137 A 
HETATM   18  N3  UNL     1      23.921   4.056  51.731  1.00  0.00    -0.224 NA
HETATM   19  C17 UNL     1      23.077   5.113  51.660  1.00  0.00     0.234 A 
HETATM   20  N4  UNL     1      21.742   5.084  51.842  1.00  0.00    -0.253 NA
HETATM   21  C18 UNL     1      21.201   3.875  52.123  1.00  0.00     0.134 A 
HETATM   22  C19 UNL     1      22.047   2.778  52.201  1.00  0.00     0.034 A 
HETATM   23  H18 UNL     1      25.283   2.254  51.589  1.00  0.00     0.161 HD
ENDROOT
BRANCH   1  24
HETATM   24  C2  UNL     1      17.805  -1.937  53.711  1.00  0.00     0.064 C 
HETATM   25  C1  UNL     1      17.440  -3.148  53.390  1.00  0.00     0.017 C 
ENDBRANCH   1  24
TORSDOF 1
ENDMDL
MODEL 4
REMARK VINA RESULT:      -8.7      2.987      5.784
REMARK  1 active torsions:
REMARK  status: ('A' for Active; 'I' for Inactive)
REMARK    1  A    between atoms: C2_2  and  C3_3 
REMARK       I    between atoms: C3_3  and  N1_5 
ROOT
HETATM    1  C3  UNL     1      26.459   4.366  49.509  1.00  0.00     0.242 C 
HETATM    2  O1  UNL     1      27.579   4.208  48.960  1.00  0.00    -0.268 OA
HETATM    3  N1  UNL     1      25.871   3.378  50.343  1.00  0.00    -0.344 N 
HETATM    4  C4  UNL     1      26.495   2.131  50.628  1.00  0.00     0.131 C 
HETATM    5  C5  UNL     1      26.600   1.920  52.178  1.00  0.00     0.060 C 
HETATM    6  C6  UNL     1      25.160   1.827  52.450  1.00  0.00    -0.032 C 
HETATM    7  C7  UNL     1      24.210   2.611  51.898  1.00  0.00    -0.022 C 
HETATM    8  C8  UNL     1      24.559   3.699  50.917  1.00  0.00     0.166 C 
HETATM    9  C9  UNL     1      22.734   2.726  51.958  1.00  0.00    -0.023 A 
HETATM   10  C10 UNL     1      21.813   1.762  52.143  1.00  0.00    -0.043 A 
HETATM   11  C11 UNL     1      20.477   2.458  52.113  1.00  0.00     0.064 A 
HETATM   12  C12 UNL     1      20.861   3.850  51.890  1.00  0.00    -0.021 A 
HETATM   13  C13 UNL     1      22.162   4.055  51.793  1.00  0.00     0.008 A 
HETATM   14  C14 UNL     1      21.692   0.314  52.345  1.00  0.00     0.109 C 
HETATM   15  C15 UNL     1      20.334  -0.013  52.986  1.00  0.00     0.037 C 
HETATM   16  N2  UNL     1      22.672  -0.308  53.163  1.00  0.00    -0.366 N 
HETATM   17  C16 UNL     1      23.965  -0.133  53.724  1.00  0.00     0.137 A 
HETATM   18  N3  UNL     1      24.190  -1.007  54.733  1.00  0.00    -0.224 NA
HETATM   19  C17 UNL     1      25.377  -0.960  55.382  1.00  0.00     0.234 A 
HETATM   20  N4  UNL     1      26.394  -0.113  55.127  1.00  0.00    -0.253 NA
HETATM   21  C18 UNL     1      26.199   0.773  54.122  1.00  0.00     0.134 A 
HETATM   22  C19 UNL     1      24.989   0.743  53.443  1.00  0.00     0.034 A 
HETATM   23  H18 UNL     1      22.321  -1.257  53.481  1.00  0.00     0.161 HD
ENDROOT
BRANCH   1  24
HETATM   24  C2  UNL     1      25.827   5.635  49.217  1.00  0.00     0.064 C 
HETATM   25  C1  UNL     1      26.543   6.511  48.567  1.00  0.00     0.017 C 
ENDBRANCH   1  24
TORSDOF 1
ENDMDL
MODEL 5
REMARK VINA RESULT:      -8.5      2.733      6.561
REMARK  1 active torsions:
REMARK  status: ('A' for Active; 'I' for Inactive)
REMARK    1  A    between atoms: C2_2  and  C3_3 
REMARK       I    between atoms: C3_3  and  N1_5 
ROOT
HETATM    1  C3  UNL     1      25.336   4.559  49.889  1.00  0.00     0.242 C 
HETATM    2  O1  UNL     1      25.000   5.690  49.455  1.00  0.00    -0.268 OA
HETATM    3  N1  UNL     1      24.423   3.689  50.542  1.00  0.00    -0.344 N 
HETATM    4  C4  UNL     1      23.057   4.019  50.760  1.00  0.00     0.131 C 
HETATM    5  C5  UNL     1      22.129   2.899  50.173  1.00  0.00     0.060 C 
HETATM    6  C6  UNL     1      22.532   1.826  51.092  1.00  0.00    -0.032 C 
HETATM    7  C7  UNL     1      23.797   1.572  51.488  1.00  0.00    -0.022 C 
HETATM    8  C8  UNL     1      24.956   2.399  50.996  1.00  0.00     0.166 C 
HETATM    9  C9  UNL     1      24.476   0.615  52.391  1.00  0.00    -0.023 A 
HETATM   10  C10 UNL     1      24.022   0.047  53.524  1.00  0.00    -0.043 A 
HETATM   11  C11 UNL     1      25.138  -0.837  54.018  1.00  0.00     0.064 A 
HETATM   12  C12 UNL     1      26.169  -0.625  53.004  1.00  0.00    -0.021 A 
HETATM   13  C13 UNL     1      25.830   0.210  52.038  1.00  0.00     0.008 A 
HETATM   14  C14 UNL     1      22.847   0.019  54.403  1.00  0.00     0.109 C 
HETATM   15  C15 UNL     1      22.862  -1.260  55.255  1.00  0.00     0.037 C 
HETATM   16  N2  UNL     1      21.573   0.060  53.779  1.00  0.00    -0.366 N 
HETATM   17  C16 UNL     1      20.909   0.379  52.564  1.00  0.00     0.137 A 
HETATM   18  N3  UNL     1      19.664  -0.152  52.525  1.00  0.00    -0.224 NA
HETATM   19  C17 UNL     1      18.904   0.054  51.424  1.00  0.00     0.234 A 
HETATM   20  N4  UNL     1      19.259   0.751  50.326  1.00  0.00    -0.253 NA
HETATM   21  C18 UNL     1      20.499   1.295  50.336  1.00  0.00     0.134 A 
HETATM   22  C19 UNL     1      21.295   1.097  51.455  1.00  0.00     0.034 A 
HETATM   23  H18 UNL     1      20.831  -0.269  54.461  1.00  0.00     0.161 HD
ENDROOT
BRANCH   1  24
HETATM   24  C2  UNL     1      26.727   4.227  49.665  1.00  0.00     0.064 C 
HETATM   25  C1  UNL     1      27.357   4.919  48.757  1.00  0.00     0.017 C 
ENDBRANCH   1  24
TORSDOF 1
ENDMDL
MODEL 6
REMARK VINA RESULT:      -8.4      2.576      4.817
REMARK  1 active torsions:
REMARK  status: ('A' for Active; 'I' for Inactive)
REMARK    1  A    between atoms: C2_2  and  C3_3 
REMARK       I    between atoms: C3_3  and  N1_5 
ROOT
HETATM    1  C3  UNL     1      20.816   0.212  53.625  1.00  0.00     0.242 C 
HETATM    2  O1  UNL     1      19.608  -0.120  53.519  1.00  0.00    -0.268 OA
HETATM    3  N1  UNL     1      21.414   1.196  52.795  1.00  0.00    -0.344 N 
HETATM    4  C4  UNL     1      20.702   1.888  51.776  1.00  0.00     0.131 C 
HETATM    5  C5  UNL     1      20.839   3.437  51.978  1.00  0.00     0.060 C 
HETATM    6  C6  UNL     1      22.283   3.529  51.724  1.00  0.00    -0.032 C 
HETATM    7  C7  UNL     1      23.212   2.664  52.181  1.00  0.00    -0.022 C 
HETATM    8  C8  UNL     1      22.834   1.481  53.032  1.00  0.00     0.166 C 
HETATM    9  C9  UNL     1      24.679   2.493  52.068  1.00  0.00    -0.023 A 
HETATM   10  C10 UNL     1      25.495   2.808  51.045  1.00  0.00    -0.043 A 
HETATM   11  C11 UNL     1      26.880   2.412  51.485  1.00  0.00     0.064 A 
HETATM   12  C12 UNL     1      26.635   1.873  52.821  1.00  0.00    -0.021 A 
HETATM   13  C13 UNL     1      25.371   1.899  53.204  1.00  0.00     0.008 A 
HETATM   14  C14 UNL     1      25.473   3.378  49.692  1.00  0.00     0.109 C 
HETATM   15  C15 UNL     1      26.872   3.896  49.320  1.00  0.00     0.037 C 
HETATM   16  N2  UNL     1      24.580   4.456  49.461  1.00  0.00    -0.366 N 
HETATM   17  C16 UNL     1      23.433   5.117  49.977  1.00  0.00     0.137 A 
HETATM   18  N3  UNL     1      23.281   6.346  49.429  1.00  0.00    -0.224 NA
HETATM   19  C17 UNL     1      22.236   7.110  49.828  1.00  0.00     0.234 A 
HETATM   20  N4  UNL     1      21.300   6.772  50.737  1.00  0.00    -0.253 NA
HETATM   21  C18 UNL     1      21.426   5.548  51.302  1.00  0.00     0.134 A 
HETATM   22  C19 UNL     1      22.489   4.748  50.908  1.00  0.00     0.034 A 
HETATM   23  H18 UNL     1      24.863   4.970  48.577  1.00  0.00     0.161 HD
ENDROOT
BRANCH   1  24
HETATM   24  C2  UNL     1      21.537  -0.496  54.663  1.00  0.00     0.064 C 
HETATM   25  C1  UNL     1      21.721  -1.775  54.482  1.00  0.00     0.017 C 
ENDBRANCH   1  24
TORSDOF 1
ENDMDL
MODEL 7
REMARK VINA RESULT:      -7.6      3.753      7.593
REMARK  1 active torsions:
REMARK  status: ('A' for Active; 'I' for Inactive)
REMARK    1  A    between atoms: C2_2  and  C3_3 
REMARK       I    between atoms: C3_3  and  N1_5 
ROOT
HETATM    1  C3  UNL     1      26.302   6.739  48.479  1.00  0.00     0.242 C 
HETATM    2  O1  UNL     1      26.020   7.866  47.998  1.00  0.00    -0.268 OA
HETATM    3  N1  UNL     1      25.310   5.836  48.944  1.00  0.00    -0.344 N 
HETATM    4  C4  UNL     1      23.917   6.127  48.905  1.00  0.00     0.131 C 
HETATM    5  C5  UNL     1      23.148   4.989  48.147  1.00  0.00     0.060 C 
HETATM    6  C6  UNL     1      23.404   3.916  49.117  1.00  0.00    -0.032 C 
HETATM    7  C7  UNL     1      24.580   3.692  49.740  1.00  0.00    -0.022 C 
HETATM    8  C8  UNL     1      25.785   4.556  49.480  1.00  0.00     0.166 C 
HETATM    9  C9  UNL     1      25.106   2.742  50.747  1.00  0.00    -0.023 A 
HETATM   10  C10 UNL     1      24.465   2.148  51.771  1.00  0.00    -0.043 A 
HETATM   11  C11 UNL     1      25.494   1.288  52.458  1.00  0.00     0.064 A 
HETATM   12  C12 UNL     1      26.690   1.541  51.656  1.00  0.00    -0.021 A 
HETATM   13  C13 UNL     1      26.513   2.379  50.651  1.00  0.00     0.008 A 
HETATM   14  C14 UNL     1      23.148   2.076  52.415  1.00  0.00     0.109 C 
HETATM   15  C15 UNL     1      23.041   0.787  53.246  1.00  0.00     0.037 C 
HETATM   16  N2  UNL     1      22.013   2.090  51.564  1.00  0.00    -0.366 N 
HETATM   17  C16 UNL     1      21.578   2.407  50.249  1.00  0.00     0.137 A 
HETATM   18  N3  UNL     1      20.378   1.843  49.975  1.00  0.00    -0.224 NA
HETATM   19  C17 UNL     1      19.831   2.042  48.752  1.00  0.00     0.234 A 
HETATM   20  N4  UNL     1      20.364   2.762  47.745  1.00  0.00    -0.253 NA
HETATM   21  C18 UNL     1      21.564   3.339  47.991  1.00  0.00     0.134 A 
HETATM   22  C19 UNL     1      22.143   3.149  49.237  1.00  0.00     0.034 A 
HETATM   23  H18 UNL     1      21.165   1.733  52.094  1.00  0.00     0.161 HD
ENDROOT
BRANCH   1  24
HETATM   24  C2  UNL     1      27.720   6.448  48.517  1.00  0.00     0.064 C 
HETATM   25  C1  UNL     1      28.452   6.967  47.570  1.00  0.00     0.017 C 
ENDBRANCH   1  24
TORSDOF 1
ENDMDL
MODEL 8
REMARK VINA RESULT:      -7.6      2.923      5.521
REMARK  1 active torsions:
REMARK  status: ('A' for Active; 'I' for Inactive)
REMARK    1  A    between atoms: C2_2  and  C3_3 
REMARK       I    between atoms: C3_3  and  N1_5 
ROOT
HETATM    1  C3  UNL     1      22.207   6.734  50.720  1.00  0.00     0.242 C 
HETATM    2  O1  UNL     1      21.326   7.541  51.111  1.00  0.00    -0.268 OA
HETATM    3  N1  UNL     1      22.384   5.452  51.304  1.00  0.00    -0.344 N 
HETATM    4  C4  UNL     1      21.582   4.972  52.377  1.00  0.00     0.131 C 
HETATM    5  C5  UNL     1      20.944   3.590  52.000  1.00  0.00     0.060 C 
HETATM    6  C6  UNL     1      22.195   2.822  51.933  1.00  0.00    -0.032 C 
HETATM    7  C7  UNL     1      23.346   3.254  51.377  1.00  0.00    -0.022 C 
HETATM    8  C8  UNL     1      23.452   4.617  50.745  1.00  0.00     0.166 C 
HETATM    9  C9  UNL     1      24.720   2.733  51.194  1.00  0.00    -0.023 A 
HETATM   10  C10 UNL     1      25.428   1.905  51.986  1.00  0.00    -0.043 A 
HETATM   11  C11 UNL     1      26.759   1.720  51.303  1.00  0.00     0.064 A 
HETATM   12  C12 UNL     1      26.609   2.548  50.109  1.00  0.00    -0.021 A 
HETATM   13  C13 UNL     1      25.442   3.157  50.002  1.00  0.00     0.008 A 
HETATM   14  C14 UNL     1      25.333   1.165  53.249  1.00  0.00     0.109 C 
HETATM   15  C15 UNL     1      26.360   0.022  53.265  1.00  0.00     0.037 C 
HETATM   16  N2  UNL     1      24.081   0.572  53.557  1.00  0.00    -0.366 N 
HETATM   17  C16 UNL     1      22.698   0.597  53.233  1.00  0.00     0.137 A 
HETATM   18  N3  UNL     1      22.065  -0.515  53.677  1.00  0.00    -0.224 NA
HETATM   19  C17 UNL     1      20.739  -0.648  53.435  1.00  0.00     0.234 A 
HETATM   20  N4  UNL     1      19.954   0.231  52.781  1.00  0.00    -0.253 NA
HETATM   21  C18 UNL     1      20.559   1.353  52.326  1.00  0.00     0.134 A 
HETATM   22  C19 UNL     1      21.917   1.511  52.563  1.00  0.00     0.034 A 
HETATM   23  H18 UNL     1      24.211  -0.167  54.306  1.00  0.00     0.161 HD
ENDROOT
BRANCH   1  24
HETATM   24  C2  UNL     1      23.021   7.227  49.628  1.00  0.00     0.064 C 
HETATM   25  C1  UNL     1      23.809   8.232  49.891  1.00  0.00     0.017 C 
ENDBRANCH   1  24
TORSDOF 1
ENDMDL
MODEL 9
REMARK VINA RESULT:      -7.5      3.661      6.887
REMARK  1 active torsions:
REMARK  status: ('A' for Active; 'I' for Inactive)
REMARK    1  A    between atoms: C2_2  and  C3_3 
REMARK       I    between atoms: C3_3  and  N1_5 
ROOT
HETATM    1  C3  UNL     1      27.708   5.487  48.585  1.00  0.00     0.242 C 
HETATM    2  O1  UNL     1      28.906   5.107  48.609  1.00  0.00    -0.268 OA
HETATM    3  N1  UNL     1      26.630   4.644  48.965  1.00  0.00    -0.344 N 
HETATM    4  C4  UNL     1      26.812   3.302  49.403  1.00  0.00     0.131 C 
HETATM    5  C5  UNL     1      26.133   3.092  50.801  1.00  0.00     0.060 C 
HETATM    6  C6  UNL     1      24.745   3.287  50.362  1.00  0.00    -0.032 C 
HETATM    7  C7  UNL     1      24.325   4.235  49.498  1.00  0.00    -0.022 C 
HETATM    8  C8  UNL     1      25.284   5.222  48.887  1.00  0.00     0.166 C 
HETATM    9  C9  UNL     1      23.044   4.638  48.875  1.00  0.00    -0.023 A 
HETATM   10  C10 UNL     1      21.989   3.876  48.530  1.00  0.00    -0.043 A 
HETATM   11  C11 UNL     1      20.974   4.820  47.939  1.00  0.00     0.064 A 
HETATM   12  C12 UNL     1      21.659   6.107  48.036  1.00  0.00    -0.021 A 
HETATM   13  C13 UNL     1      22.865   6.052  48.573  1.00  0.00     0.008 A 
HETATM   14  C14 UNL     1      21.531   2.482  48.532  1.00  0.00     0.109 C 
HETATM   15  C15 UNL     1      19.998   2.435  48.438  1.00  0.00     0.037 C 
HETATM   16  N2  UNL     1      21.880   1.690  49.657  1.00  0.00    -0.366 N 
HETATM   17  C16 UNL     1      22.762   1.614  50.768  1.00  0.00     0.137 A 
HETATM   18  N3  UNL     1      22.323   0.724  51.689  1.00  0.00    -0.224 NA
HETATM   19  C17 UNL     1      23.051   0.545  52.817  1.00  0.00     0.234 A 
HETATM   20  N4  UNL     1      24.200   1.173  53.135  1.00  0.00    -0.253 NA
HETATM   21  C18 UNL     1      24.664   2.069  52.232  1.00  0.00     0.134 A 
HETATM   22  C19 UNL     1      23.935   2.268  51.069  1.00  0.00     0.034 A 
HETATM   23  H18 UNL     1      21.257   0.832  49.695  1.00  0.00     0.161 HD
ENDROOT
BRANCH   1  24
HETATM   24  C2  UNL     1      27.527   6.852  48.139  1.00  0.00     0.064 C 
HETATM   25  C1  UNL     1      28.410   7.317  47.299  1.00  0.00     0.017 C 
ENDBRANCH   1  24
TORSDOF 1
ENDMDL
