MODEL 1
REMARK VINA RESULT:      -7.8      0.000      0.000
REMARK  11 active torsions:
REMARK  status: ('A' for Active; 'I' for Inactive)
REMARK    1  A    between atoms: C7_7  and  N1_8 
REMARK    2  A    between atoms: N1_8  and  C9_10 
REMARK    3  A    between atoms: C13_16  and  O1_17 
REMARK    4  A    between atoms: C15_20  and  C16_21 
REMARK    5  A    between atoms: C16_21  and  C17_22 
REMARK    6  A    between atoms: C17_22  and  C18_23 
REMARK    7  A    between atoms: C18_23  and  C19_24 
REMARK    8  A    between atoms: C19_24  and  C20_25 
REMARK    9  A    between atoms: C20_25  and  C21_26 
REMARK   10  A    between atoms: C21_26  and  O4_28 
REMARK   11  A    between atoms: C22_29  and  N4_30 
ROOT
HETATM    1  C9  UNL     1      20.871   1.842  52.506  1.00  0.00     0.262 C 
HETATM    2  N2  UNL     1      20.388   3.082  51.863  1.00  0.00    -0.251 NA
HETATM    3  C10 UNL     1      20.791   3.509  50.740  1.00  0.00     0.229 C 
HETATM    4  N3  UNL     1      20.328   4.706  50.112  1.00  0.00    -0.254 NA
HETATM    5  C11 UNL     1      21.069   5.746  50.284  1.00  0.00     0.120 C 
HETATM    6  C12 UNL     1      22.097   6.695  50.662  1.00  0.00     0.053 C 
HETATM    7  C13 UNL     1      23.133   6.427  51.389  1.00  0.00     0.068 C 
HETATM    8  C14 UNL     1      23.737   5.298  52.089  1.00  0.00     0.239 C 
HETATM    9  O2  UNL     1      23.101   4.086  52.030  1.00  0.00    -0.347 OA
HETATM   10  C15 UNL     1      23.348   2.872  52.560  1.00  0.00     0.072 C 
HETATM   11  C22 UNL     1      22.308   2.032  52.700  1.00  0.00     0.077 C 
ENDROOT
BRANCH   1  12
HETATM   12  N1  UNL     1      20.513   0.695  51.697  1.00  0.00    -0.357 N 
HETATM   13  C8  UNL     1      21.280   0.264  50.544  1.00  0.00     0.152 C 
BRANCH  12  14
HETATM   14  C7  UNL     1      19.340  -0.019  52.075  1.00  0.00     0.037 A 
HETATM   15  C2  UNL     1      18.266   0.169  51.232  1.00  0.00    -0.035 A 
HETATM   16  C1  UNL     1      18.106   0.983  50.007  1.00  0.00     0.050 C 
HETATM   17  C3  UNL     1      17.074  -0.502  51.534  1.00  0.00     0.009 A 
HETATM   18  C4  UNL     1      16.965  -1.332  52.643  1.00  0.00     0.001 A 
HETATM   19  C5  UNL     1      18.049  -1.507  53.473  1.00  0.00     0.002 A 
HETATM   20  C6  UNL     1      19.221  -0.846  53.172  1.00  0.00     0.030 A 
ENDBRANCH  12  14
ENDBRANCH   1  12
BRANCH  11  21
HETATM   21  N4  UNL     1      22.578   0.742  53.290  1.00  0.00    -0.397 N 
HETATM   22  H29 UNL     1      22.617   0.130  54.126  1.00  0.00     0.156 HD
HETATM   23  H30 UNL     1      22.745  -0.139  53.812  1.00  0.00     0.156 HD
ENDBRANCH  11  21
BRANCH  10  24
HETATM   24  C16 UNL     1      24.668   2.387  52.998  1.00  0.00     0.067 C 
BRANCH  24  25
HETATM   25  C17 UNL     1      25.653   2.115  51.912  1.00  0.00     0.007 C 
BRANCH  25  26
HETATM   26  C18 UNL     1      26.205   0.688  52.081  1.00  0.00     0.001 C 
BRANCH  26  27
HETATM   27  C19 UNL     1      26.752   0.536  53.507  1.00  0.00     0.010 C 
BRANCH  27  28
HETATM   28  C20 UNL     1      28.275   0.562  53.367  1.00  0.00     0.110 C 
BRANCH  28  29
HETATM   29  C21 UNL     1      28.800   1.929  53.658  1.00  0.00     0.139 C 
HETATM   30  O3  UNL     1      29.129   2.241  54.815  1.00  0.00    -0.650 OA
BRANCH  29  31
HETATM   31  O4  UNL     1      29.053   3.083  52.911  1.00  0.00    -0.776 OA
HETATM   32  H28 UNL     1      29.550   3.029  52.021  1.00  0.00     0.167 HD
ENDBRANCH  29  31
ENDBRANCH  28  29
ENDBRANCH  27  28
ENDBRANCH  26  27
ENDBRANCH  25  26
ENDBRANCH  24  25
ENDBRANCH  10  24
BRANCH   7  33
HETATM   33  O1  UNL     1      23.966   7.547  51.596  1.00  0.00    -0.363 OA
HETATM   34  H15 UNL     1      23.597   8.371  52.053  1.00  0.00     0.217 HD
ENDBRANCH   7  33
TORSDOF 11
ENDMDL
MODEL 2
REMARK VINA RESULT:      -7.7      1.508      1.717
REMARK  11 active torsions:
REMARK  status: ('A' for Active; 'I' for Inactive)
REMARK    1  A    between atoms: C7_7  and  N1_8 
REMARK    2  A    between atoms: N1_8  and  C9_10 
REMARK    3  A    between atoms: C13_16  and  O1_17 
REMARK    4  A    between atoms: C15_20  and  C16_21 
REMARK    5  A    between atoms: C16_21  and  C17_22 
REMARK    6  A    between atoms: C17_22  and  C18_23 
REMARK    7  A    between atoms: C18_23  and  C19_24 
REMARK    8  A    between atoms: C19_24  and  C20_25 
REMARK    9  A    between atoms: C20_25  and  C21_26 
REMARK   10  A    between atoms: C21_26  and  O4_28 
REMARK   11  A    between atoms: C22_29  and  N4_30 
ROOT
HETATM    1  C9  UNL     1      20.861   1.788  52.506  1.00  0.00     0.262 C 
HETATM    2  N2  UNL     1      20.389   3.062  51.923  1.00  0.00    -0.251 NA
HETATM    3  C10 UNL     1      20.760   3.515  50.800  1.00  0.00     0.229 C 
HETATM    4  N3  UNL     1      20.307   4.745  50.231  1.00  0.00    -0.254 NA
HETATM    5  C11 UNL     1      21.083   5.758  50.408  1.00  0.00     0.120 C 
HETATM    6  C12 UNL     1      22.151   6.666  50.776  1.00  0.00     0.053 C 
HETATM    7  C13 UNL     1      23.206   6.346  51.452  1.00  0.00     0.068 C 
HETATM    8  C14 UNL     1      23.805   5.179  52.090  1.00  0.00     0.239 C 
HETATM    9  O2  UNL     1      23.133   3.986  52.017  1.00  0.00    -0.347 OA
HETATM   10  C15 UNL     1      23.366   2.749  52.496  1.00  0.00     0.072 C 
HETATM   11  C22 UNL     1      22.309   1.932  52.650  1.00  0.00     0.077 C 
ENDROOT
BRANCH   1  12
HETATM   12  N1  UNL     1      20.440   0.679  51.674  1.00  0.00    -0.357 N 
HETATM   13  C8  UNL     1      21.160   0.255  50.489  1.00  0.00     0.152 C 
BRANCH  12  14
HETATM   14  C7  UNL     1      19.252  -0.004  52.063  1.00  0.00     0.037 A 
HETATM   15  C2  UNL     1      18.181   0.197  51.220  1.00  0.00    -0.035 A 
HETATM   16  C1  UNL     1      18.038   0.997  49.983  1.00  0.00     0.050 C 
HETATM   17  C3  UNL     1      16.975  -0.443  51.532  1.00  0.00     0.009 A 
HETATM   18  C4  UNL     1      16.849  -1.255  52.652  1.00  0.00     0.001 A 
HETATM   19  C5  UNL     1      17.930  -1.444  53.484  1.00  0.00     0.002 A 
HETATM   20  C6  UNL     1      19.116  -0.812  53.172  1.00  0.00     0.030 A 
ENDBRANCH  12  14
ENDBRANCH   1  12
BRANCH  11  21
HETATM   21  N4  UNL     1      22.565   0.617  53.186  1.00  0.00    -0.397 N 
HETATM   22  H29 UNL     1      22.684  -0.402  53.040  1.00  0.00     0.156 HD
HETATM   23  H30 UNL     1      22.740  -0.367  53.468  1.00  0.00     0.156 HD
ENDBRANCH  11  21
BRANCH  10  24
HETATM   24  C16 UNL     1      24.687   2.215  52.867  1.00  0.00     0.067 C 
BRANCH  24  25
HETATM   25  C17 UNL     1      25.452   1.556  51.769  1.00  0.00     0.007 C 
BRANCH  25  26
HETATM   26  C18 UNL     1      26.690   0.861  52.365  1.00  0.00     0.001 C 
BRANCH  26  27
HETATM   27  C19 UNL     1      26.234  -0.398  53.115  1.00  0.00     0.010 C 
BRANCH  27  28
HETATM   28  C20 UNL     1      26.760  -1.577  52.296  1.00  0.00     0.110 C 
BRANCH  28  29
HETATM   29  C21 UNL     1      27.913  -2.221  52.992  1.00  0.00     0.139 C 
HETATM   30  O3  UNL     1      28.665  -1.545  53.714  1.00  0.00    -0.650 OA
BRANCH  29  31
HETATM   31  O4  UNL     1      28.441  -3.513  53.067  1.00  0.00    -0.776 OA
HETATM   32  H28 UNL     1      28.059  -4.266  52.494  1.00  0.00     0.167 HD
ENDBRANCH  29  31
ENDBRANCH  28  29
ENDBRANCH  27  28
ENDBRANCH  26  27
ENDBRANCH  25  26
ENDBRANCH  24  25
ENDBRANCH  10  24
BRANCH   7  33
HETATM   33  O1  UNL     1      24.078   7.436  51.663  1.00  0.00    -0.363 OA
HETATM   34  H15 UNL     1      24.613   7.808  50.890  1.00  0.00     0.217 HD
ENDBRANCH   7  33
TORSDOF 11
ENDMDL
MODEL 3
REMARK VINA RESULT:      -7.7      2.984      7.126
REMARK  11 active torsions:
REMARK  status: ('A' for Active; 'I' for Inactive)
REMARK    1  A    between atoms: C7_7  and  N1_8 
REMARK    2  A    between atoms: N1_8  and  C9_10 
REMARK    3  A    between atoms: C13_16  and  O1_17 
REMARK    4  A    between atoms: C15_20  and  C16_21 
REMARK    5  A    between atoms: C16_21  and  C17_22 
REMARK    6  A    between atoms: C17_22  and  C18_23 
REMARK    7  A    between atoms: C18_23  and  C19_24 
REMARK    8  A    between atoms: C19_24  and  C20_25 
REMARK    9  A    between atoms: C20_25  and  C21_26 
REMARK   10  A    between atoms: C21_26  and  O4_28 
REMARK   11  A    between atoms: C22_29  and  N4_30 
ROOT
HETATM    1  C9  UNL     1      25.649   0.534  52.005  1.00  0.00     0.262 C 
HETATM    2  N2  UNL     1      26.301   1.466  51.061  1.00  0.00    -0.251 NA
HETATM    3  C10 UNL     1      26.470   2.703  51.279  1.00  0.00     0.229 C 
HETATM    4  N3  UNL     1      27.101   3.608  50.372  1.00  0.00    -0.254 NA
HETATM    5  C11 UNL     1      26.304   4.292  49.626  1.00  0.00     0.120 C 
HETATM    6  C12 UNL     1      25.163   4.886  48.958  1.00  0.00     0.053 C 
HETATM    7  C13 UNL     1      23.924   4.599  49.195  1.00  0.00     0.068 C 
HETATM    8  C14 UNL     1      23.131   3.727  50.056  1.00  0.00     0.239 C 
HETATM    9  O2  UNL     1      23.793   2.909  50.934  1.00  0.00    -0.347 OA
HETATM   10  C15 UNL     1      23.399   1.986  51.832  1.00  0.00     0.072 C 
HETATM   11  C22 UNL     1      24.291   1.045  52.188  1.00  0.00     0.077 C 
ENDROOT
BRANCH   1  12
HETATM   12  N1  UNL     1      26.430   0.435  53.221  1.00  0.00    -0.357 N 
HETATM   13  C8  UNL     1      26.190   1.258  54.390  1.00  0.00     0.152 C 
BRANCH  12  14
HETATM   14  C7  UNL     1      27.485  -0.522  53.233  1.00  0.00     0.037 A 
HETATM   15  C2  UNL     1      28.718  -0.003  53.564  1.00  0.00    -0.035 A 
HETATM   16  C1  UNL     1      29.148   1.371  53.904  1.00  0.00     0.050 C 
HETATM   17  C3  UNL     1      29.808  -0.881  53.600  1.00  0.00     0.009 A 
HETATM   18  C4  UNL     1      29.664  -2.234  53.314  1.00  0.00     0.001 A 
HETATM   19  C5  UNL     1      28.424  -2.734  52.986  1.00  0.00     0.002 A 
HETATM   20  C6  UNL     1      27.354  -1.865  52.952  1.00  0.00     0.030 A 
ENDBRANCH  12  14
ENDBRANCH   1  12
BRANCH  11  21
HETATM   21  N4  UNL     1      23.852   0.046  53.133  1.00  0.00    -0.397 N 
HETATM   22  H29 UNL     1      23.342  -0.834  53.334  1.00  0.00     0.156 HD
HETATM   23  H30 UNL     1      23.487  -0.723  53.727  1.00  0.00     0.156 HD
ENDBRANCH  11  21
BRANCH  10  24
HETATM   24  C16 UNL     1      22.068   1.922  52.459  1.00  0.00     0.067 C 
BRANCH  24  25
HETATM   25  C17 UNL     1      20.930   1.632  51.540  1.00  0.00     0.007 C 
BRANCH  25  26
HETATM   26  C18 UNL     1      20.518   0.157  51.698  1.00  0.00     0.001 C 
BRANCH  26  27
HETATM   27  C19 UNL     1      19.757  -0.003  53.021  1.00  0.00     0.010 C 
BRANCH  27  28
HETATM   28  C20 UNL     1      20.233  -1.332  53.610  1.00  0.00     0.110 C 
BRANCH  28  29
HETATM   29  C21 UNL     1      21.278  -1.095  54.650  1.00  0.00     0.139 C 
HETATM   30  O3  UNL     1      21.414   0.033  55.155  1.00  0.00    -0.650 OA
BRANCH  29  31
HETATM   31  O4  UNL     1      22.252  -1.870  55.285  1.00  0.00    -0.776 OA
HETATM   32  H28 UNL     1      22.592  -1.622  56.214  1.00  0.00     0.167 HD
ENDBRANCH  29  31
ENDBRANCH  28  29
ENDBRANCH  27  28
ENDBRANCH  26  27
ENDBRANCH  25  26
ENDBRANCH  24  25
ENDBRANCH  10  24
BRANCH   7  33
HETATM   33  O1  UNL     1      23.024   5.332  48.393  1.00  0.00    -0.363 OA
HETATM   34  H15 UNL     1      23.144   5.348  47.389  1.00  0.00     0.217 HD
ENDBRANCH   7  33
TORSDOF 11
ENDMDL
MODEL 4
REMARK VINA RESULT:      -7.5      0.972      1.711
REMARK  11 active torsions:
REMARK  status: ('A' for Active; 'I' for Inactive)
REMARK    1  A    between atoms: C7_7  and  N1_8 
REMARK    2  A    between atoms: N1_8  and  C9_10 
REMARK    3  A    between atoms: C13_16  and  O1_17 
REMARK    4  A    between atoms: C15_20  and  C16_21 
REMARK    5  A    between atoms: C16_21  and  C17_22 
REMARK    6  A    between atoms: C17_22  and  C18_23 
REMARK    7  A    between atoms: C18_23  and  C19_24 
REMARK    8  A    between atoms: C19_24  and  C20_25 
REMARK    9  A    between atoms: C20_25  and  C21_26 
REMARK   10  A    between atoms: C21_26  and  O4_28 
REMARK   11  A    between atoms: C22_29  and  N4_30 
ROOT
HETATM    1  C9  UNL     1      21.017   1.911  52.570  1.00  0.00     0.262 C 
HETATM    2  N2  UNL     1      20.447   3.148  51.997  1.00  0.00    -0.251 NA
HETATM    3  C10 UNL     1      20.732   3.603  50.849  1.00  0.00     0.229 C 
HETATM    4  N3  UNL     1      20.184   4.797  50.290  1.00  0.00    -0.254 NA
HETATM    5  C11 UNL     1      20.912   5.853  50.411  1.00  0.00     0.120 C 
HETATM    6  C12 UNL     1      21.949   6.821  50.707  1.00  0.00     0.053 C 
HETATM    7  C13 UNL     1      23.055   6.569  51.329  1.00  0.00     0.068 C 
HETATM    8  C14 UNL     1      23.749   5.445  51.948  1.00  0.00     0.239 C 
HETATM    9  O2  UNL     1      23.139   4.218  51.928  1.00  0.00    -0.347 OA
HETATM   10  C15 UNL     1      23.463   3.002  52.410  1.00  0.00     0.072 C 
HETATM   11  C22 UNL     1      22.461   2.133  52.632  1.00  0.00     0.077 C 
ENDROOT
BRANCH   1  12
HETATM   12  N1  UNL     1      20.612   0.768  51.777  1.00  0.00    -0.357 N 
HETATM   13  C8  UNL     1      21.422   0.212  50.710  1.00  0.00     0.152 C 
BRANCH  12  14
HETATM   14  C7  UNL     1      19.347   0.189  52.081  1.00  0.00     0.037 A 
HETATM   15  C2  UNL     1      19.377  -0.730  53.108  1.00  0.00    -0.035 A 
HETATM   16  C1  UNL     1      20.485  -1.228  53.952  1.00  0.00     0.050 C 
HETATM   17  C3  UNL     1      18.171  -1.344  53.470  1.00  0.00     0.009 A 
HETATM   18  C4  UNL     1      16.978  -1.046  52.823  1.00  0.00     0.001 A 
HETATM   19  C5  UNL     1      16.968  -0.126  51.799  1.00  0.00     0.002 A 
HETATM   20  C6  UNL     1      18.158   0.477  51.446  1.00  0.00     0.030 A 
ENDBRANCH  12  14
ENDBRANCH   1  12
BRANCH  11  21
HETATM   21  N4  UNL     1      22.817   0.842  53.170  1.00  0.00    -0.397 N 
HETATM   22  H29 UNL     1      22.715   0.120  53.907  1.00  0.00     0.156 HD
HETATM   23  H30 UNL     1      23.003  -0.064  53.641  1.00  0.00     0.156 HD
ENDBRANCH  11  21
BRANCH  10  24
HETATM   24  C16 UNL     1      24.830   2.544  52.714  1.00  0.00     0.067 C 
BRANCH  24  25
HETATM   25  C17 UNL     1      25.661   2.157  51.538  1.00  0.00     0.007 C 
BRANCH  25  26
HETATM   26  C18 UNL     1      26.965   1.506  52.036  1.00  0.00     0.001 C 
BRANCH  26  27
HETATM   27  C19 UNL     1      26.777  -0.016  52.062  1.00  0.00     0.010 C 
BRANCH  27  28
HETATM   28  C20 UNL     1      27.801  -0.539  53.070  1.00  0.00     0.110 C 
BRANCH  28  29
HETATM   29  C21 UNL     1      27.488  -0.033  54.440  1.00  0.00     0.139 C 
HETATM   30  O3  UNL     1      28.318   0.656  55.057  1.00  0.00    -0.650 OA
BRANCH  29  31
HETATM   31  O4  UNL     1      26.406  -0.128  55.318  1.00  0.00    -0.776 OA
HETATM   32  H28 UNL     1      25.453   0.039  54.991  1.00  0.00     0.167 HD
ENDBRANCH  29  31
ENDBRANCH  28  29
ENDBRANCH  27  28
ENDBRANCH  26  27
ENDBRANCH  25  26
ENDBRANCH  24  25
ENDBRANCH  10  24
BRANCH   7  33
HETATM   33  O1  UNL     1      23.877   7.706  51.478  1.00  0.00    -0.363 OA
HETATM   34  H15 UNL     1      23.505   8.542  51.908  1.00  0.00     0.217 HD
ENDBRANCH   7  33
TORSDOF 11
ENDMDL
MODEL 5
REMARK VINA RESULT:      -7.3      3.061      5.435
REMARK  11 active torsions:
REMARK  status: ('A' for Active; 'I' for Inactive)
REMARK    1  A    between atoms: C7_7  and  N1_8 
REMARK    2  A    between atoms: N1_8  and  C9_10 
REMARK    3  A    between atoms: C13_16  and  O1_17 
REMARK    4  A    between atoms: C15_20  and  C16_21 
REMARK    5  A    between atoms: C16_21  and  C17_22 
REMARK    6  A    between atoms: C17_22  and  C18_23 
REMARK    7  A    between atoms: C18_23  and  C19_24 
REMARK    8  A    between atoms: C19_24  and  C20_25 
REMARK    9  A    between atoms: C20_25  and  C21_26 
REMARK   10  A    between atoms: C21_26  and  O4_28 
REMARK   11  A    between atoms: C22_29  and  N4_30 
ROOT
HETATM    1  C9  UNL     1      22.316   2.041  50.586  1.00  0.00     0.262 C 
HETATM    2  N2  UNL     1      21.423   0.966  51.067  1.00  0.00    -0.251 NA
HETATM    3  C10 UNL     1      20.716   1.039  52.116  1.00  0.00     0.229 C 
HETATM    4  N3  UNL     1      19.851   0.003  52.586  1.00  0.00    -0.254 NA
HETATM    5  C11 UNL     1      20.345  -0.763  53.495  1.00  0.00     0.120 C 
HETATM    6  C12 UNL     1      21.179  -1.422  54.481  1.00  0.00     0.053 C 
HETATM    7  C13 UNL     1      22.390  -1.083  54.784  1.00  0.00     0.068 C 
HETATM    8  C14 UNL     1      23.391  -0.089  54.413  1.00  0.00     0.239 C 
HETATM    9  O2  UNL     1      23.062   0.832  53.452  1.00  0.00    -0.347 OA
HETATM   10  C15 UNL     1      23.724   1.846  52.862  1.00  0.00     0.072 C 
HETATM   11  C22 UNL     1      23.295   2.248  51.653  1.00  0.00     0.077 C 
ENDROOT
BRANCH   1  12
HETATM   12  N1  UNL     1      21.536   3.212  50.241  1.00  0.00    -0.357 N 
HETATM   13  C8  UNL     1      20.974   4.114  51.228  1.00  0.00     0.152 C 
BRANCH  12  14
HETATM   14  C7  UNL     1      21.323   3.458  48.854  1.00  0.00     0.037 A 
HETATM   15  C2  UNL     1      20.088   3.059  48.392  1.00  0.00    -0.035 A 
HETATM   16  C1  UNL     1      18.942   2.416  49.072  1.00  0.00     0.050 C 
HETATM   17  C3  UNL     1      19.798   3.268  47.037  1.00  0.00     0.009 A 
HETATM   18  C4  UNL     1      20.718   3.858  46.178  1.00  0.00     0.001 A 
HETATM   19  C5  UNL     1      21.947   4.250  46.659  1.00  0.00     0.002 A 
HETATM   20  C6  UNL     1      22.227   4.043  47.993  1.00  0.00     0.030 A 
ENDBRANCH  12  14
ENDBRANCH   1  12
BRANCH  11  21
HETATM   21  N4  UNL     1      24.024   3.319  51.018  1.00  0.00    -0.397 N 
HETATM   22  H29 UNL     1      24.910   3.840  50.877  1.00  0.00     0.156 HD
HETATM   23  H30 UNL     1      24.638   4.055  50.618  1.00  0.00     0.156 HD
ENDBRANCH  11  21
BRANCH  10  24
HETATM   24  C16 UNL     1      24.882   2.554  53.433  1.00  0.00     0.067 C 
BRANCH  24  25
HETATM   25  C17 UNL     1      26.214   2.167  52.887  1.00  0.00     0.007 C 
BRANCH  25  26
HETATM   26  C18 UNL     1      26.704   0.898  53.608  1.00  0.00     0.001 C 
BRANCH  26  27
HETATM   27  C19 UNL     1      27.160  -0.122  52.557  1.00  0.00     0.010 C 
BRANCH  27  28
HETATM   28  C20 UNL     1      28.257  -0.946  53.233  1.00  0.00     0.110 C 
BRANCH  28  29
HETATM   29  C21 UNL     1      28.058  -2.400  52.962  1.00  0.00     0.139 C 
HETATM   30  O3  UNL     1      27.140  -2.777  52.213  1.00  0.00    -0.650 OA
BRANCH  29  31
HETATM   31  O4  UNL     1      28.681  -3.587  53.357  1.00  0.00    -0.776 OA
HETATM   32  H28 UNL     1      28.765  -4.372  52.711  1.00  0.00     0.167 HD
ENDBRANCH  29  31
ENDBRANCH  28  29
ENDBRANCH  27  28
ENDBRANCH  26  27
ENDBRANCH  25  26
ENDBRANCH  24  25
ENDBRANCH  10  24
BRANCH   7  33
HETATM   33  O1  UNL     1      22.960  -1.905  55.780  1.00  0.00    -0.363 OA
HETATM   34  H15 UNL     1      23.859  -2.340  55.618  1.00  0.00     0.217 HD
ENDBRANCH   7  33
TORSDOF 11
ENDMDL
MODEL 6
REMARK VINA RESULT:      -7.3      3.655      8.372
REMARK  11 active torsions:
REMARK  status: ('A' for Active; 'I' for Inactive)
REMARK    1  A    between atoms: C7_7  and  N1_8 
REMARK    2  A    between atoms: N1_8  and  C9_10 
REMARK    3  A    between atoms: C13_16  and  O1_17 
REMARK    4  A    between atoms: C15_20  and  C16_21 
REMARK    5  A    between atoms: C16_21  and  C17_22 
REMARK    6  A    between atoms: C17_22  and  C18_23 
REMARK    7  A    between atoms: C18_23  and  C19_24 
REMARK    8  A    between atoms: C19_24  and  C20_25 
REMARK    9  A    between atoms: C20_25  and  C21_26 
REMARK   10  A    between atoms: C21_26  and  O4_28 
REMARK   11  A    between atoms: C22_29  and  N4_30 
ROOT
HETATM    1  C9  UNL     1      24.570   3.442  51.396  1.00  0.00     0.262 C 
HETATM    2  N2  UNL     1      25.739   2.664  51.857  1.00  0.00    -0.251 NA
HETATM    3  C10 UNL     1      25.971   1.462  51.532  1.00  0.00     0.229 C 
HETATM    4  N3  UNL     1      27.099   0.704  51.973  1.00  0.00    -0.254 NA
HETATM    5  C11 UNL     1      26.891  -0.065  52.985  1.00  0.00     0.120 C 
HETATM    6  C12 UNL     1      26.334  -0.802  54.102  1.00  0.00     0.053 C 
HETATM    7  C13 UNL     1      25.112  -0.723  54.517  1.00  0.00     0.068 C 
HETATM    8  C14 UNL     1      23.873  -0.024  54.195  1.00  0.00     0.239 C 
HETATM    9  O2  UNL     1      23.879   0.851  53.140  1.00  0.00    -0.347 OA
HETATM   10  C15 UNL     1      22.955   1.663  52.591  1.00  0.00     0.072 C 
HETATM   11  C22 UNL     1      23.396   2.717  51.883  1.00  0.00     0.077 C 
ENDROOT
BRANCH   1  12
HETATM   12  N1  UNL     1      24.626   3.612  49.958  1.00  0.00    -0.357 N 
HETATM   13  C8  UNL     1      23.736   2.927  49.040  1.00  0.00     0.152 C 
BRANCH  12  14
HETATM   14  C7  UNL     1      25.620   4.498  49.452  1.00  0.00     0.037 A 
HETATM   15  C2  UNL     1      25.212   5.811  49.356  1.00  0.00    -0.035 A 
HETATM   16  C1  UNL     1      23.926   6.469  49.677  1.00  0.00     0.050 C 
HETATM   17  C3  UNL     1      26.133   6.747  48.868  1.00  0.00     0.009 A 
HETATM   18  C4  UNL     1      27.418   6.377  48.492  1.00  0.00     0.001 A 
HETATM   19  C5  UNL     1      27.808   5.060  48.595  1.00  0.00     0.002 A 
HETATM   20  C6  UNL     1      26.897   4.142  49.076  1.00  0.00     0.030 A 
ENDBRANCH  12  14
ENDBRANCH   1  12
BRANCH  11  21
HETATM   21  N4  UNL     1      22.399   3.595  51.318  1.00  0.00    -0.397 N 
HETATM   22  H29 UNL     1      22.138   4.517  50.923  1.00  0.00     0.156 HD
HETATM   23  H30 UNL     1      21.762   4.303  50.905  1.00  0.00     0.156 HD
ENDBRANCH  11  21
BRANCH  10  24
HETATM   24  C16 UNL     1      21.497   1.491  52.702  1.00  0.00     0.067 C 
BRANCH  24  25
HETATM   25  C17 UNL     1      20.897   0.447  51.822  1.00  0.00     0.007 C 
BRANCH  25  26
HETATM   26  C18 UNL     1      19.588   0.989  51.220  1.00  0.00     0.001 C 
BRANCH  26  27
HETATM   27  C19 UNL     1      18.498  -0.081  51.364  1.00  0.00     0.010 C 
BRANCH  27  28
HETATM   28  C20 UNL     1      18.775  -0.771  52.701  1.00  0.00     0.110 C 
BRANCH  28  29
HETATM   29  C21 UNL     1      17.508  -1.306  53.282  1.00  0.00     0.139 C 
HETATM   30  O3  UNL     1      17.473  -2.453  53.758  1.00  0.00    -0.650 OA
BRANCH  29  31
HETATM   31  O4  UNL     1      16.207  -0.826  53.457  1.00  0.00    -0.776 OA
HETATM   32  H28 UNL     1      15.540  -1.331  54.042  1.00  0.00     0.167 HD
ENDBRANCH  29  31
ENDBRANCH  28  29
ENDBRANCH  27  28
ENDBRANCH  26  27
ENDBRANCH  25  26
ENDBRANCH  24  25
ENDBRANCH  10  24
BRANCH   7  33
HETATM   33  O1  UNL     1      24.850  -1.556  55.626  1.00  0.00    -0.363 OA
HETATM   34  H15 UNL     1      25.467  -1.534  56.427  1.00  0.00     0.217 HD
ENDBRANCH   7  33
TORSDOF 11
ENDMDL
MODEL 7
REMARK VINA RESULT:      -7.3      3.359      6.957
REMARK  11 active torsions:
REMARK  status: ('A' for Active; 'I' for Inactive)
REMARK    1  A    between atoms: C7_7  and  N1_8 
REMARK    2  A    between atoms: N1_8  and  C9_10 
REMARK    3  A    between atoms: C13_16  and  O1_17 
REMARK    4  A    between atoms: C15_20  and  C16_21 
REMARK    5  A    between atoms: C16_21  and  C17_22 
REMARK    6  A    between atoms: C17_22  and  C18_23 
REMARK    7  A    between atoms: C18_23  and  C19_24 
REMARK    8  A    between atoms: C19_24  and  C20_25 
REMARK    9  A    between atoms: C20_25  and  C21_26 
REMARK   10  A    between atoms: C21_26  and  O4_28 
REMARK   11  A    between atoms: C22_29  and  N4_30 
ROOT
HETATM    1  C9  UNL     1      24.996   4.444  49.343  1.00  0.00     0.262 C 
HETATM    2  N2  UNL     1      23.609   4.346  48.841  1.00  0.00    -0.251 NA
HETATM    3  C10 UNL     1      22.582   4.658  49.513  1.00  0.00     0.229 C 
HETATM    4  N3  UNL     1      21.239   4.567  49.034  1.00  0.00    -0.254 NA
HETATM    5  C11 UNL     1      20.601   3.499  49.369  1.00  0.00     0.120 C 
HETATM    6  C12 UNL     1      20.180   2.220  49.906  1.00  0.00     0.053 C 
HETATM    7  C13 UNL     1      20.912   1.433  50.625  1.00  0.00     0.068 C 
HETATM    8  C14 UNL     1      22.257   1.372  51.187  1.00  0.00     0.239 C 
HETATM    9  O2  UNL     1      23.107   2.420  50.946  1.00  0.00    -0.347 OA
HETATM   10  C15 UNL     1      24.386   2.683  51.274  1.00  0.00     0.072 C 
HETATM   11  C22 UNL     1      25.058   3.558  50.505  1.00  0.00     0.077 C 
ENDROOT
BRANCH   1  12
HETATM   12  N1  UNL     1      25.326   5.828  49.615  1.00  0.00    -0.357 N 
HETATM   13  C8  UNL     1      24.829   6.552  50.769  1.00  0.00     0.152 C 
BRANCH  12  14
HETATM   14  C7  UNL     1      26.177   6.483  48.680  1.00  0.00     0.037 A 
HETATM   15  C2  UNL     1      25.525   7.352  47.833  1.00  0.00    -0.035 A 
HETATM   16  C1  UNL     1      24.098   7.726  47.713  1.00  0.00     0.050 C 
HETATM   17  C3  UNL     1      26.293   8.039  46.883  1.00  0.00     0.009 A 
HETATM   18  C4  UNL     1      27.667   7.859  46.789  1.00  0.00     0.001 A 
HETATM   19  C5  UNL     1      28.302   6.986  47.645  1.00  0.00     0.002 A 
HETATM   20  C6  UNL     1      27.542   6.312  48.578  1.00  0.00     0.030 A 
ENDBRANCH  12  14
ENDBRANCH   1  12
BRANCH  11  21
HETATM   21  N4  UNL     1      26.436   3.815  50.850  1.00  0.00    -0.397 N 
HETATM   22  H29 UNL     1      27.241   3.673  51.487  1.00  0.00     0.156 HD
HETATM   23  H30 UNL     1      27.410   3.936  51.187  1.00  0.00     0.156 HD
ENDBRANCH  11  21
BRANCH  10  24
HETATM   24  C16 UNL     1      25.113   2.091  52.409  1.00  0.00     0.067 C 
BRANCH  24  25
HETATM   25  C17 UNL     1      25.373   0.625  52.320  1.00  0.00     0.007 C 
BRANCH  25  26
HETATM   26  C18 UNL     1      26.882   0.392  52.123  1.00  0.00     0.001 C 
BRANCH  26  27
HETATM   27  C19 UNL     1      27.341  -0.712  53.084  1.00  0.00     0.010 C 
BRANCH  27  28
HETATM   28  C20 UNL     1      27.760   0.008  54.367  1.00  0.00     0.110 C 
BRANCH  28  29
HETATM   29  C21 UNL     1      28.950   0.872  54.114  1.00  0.00     0.139 C 
HETATM   30  O3  UNL     1      28.982   2.036  54.547  1.00  0.00    -0.650 OA
BRANCH  29  31
HETATM   31  O4  UNL     1      30.173   0.722  53.453  1.00  0.00    -0.776 OA
HETATM   32  H28 UNL     1      30.277   0.043  52.698  1.00  0.00     0.167 HD
ENDBRANCH  29  31
ENDBRANCH  28  29
ENDBRANCH  27  28
ENDBRANCH  26  27
ENDBRANCH  25  26
ENDBRANCH  24  25
ENDBRANCH  10  24
BRANCH   7  33
HETATM   33  O1  UNL     1      20.241   0.253  51.010  1.00  0.00    -0.363 OA
HETATM   34  H15 UNL     1      20.364  -0.594  50.469  1.00  0.00     0.217 HD
ENDBRANCH   7  33
TORSDOF 11
ENDMDL
MODEL 8
REMARK VINA RESULT:      -7.2      2.454      5.262
REMARK  11 active torsions:
REMARK  status: ('A' for Active; 'I' for Inactive)
REMARK    1  A    between atoms: C7_7  and  N1_8 
REMARK    2  A    between atoms: N1_8  and  C9_10 
REMARK    3  A    between atoms: C13_16  and  O1_17 
REMARK    4  A    between atoms: C15_20  and  C16_21 
REMARK    5  A    between atoms: C16_21  and  C17_22 
REMARK    6  A    between atoms: C17_22  and  C18_23 
REMARK    7  A    between atoms: C18_23  and  C19_24 
REMARK    8  A    between atoms: C19_24  and  C20_25 
REMARK    9  A    between atoms: C20_25  and  C21_26 
REMARK   10  A    between atoms: C21_26  and  O4_28 
REMARK   11  A    between atoms: C22_29  and  N4_30 
ROOT
HETATM    1  C9  UNL     1      22.498   1.650  50.942  1.00  0.00     0.262 C 
HETATM    2  N2  UNL     1      23.063   0.654  51.876  1.00  0.00    -0.251 NA
HETATM    3  C10 UNL     1      23.467   0.921  53.047  1.00  0.00     0.229 C 
HETATM    4  N3  UNL     1      24.013  -0.036  53.956  1.00  0.00    -0.254 NA
HETATM    5  C11 UNL     1      25.299  -0.096  53.994  1.00  0.00     0.120 C 
HETATM    6  C12 UNL     1      26.723   0.088  53.798  1.00  0.00     0.053 C 
HETATM    7  C13 UNL     1      27.264   0.932  52.980  1.00  0.00     0.068 C 
HETATM    8  C14 UNL     1      26.869   1.947  52.010  1.00  0.00     0.239 C 
HETATM    9  O2  UNL     1      25.531   2.170  51.817  1.00  0.00    -0.347 OA
HETATM   10  C15 UNL     1      24.824   2.985  51.009  1.00  0.00     0.072 C 
HETATM   11  C22 UNL     1      23.557   2.636  50.728  1.00  0.00     0.077 C 
ENDROOT
BRANCH   1  12
HETATM   12  N1  UNL     1      21.265   2.188  51.479  1.00  0.00    -0.357 N 
HETATM   13  C8  UNL     1      21.172   3.496  52.099  1.00  0.00     0.152 C 
BRANCH  12  14
HETATM   14  C7  UNL     1      20.107   1.364  51.385  1.00  0.00     0.037 A 
HETATM   15  C2  UNL     1      19.434   1.468  50.187  1.00  0.00    -0.035 A 
HETATM   16  C1  UNL     1      19.692   2.283  48.980  1.00  0.00     0.050 C 
HETATM   17  C3  UNL     1      18.284   0.687  50.015  1.00  0.00     0.009 A 
HETATM   18  C4  UNL     1      17.827  -0.167  51.011  1.00  0.00     0.001 A 
HETATM   19  C5  UNL     1      18.513  -0.257  52.201  1.00  0.00     0.002 A 
HETATM   20  C6  UNL     1      19.645   0.513  52.366  1.00  0.00     0.030 A 
ENDBRANCH  12  14
ENDBRANCH   1  12
BRANCH  11  21
HETATM   21  N4  UNL     1      22.816   3.503  49.843  1.00  0.00    -0.397 N 
HETATM   22  H29 UNL     1      22.220   4.339  49.701  1.00  0.00     0.156 HD
HETATM   23  H30 UNL     1      22.256   4.186  49.297  1.00  0.00     0.156 HD
ENDBRANCH  11  21
BRANCH  10  24
HETATM   24  C16 UNL     1      25.326   4.232  50.408  1.00  0.00     0.067 C 
BRANCH  24  25
HETATM   25  C17 UNL     1      26.487   4.086  49.483  1.00  0.00     0.007 C 
BRANCH  25  26
HETATM   26  C18 UNL     1      26.695   5.409  48.724  1.00  0.00     0.001 C 
BRANCH  26  27
HETATM   27  C19 UNL     1      26.236   6.568  49.618  1.00  0.00     0.010 C 
BRANCH  27  28
HETATM   28  C20 UNL     1      26.976   7.803  49.101  1.00  0.00     0.110 C 
BRANCH  28  29
HETATM   29  C21 UNL     1      26.858   8.926  50.078  1.00  0.00     0.139 C 
HETATM   30  O3  UNL     1      25.911   9.727  50.000  1.00  0.00    -0.650 OA
BRANCH  29  31
HETATM   31  O4  UNL     1      27.596   9.378  51.176  1.00  0.00    -0.776 OA
HETATM   32  H28 UNL     1      28.577   9.123  51.285  1.00  0.00     0.167 HD
ENDBRANCH  29  31
ENDBRANCH  28  29
ENDBRANCH  27  28
ENDBRANCH  26  27
ENDBRANCH  25  26
ENDBRANCH  24  25
ENDBRANCH  10  24
BRANCH   7  33
HETATM   33  O1  UNL     1      28.675   0.892  52.998  1.00  0.00    -0.363 OA
HETATM   34  H15 UNL     1      29.190   0.950  52.129  1.00  0.00     0.217 HD
ENDBRANCH   7  33
TORSDOF 11
ENDMDL
MODEL 9
REMARK VINA RESULT:      -7.1      3.174      8.126
REMARK  11 active torsions:
REMARK  status: ('A' for Active; 'I' for Inactive)
REMARK    1  A    between atoms: C7_7  and  N1_8 
REMARK    2  A    between atoms: N1_8  and  C9_10 
REMARK    3  A    between atoms: C13_16  and  O1_17 
REMARK    4  A    between atoms: C15_20  and  C16_21 
REMARK    5  A    between atoms: C16_21  and  C17_22 
REMARK    6  A    between atoms: C17_22  and  C18_23 
REMARK    7  A    between atoms: C18_23  and  C19_24 
REMARK    8  A    between atoms: C19_24  and  C20_25 
REMARK    9  A    between atoms: C20_25  and  C21_26 
REMARK   10  A    between atoms: C21_26  and  O4_28 
REMARK   11  A    between atoms: C22_29  and  N4_30 
ROOT
HETATM    1  C9  UNL     1      23.508   3.041  51.445  1.00  0.00     0.262 C 
HETATM    2  N2  UNL     1      24.591   2.273  52.093  1.00  0.00    -0.251 NA
HETATM    3  C10 UNL     1      24.830   1.048  51.872  1.00  0.00     0.229 C 
HETATM    4  N3  UNL     1      25.876   0.299  52.494  1.00  0.00    -0.254 NA
HETATM    5  C11 UNL     1      25.525  -0.402  53.515  1.00  0.00     0.120 C 
HETATM    6  C12 UNL     1      24.816  -1.059  54.596  1.00  0.00     0.053 C 
HETATM    7  C13 UNL     1      23.554  -0.932  54.850  1.00  0.00     0.068 C 
HETATM    8  C14 UNL     1      22.382  -0.232  54.336  1.00  0.00     0.239 C 
HETATM    9  O2  UNL     1      22.542   0.576  53.240  1.00  0.00    -0.347 OA
HETATM   10  C15 UNL     1      21.714   1.369  52.533  1.00  0.00     0.072 C 
HETATM   11  C22 UNL     1      22.265   2.370  51.824  1.00  0.00     0.077 C 
ENDROOT
BRANCH   1  12
HETATM   12  N1  UNL     1      23.745   3.121  50.018  1.00  0.00    -0.357 N 
HETATM   13  C8  UNL     1      22.955   2.401  49.038  1.00  0.00     0.152 C 
BRANCH  12  14
HETATM   14  C7  UNL     1      24.820   3.952  49.589  1.00  0.00     0.037 A 
HETATM   15  C2  UNL     1      24.448   5.240  49.270  1.00  0.00    -0.035 A 
HETATM   16  C1  UNL     1      23.133   5.918  49.287  1.00  0.00     0.050 C 
HETATM   17  C3  UNL     1      25.448   6.121  48.841  1.00  0.00     0.009 A 
HETATM   18  C4  UNL     1      26.775   5.723  48.736  1.00  0.00     0.001 A 
HETATM   19  C5  UNL     1      27.127   4.431  49.059  1.00  0.00     0.002 A 
HETATM   20  C6  UNL     1      26.139   3.567  49.481  1.00  0.00     0.030 A 
ENDBRANCH  12  14
ENDBRANCH   1  12
BRANCH  11  21
HETATM   21  N4  UNL     1      21.368   3.229  51.089  1.00  0.00    -0.397 N 
HETATM   22  H29 UNL     1      21.209   3.919  50.333  1.00  0.00     0.156 HD
HETATM   23  H30 UNL     1      20.811   3.877  50.500  1.00  0.00     0.156 HD
ENDBRANCH  11  21
BRANCH  10  24
HETATM   24  C16 UNL     1      20.249   1.231  52.472  1.00  0.00     0.067 C 
BRANCH  24  25
HETATM   25  C17 UNL     1      19.735   0.156  51.575  1.00  0.00     0.007 C 
BRANCH  25  26
HETATM   26  C18 UNL     1      18.195   0.175  51.598  1.00  0.00     0.001 C 
BRANCH  26  27
HETATM   27  C19 UNL     1      17.701   1.250  50.621  1.00  0.00     0.010 C 
BRANCH  27  28
HETATM   28  C20 UNL     1      16.741   2.126  51.427  1.00  0.00     0.110 C 
BRANCH  28  29
HETATM   29  C21 UNL     1      17.224   3.538  51.454  1.00  0.00     0.139 C 
HETATM   30  O3  UNL     1      18.352   3.805  51.903  1.00  0.00    -0.650 OA
BRANCH  29  31
HETATM   31  O4  UNL     1      16.707   4.780  51.075  1.00  0.00    -0.776 OA
HETATM   32  H28 UNL     1      17.023   5.637  51.531  1.00  0.00     0.167 HD
ENDBRANCH  29  31
ENDBRANCH  28  29
ENDBRANCH  27  28
ENDBRANCH  26  27
ENDBRANCH  25  26
ENDBRANCH  24  25
ENDBRANCH  10  24
BRANCH   7  33
HETATM   33  O1  UNL     1      23.137  -1.690  55.965  1.00  0.00    -0.363 OA
HETATM   34  H15 UNL     1      22.175  -1.997  56.032  1.00  0.00     0.217 HD
ENDBRANCH   7  33
TORSDOF 11
ENDMDL
