MODEL 1
REMARK VINA RESULT:      -8.2      0.000      0.000
REMARK  3 active torsions:
REMARK  status: ('A' for Active; 'I' for Inactive)
REMARK    1  A    between atoms: C7_7  and  C8_8 
REMARK    2  A    between atoms: C9_11  and  S1_12 
REMARK    3  A    between atoms: S1_12  and  C10_13 
ROOT
HETATM    1  C8  UNL     1      26.206   1.537  52.631  1.00  0.00     0.204 A 
HETATM    2  N1  UNL     1      25.424   2.174  53.544  1.00  0.00    -0.120 NA
HETATM    3  N2  UNL     1      24.558   2.924  52.905  1.00  0.00    -0.114 NA
HETATM    4  C9  UNL     1      24.773   2.777  51.595  1.00  0.00     0.232 A 
HETATM    5  O1  UNL     1      25.786   1.924  51.440  1.00  0.00    -0.263 OA
ENDROOT
BRANCH   4   6
HETATM    6  S1  UNL     1      24.010   3.462  50.146  1.00  0.00    -0.069 SA
BRANCH   6   7
HETATM    7  C10 UNL     1      25.170   4.368  49.120  1.00  0.00     0.118 C 
HETATM    8  C11 UNL     1      26.580   3.910  49.301  1.00  0.00    -0.006 C 
HETATM    9  C12 UNL     1      27.537   4.761  48.943  1.00  0.00    -0.002 C 
HETATM   10  C13 UNL     1      27.142   6.070  48.402  1.00  0.00     0.013 C 
HETATM   11  C14 UNL     1      25.917   6.522  48.601  1.00  0.00    -0.011 C 
HETATM   12  C15 UNL     1      25.148   5.828  49.403  1.00  0.00     0.013 C 
HETATM   13  I1  UNL     1      24.104   6.945  50.855  1.00  0.00    -0.047 I 
ENDBRANCH   6   7
ENDBRANCH   4   6
BRANCH   1  14
HETATM   14  C7  UNL     1      27.293   0.608  52.926  1.00  0.00     0.025 A 
HETATM   15  C2  UNL     1      28.518   1.019  53.411  1.00  0.00    -0.047 A 
HETATM   16  C1  UNL     1      28.763   2.461  53.649  1.00  0.00     0.049 C 
HETATM   17  C3  UNL     1      29.538   0.106  53.684  1.00  0.00     0.007 A 
HETATM   18  C4  UNL     1      29.216  -1.203  53.431  1.00  0.00     0.001 A 
HETATM   19  C5  UNL     1      28.039  -1.722  52.951  1.00  0.00     0.001 A 
HETATM   20  C6  UNL     1      27.064  -0.752  52.701  1.00  0.00     0.016 A 
ENDBRANCH   1  14
TORSDOF 3
ENDMDL
MODEL 2
REMARK VINA RESULT:      -8.1      3.311      4.168
REMARK  3 active torsions:
REMARK  status: ('A' for Active; 'I' for Inactive)
REMARK    1  A    between atoms: C7_7  and  C8_8 
REMARK    2  A    between atoms: C9_11  and  S1_12 
REMARK    3  A    between atoms: S1_12  and  C10_13 
ROOT
HETATM    1  C8  UNL     1      25.456  -0.233  53.780  1.00  0.00     0.204 A 
HETATM    2  N1  UNL     1      24.606  -0.917  54.591  1.00  0.00    -0.120 NA
HETATM    3  N2  UNL     1      23.374  -0.576  54.292  1.00  0.00    -0.114 NA
HETATM    4  C9  UNL     1      23.424   0.317  53.301  1.00  0.00     0.232 A 
HETATM    5  O1  UNL     1      24.705   0.519  52.995  1.00  0.00    -0.263 OA
ENDROOT
BRANCH   4   6
HETATM    6  S1  UNL     1      22.183   1.207  52.395  1.00  0.00    -0.069 SA
BRANCH   6   7
HETATM    7  C10 UNL     1      22.548   1.305  50.641  1.00  0.00     0.118 C 
HETATM    8  C11 UNL     1      23.277   2.556  50.273  1.00  0.00    -0.006 C 
HETATM    9  C12 UNL     1      23.215   2.932  48.998  1.00  0.00    -0.002 C 
HETATM   10  C13 UNL     1      22.445   2.101  48.061  1.00  0.00     0.013 C 
HETATM   11  C14 UNL     1      21.563   1.233  48.521  1.00  0.00    -0.011 C 
HETATM   12  C15 UNL     1      21.317   1.259  49.809  1.00  0.00     0.013 C 
HETATM   13  I1  UNL     1      19.278   1.230  50.346  1.00  0.00    -0.047 I 
ENDBRANCH   6   7
ENDBRANCH   4   6
BRANCH   1  14
HETATM   14  C7  UNL     1      26.913  -0.323  53.786  1.00  0.00     0.025 A 
HETATM   15  C2  UNL     1      27.607  -1.289  53.086  1.00  0.00    -0.047 A 
HETATM   16  C1  UNL     1      26.860  -2.290  52.288  1.00  0.00     0.049 C 
HETATM   17  C3  UNL     1      29.001  -1.348  53.111  1.00  0.00     0.007 A 
HETATM   18  C4  UNL     1      29.601  -0.381  53.876  1.00  0.00     0.001 A 
HETATM   19  C5  UNL     1      29.015   0.621  54.610  1.00  0.00     0.001 A 
HETATM   20  C6  UNL     1      27.619   0.620  54.538  1.00  0.00     0.016 A 
ENDBRANCH   1  14
TORSDOF 3
ENDMDL
MODEL 3
REMARK VINA RESULT:      -7.9      2.684      3.446
REMARK  3 active torsions:
REMARK  status: ('A' for Active; 'I' for Inactive)
REMARK    1  A    between atoms: C7_7  and  C8_8 
REMARK    2  A    between atoms: C9_11  and  S1_12 
REMARK    3  A    between atoms: S1_12  and  C10_13 
ROOT
HETATM    1  C8  UNL     1      26.524   0.958  53.153  1.00  0.00     0.204 A 
HETATM    2  N1  UNL     1      26.181   1.714  54.230  1.00  0.00    -0.120 NA
HETATM    3  N2  UNL     1      25.343   2.646  53.840  1.00  0.00    -0.114 NA
HETATM    4  C9  UNL     1      25.145   2.497  52.527  1.00  0.00     0.232 A 
HETATM    5  O1  UNL     1      25.874   1.459  52.118  1.00  0.00    -0.263 OA
ENDROOT
BRANCH   4   6
HETATM    6  S1  UNL     1      24.161   3.369  51.334  1.00  0.00    -0.069 SA
BRANCH   6   7
HETATM    7  C10 UNL     1      23.390   2.270  50.143  1.00  0.00     0.118 C 
HETATM    8  C11 UNL     1      23.229   2.899  48.798  1.00  0.00    -0.006 C 
HETATM    9  C12 UNL     1      22.314   2.367  47.992  1.00  0.00    -0.002 C 
HETATM   10  C13 UNL     1      21.540   1.215  48.479  1.00  0.00     0.013 C 
HETATM   11  C14 UNL     1      21.495   0.951  49.772  1.00  0.00    -0.011 C 
HETATM   12  C15 UNL     1      22.039   1.828  50.580  1.00  0.00     0.013 C 
HETATM   13  I1  UNL     1      20.875   2.371  52.252  1.00  0.00    -0.047 I 
ENDBRANCH   6   7
ENDBRANCH   4   6
BRANCH   1  14
HETATM   14  C7  UNL     1      27.435  -0.183  53.156  1.00  0.00     0.025 A 
HETATM   15  C2  UNL     1      28.750  -0.091  53.566  1.00  0.00    -0.047 A 
HETATM   16  C1  UNL     1      29.281   1.214  54.026  1.00  0.00     0.049 C 
HETATM   17  C3  UNL     1      29.596  -1.201  53.559  1.00  0.00     0.007 A 
HETATM   18  C4  UNL     1      29.013  -2.360  53.116  1.00  0.00     0.001 A 
HETATM   19  C5  UNL     1      27.725  -2.567  52.687  1.00  0.00     0.001 A 
HETATM   20  C6  UNL     1      26.936  -1.413  52.722  1.00  0.00     0.016 A 
ENDBRANCH   1  14
TORSDOF 3
ENDMDL
MODEL 4
REMARK VINA RESULT:      -7.8      2.724      4.405
REMARK  3 active torsions:
REMARK  status: ('A' for Active; 'I' for Inactive)
REMARK    1  A    between atoms: C7_7  and  C8_8 
REMARK    2  A    between atoms: C9_11  and  S1_12 
REMARK    3  A    between atoms: S1_12  and  C10_13 
ROOT
HETATM    1  C8  UNL     1      26.585   2.351  51.899  1.00  0.00     0.204 A 
HETATM    2  N1  UNL     1      26.828   2.770  50.629  1.00  0.00    -0.120 NA
HETATM    3  N2  UNL     1      25.759   3.382  50.176  1.00  0.00    -0.114 NA
HETATM    4  C9  UNL     1      24.834   3.360  51.138  1.00  0.00     0.232 A 
HETATM    5  O1  UNL     1      25.352   2.726  52.190  1.00  0.00    -0.263 OA
ENDROOT
BRANCH   4   6
HETATM    6  S1  UNL     1      23.173   3.978  51.251  1.00  0.00    -0.069 SA
BRANCH   6   7
HETATM    7  C10 UNL     1      21.960   2.665  51.411  1.00  0.00     0.118 C 
HETATM    8  C11 UNL     1      22.451   1.526  52.244  1.00  0.00    -0.006 C 
HETATM    9  C12 UNL     1      21.840   0.355  52.077  1.00  0.00    -0.002 C 
HETATM   10  C13 UNL     1      20.744   0.272  51.100  1.00  0.00     0.013 C 
HETATM   11  C14 UNL     1      20.612   1.206  50.177  1.00  0.00    -0.011 C 
HETATM   12  C15 UNL     1      21.567   2.101  50.093  1.00  0.00     0.013 C 
HETATM   13  I1  UNL     1      22.277   2.494  48.147  1.00  0.00    -0.047 I 
ENDBRANCH   6   7
ENDBRANCH   4   6
BRANCH   1  14
HETATM   14  C7  UNL     1      27.516   1.629  52.762  1.00  0.00     0.025 A 
HETATM   15  C2  UNL     1      27.532   0.253  52.860  1.00  0.00    -0.047 A 
HETATM   16  C1  UNL     1      26.571  -0.547  52.065  1.00  0.00     0.049 C 
HETATM   17  C3  UNL     1      28.435  -0.408  53.694  1.00  0.00     0.007 A 
HETATM   18  C4  UNL     1      29.282   0.417  54.388  1.00  0.00     0.001 A 
HETATM   19  C5  UNL     1      29.354   1.788  54.369  1.00  0.00     0.001 A 
HETATM   20  C6  UNL     1      28.422   2.382  53.513  1.00  0.00     0.016 A 
ENDBRANCH   1  14
TORSDOF 3
ENDMDL
MODEL 5
REMARK VINA RESULT:      -7.7      2.586      3.200
REMARK  3 active torsions:
REMARK  status: ('A' for Active; 'I' for Inactive)
REMARK    1  A    between atoms: C7_7  and  C8_8 
REMARK    2  A    between atoms: C9_11  and  S1_12 
REMARK    3  A    between atoms: S1_12  and  C10_13 
ROOT
HETATM    1  C8  UNL     1      25.700   0.319  53.159  1.00  0.00     0.204 A 
HETATM    2  N1  UNL     1      24.604  -0.377  53.559  1.00  0.00    -0.120 NA
HETATM    3  N2  UNL     1      23.538   0.359  53.347  1.00  0.00    -0.114 NA
HETATM    4  C9  UNL     1      23.937   1.517  52.817  1.00  0.00     0.232 A 
HETATM    5  O1  UNL     1      25.264   1.481  52.706  1.00  0.00    -0.263 OA
ENDROOT
BRANCH   4   6
HETATM    6  S1  UNL     1      23.078   2.975  52.279  1.00  0.00    -0.069 SA
BRANCH   6   7
HETATM    7  C10 UNL     1      22.399   2.804  50.627  1.00  0.00     0.118 C 
HETATM    8  C11 UNL     1      21.933   1.415  50.336  1.00  0.00    -0.006 C 
HETATM    9  C12 UNL     1      21.824   1.075  49.055  1.00  0.00    -0.002 C 
HETATM   10  C13 UNL     1      22.165   2.077  48.034  1.00  0.00     0.013 C 
HETATM   11  C14 UNL     1      22.887   3.133  48.363  1.00  0.00    -0.011 C 
HETATM   12  C15 UNL     1      23.388   3.159  49.575  1.00  0.00     0.013 C 
HETATM   13  I1  UNL     1      25.425   3.686  49.705  1.00  0.00    -0.047 I 
ENDBRANCH   6   7
ENDBRANCH   4   6
BRANCH   1  14
HETATM   14  C7  UNL     1      27.085  -0.140  53.223  1.00  0.00     0.025 A 
HETATM   15  C2  UNL     1      28.142   0.702  53.503  1.00  0.00    -0.047 A 
HETATM   16  C1  UNL     1      27.883   2.140  53.750  1.00  0.00     0.049 C 
HETATM   17  C3  UNL     1      29.454   0.232  53.558  1.00  0.00     0.007 A 
HETATM   18  C4  UNL     1      29.591  -1.111  53.314  1.00  0.00     0.001 A 
HETATM   19  C5  UNL     1      28.619  -2.037  53.028  1.00  0.00     0.001 A 
HETATM   20  C6  UNL     1      27.330  -1.496  52.989  1.00  0.00     0.016 A 
ENDBRANCH   1  14
TORSDOF 3
ENDMDL
MODEL 6
REMARK VINA RESULT:      -7.7      2.987      3.855
REMARK  3 active torsions:
REMARK  status: ('A' for Active; 'I' for Inactive)
REMARK    1  A    between atoms: C7_7  and  C8_8 
REMARK    2  A    between atoms: C9_11  and  S1_12 
REMARK    3  A    between atoms: S1_12  and  C10_13 
ROOT
HETATM    1  C8  UNL     1      22.505   1.192  51.780  1.00  0.00     0.204 A 
HETATM    2  N1  UNL     1      21.920   0.841  50.604  1.00  0.00    -0.120 NA
HETATM    3  N2  UNL     1      21.982   1.863  49.783  1.00  0.00    -0.114 NA
HETATM    4  C9  UNL     1      22.598   2.864  50.417  1.00  0.00     0.232 A 
HETATM    5  O1  UNL     1      22.914   2.440  51.641  1.00  0.00    -0.263 OA
ENDROOT
BRANCH   4   6
HETATM    6  S1  UNL     1      23.033   4.521  49.953  1.00  0.00    -0.069 SA
BRANCH   6   7
HETATM    7  C10 UNL     1      24.622   4.609  49.123  1.00  0.00     0.118 C 
HETATM    8  C11 UNL     1      25.593   3.593  49.628  1.00  0.00    -0.006 C 
HETATM    9  C12 UNL     1      26.883   3.837  49.412  1.00  0.00    -0.002 C 
HETATM   10  C13 UNL     1      27.251   5.071  48.702  1.00  0.00     0.013 C 
HETATM   11  C14 UNL     1      26.381   6.061  48.607  1.00  0.00    -0.011 C 
HETATM   12  C15 UNL     1      25.265   5.941  49.283  1.00  0.00     0.013 C 
HETATM   13  I1  UNL     1      24.689   7.636  50.397  1.00  0.00    -0.047 I 
ENDBRANCH   6   7
ENDBRANCH   4   6
BRANCH   1  14
HETATM   14  C7  UNL     1      22.646   0.343  52.960  1.00  0.00     0.025 A 
HETATM   15  C2  UNL     1      23.869  -0.099  53.423  1.00  0.00    -0.047 A 
HETATM   16  C1  UNL     1      25.105   0.292  52.706  1.00  0.00     0.049 C 
HETATM   17  C3  UNL     1      23.971  -0.908  54.555  1.00  0.00     0.007 A 
HETATM   18  C4  UNL     1      22.774  -1.216  55.148  1.00  0.00     0.001 A 
HETATM   19  C5  UNL     1      21.507  -0.836  54.777  1.00  0.00     0.001 A 
HETATM   20  C6  UNL     1      21.481  -0.027  53.637  1.00  0.00     0.016 A 
ENDBRANCH   1  14
TORSDOF 3
ENDMDL
MODEL 7
REMARK VINA RESULT:      -7.6      2.780      6.906
REMARK  3 active torsions:
REMARK  status: ('A' for Active; 'I' for Inactive)
REMARK    1  A    between atoms: C7_7  and  C8_8 
REMARK    2  A    between atoms: C9_11  and  S1_12 
REMARK    3  A    between atoms: S1_12  and  C10_13 
ROOT
HETATM    1  C8  UNL     1      24.745   4.735  49.575  1.00  0.00     0.204 A 
HETATM    2  N1  UNL     1      23.947   3.803  48.988  1.00  0.00    -0.120 NA
HETATM    3  N2  UNL     1      23.526   2.969  49.910  1.00  0.00    -0.114 NA
HETATM    4  C9  UNL     1      24.044   3.353  51.079  1.00  0.00     0.232 A 
HETATM    5  O1  UNL     1      24.789   4.437  50.861  1.00  0.00    -0.263 OA
ENDROOT
BRANCH   4   6
HETATM    6  S1  UNL     1      23.923   2.724  52.735  1.00  0.00    -0.069 SA
BRANCH   6   7
HETATM    7  C10 UNL     1      25.155   1.467  53.086  1.00  0.00     0.118 C 
HETATM    8  C11 UNL     1      26.049   1.195  51.920  1.00  0.00    -0.006 C 
HETATM    9  C12 UNL     1      26.685   0.027  51.913  1.00  0.00    -0.002 C 
HETATM   10  C13 UNL     1      26.464  -0.897  53.035  1.00  0.00     0.013 C 
HETATM   11  C14 UNL     1      25.416  -0.737  53.823  1.00  0.00    -0.011 C 
HETATM   12  C15 UNL     1      24.538   0.170  53.470  1.00  0.00     0.013 C 
HETATM   13  I1  UNL     1      22.521  -0.442  53.541  1.00  0.00    -0.047 I 
ENDBRANCH   6   7
ENDBRANCH   4   6
BRANCH   1  14
HETATM   14  C7  UNL     1      25.415   5.844  48.901  1.00  0.00     0.025 A 
HETATM   15  C2  UNL     1      26.746   5.806  48.540  1.00  0.00    -0.047 A 
HETATM   16  C1  UNL     1      27.550   4.598  48.841  1.00  0.00     0.049 C 
HETATM   17  C3  UNL     1      27.358   6.882  47.896  1.00  0.00     0.007 A 
HETATM   18  C4  UNL     1      26.534   7.952  47.663  1.00  0.00     0.001 A 
HETATM   19  C5  UNL     1      25.205   8.099  47.976  1.00  0.00     0.001 A 
HETATM   20  C6  UNL     1      24.659   6.983  48.618  1.00  0.00     0.016 A 
ENDBRANCH   1  14
TORSDOF 3
ENDMDL
MODEL 8
REMARK VINA RESULT:      -7.6      2.147      3.108
REMARK  3 active torsions:
REMARK  status: ('A' for Active; 'I' for Inactive)
REMARK    1  A    between atoms: C7_7  and  C8_8 
REMARK    2  A    between atoms: C9_11  and  S1_12 
REMARK    3  A    between atoms: S1_12  and  C10_13 
ROOT
HETATM    1  C8  UNL     1      25.790   0.551  52.827  1.00  0.00     0.204 A 
HETATM    2  N1  UNL     1      24.699   0.226  53.570  1.00  0.00    -0.120 NA
HETATM    3  N2  UNL     1      23.632   0.719  52.988  1.00  0.00    -0.114 NA
HETATM    4  C9  UNL     1      24.024   1.356  51.882  1.00  0.00     0.232 A 
HETATM    5  O1  UNL     1      25.349   1.246  51.794  1.00  0.00    -0.263 OA
ENDROOT
BRANCH   4   6
HETATM    6  S1  UNL     1      23.159   2.249  50.615  1.00  0.00    -0.069 SA
BRANCH   6   7
HETATM    7  C10 UNL     1      22.865   3.963  51.059  1.00  0.00     0.118 C 
HETATM    8  C11 UNL     1      21.658   4.533  50.388  1.00  0.00    -0.006 C 
HETATM    9  C12 UNL     1      21.594   5.859  50.296  1.00  0.00    -0.002 C 
HETATM   10  C13 UNL     1      22.700   6.652  50.853  1.00  0.00     0.013 C 
HETATM   11  C14 UNL     1      23.862   6.078  51.103  1.00  0.00    -0.011 C 
HETATM   12  C15 UNL     1      24.013   4.838  50.703  1.00  0.00     0.013 C 
HETATM   13  I1  UNL     1      25.811   4.425  49.681  1.00  0.00    -0.047 I 
ENDBRANCH   6   7
ENDBRANCH   4   6
BRANCH   1  14
HETATM   14  C7  UNL     1      27.175   0.194  53.125  1.00  0.00     0.025 A 
HETATM   15  C2  UNL     1      27.682  -1.073  52.920  1.00  0.00    -0.047 A 
HETATM   16  C1  UNL     1      26.801  -2.133  52.376  1.00  0.00     0.049 C 
HETATM   17  C3  UNL     1      29.011  -1.383  53.213  1.00  0.00     0.007 A 
HETATM   18  C4  UNL     1      29.745  -0.338  53.711  1.00  0.00     0.001 A 
HETATM   19  C5  UNL     1      29.347   0.954  53.955  1.00  0.00     0.001 A 
HETATM   20  C6  UNL     1      28.006   1.192  53.638  1.00  0.00     0.016 A 
ENDBRANCH   1  14
TORSDOF 3
ENDMDL
MODEL 9
REMARK VINA RESULT:      -7.3      3.132      4.145
REMARK  3 active torsions:
REMARK  status: ('A' for Active; 'I' for Inactive)
REMARK    1  A    between atoms: C7_7  and  C8_8 
REMARK    2  A    between atoms: C9_11  and  S1_12 
REMARK    3  A    between atoms: S1_12  and  C10_13 
ROOT
HETATM    1  C8  UNL     1      23.147   2.962  52.312  1.00  0.00     0.204 A 
HETATM    2  N1  UNL     1      23.515   4.008  53.098  1.00  0.00    -0.120 NA
HETATM    3  N2  UNL     1      23.712   5.058  52.336  1.00  0.00    -0.114 NA
HETATM    4  C9  UNL     1      23.476   4.699  51.071  1.00  0.00     0.232 A 
HETATM    5  O1  UNL     1      23.130   3.412  51.069  1.00  0.00    -0.263 OA
ENDROOT
BRANCH   4   6
HETATM    6  S1  UNL     1      23.537   5.566  49.523  1.00  0.00    -0.069 SA
BRANCH   6   7
HETATM    7  C10 UNL     1      25.146   5.458  48.737  1.00  0.00     0.118 C 
HETATM    8  C11 UNL     1      25.963   4.318  49.251  1.00  0.00    -0.006 C 
HETATM    9  C12 UNL     1      27.280   4.395  49.073  1.00  0.00    -0.002 C 
HETATM   10  C13 UNL     1      27.824   5.580  48.393  1.00  0.00     0.013 C 
HETATM   11  C14 UNL     1      27.092   6.675  48.290  1.00  0.00    -0.011 C 
HETATM   12  C15 UNL     1      25.951   6.692  48.935  1.00  0.00     0.013 C 
HETATM   13  I1  UNL     1      25.568   8.434  50.060  1.00  0.00    -0.047 I 
ENDBRANCH   6   7
ENDBRANCH   4   6
BRANCH   1  14
HETATM   14  C7  UNL     1      22.834   1.610  52.765  1.00  0.00     0.025 A 
HETATM   15  C2  UNL     1      21.542   1.166  52.962  1.00  0.00    -0.047 A 
HETATM   16  C1  UNL     1      20.408   2.086  52.710  1.00  0.00     0.049 C 
HETATM   17  C3  UNL     1      21.275  -0.133  53.395  1.00  0.00     0.007 A 
HETATM   18  C4  UNL     1      22.389  -0.907  53.602  1.00  0.00     0.001 A 
HETATM   19  C5  UNL     1      23.711  -0.573  53.440  1.00  0.00     0.001 A 
HETATM   20  C6  UNL     1      23.903   0.742  53.004  1.00  0.00     0.016 A 
ENDBRANCH   1  14
TORSDOF 3
ENDMDL
