MODEL 1
REMARK VINA RESULT:      -7.8      0.000      0.000
REMARK  2 active torsions:
REMARK  status: ('A' for Active; 'I' for Inactive)
REMARK    1  A    between atoms: C2_2  and  C3_3 
REMARK    2  A    between atoms: C4_4  and  N1_5 
REMARK       I    between atoms: N1_5  and  C5_6 
ROOT
HETATM    1  N1  UNL     1      21.393   1.312  51.705  1.00  0.00    -0.201 N 
HETATM    2  C5  UNL     1      22.649   1.643  52.248  1.00  0.00     0.694 C 
HETATM    3  N2  UNL     1      22.969   2.903  52.448  1.00  0.00    -0.078 NA
HETATM    4  C6  UNL     1      24.283   3.149  53.012  1.00  0.00     0.139 C 
HETATM    5  C7  UNL     1      24.892   2.976  51.852  1.00  0.00    -0.051 C 
HETATM    6  C8  UNL     1      24.736   2.678  50.429  1.00  0.00     0.037 C 
HETATM    7  C9  UNL     1      26.156   2.170  50.395  1.00  0.00     0.020 C 
HETATM    8  C10 UNL     1      26.375   2.940  51.671  1.00  0.00     0.076 C 
HETATM    9  C11 UNL     1      26.947   1.962  52.682  1.00  0.00     0.096 C 
HETATM   10  C12 UNL     1      26.161   1.027  53.189  1.00  0.00     0.102 C 
HETATM   11  C13 UNL     1      24.775   0.855  52.852  1.00  0.00     0.360 C 
HETATM   12  N3  UNL     1      23.574   0.599  52.569  1.00  0.00    -0.225 NA
HETATM   13  N4  UNL     1      26.418  -0.009  54.148  1.00  0.00    -0.252 N 
HETATM   14  C14 UNL     1      25.319  -0.847  54.613  1.00  0.00     0.182 C 
HETATM   15  N5  UNL     1      27.671  -0.337  54.733  1.00  0.00    -0.061 NA
HETATM   16  N6  UNL     1      28.717   0.373  54.756  1.00  0.00    -0.065 NA
HETATM   17  C15 UNL     1      28.922   1.667  54.216  1.00  0.00     0.411 C 
HETATM   18  O1  UNL     1      29.728   2.421  54.866  1.00  0.00    -0.234 OA
HETATM   19  O2  UNL     1      28.276   2.085  53.040  1.00  0.00    -0.260 OA
HETATM   20  H8  UNL     1      21.390   0.387  51.215  1.00  0.00     0.183 HD
ENDROOT
BRANCH   1  21
HETATM   21  C4  UNL     1      20.380   2.312  51.938  1.00  0.00     0.102 C 
HETATM   22  C3  UNL     1      19.304   2.738  51.330  1.00  0.00    -0.009 C 
BRANCH  22  23
HETATM   23  C2  UNL     1      18.230   3.728  51.481  1.00  0.00     0.024 C 
HETATM   24  C1  UNL     1      18.155   4.570  50.226  1.00  0.00     0.009 C 
ENDBRANCH  22  23
ENDBRANCH   1  21
TORSDOF 2
ENDMDL
MODEL 2
REMARK VINA RESULT:      -7.7      2.499      3.549
REMARK  2 active torsions:
REMARK  status: ('A' for Active; 'I' for Inactive)
REMARK    1  A    between atoms: C2_2  and  C3_3 
REMARK    2  A    between atoms: C4_4  and  N1_5 
REMARK       I    between atoms: N1_5  and  C5_6 
ROOT
HETATM    1  N1  UNL     1      23.773   4.458  53.099  1.00  0.00    -0.201 N 
HETATM    2  C5  UNL     1      24.461   3.260  52.829  1.00  0.00     0.694 C 
HETATM    3  N2  UNL     1      24.101   2.508  51.812  1.00  0.00    -0.078 NA
HETATM    4  C6  UNL     1      24.867   1.293  51.609  1.00  0.00     0.139 C 
HETATM    5  C7  UNL     1      24.228   0.644  52.567  1.00  0.00    -0.051 C 
HETATM    6  C8  UNL     1      23.185   0.705  53.590  1.00  0.00     0.037 C 
HETATM    7  C9  UNL     1      23.883  -0.397  54.346  1.00  0.00     0.020 C 
HETATM    8  C10 UNL     1      24.595  -0.718  53.058  1.00  0.00     0.076 C 
HETATM    9  C11 UNL     1      26.082  -0.722  53.365  1.00  0.00     0.096 C 
HETATM   10  C12 UNL     1      26.692   0.427  53.606  1.00  0.00     0.102 C 
HETATM   11  C13 UNL     1      26.045   1.711  53.601  1.00  0.00     0.360 C 
HETATM   12  N3  UNL     1      25.547   2.865  53.676  1.00  0.00    -0.225 NA
HETATM   13  N4  UNL     1      28.061   0.727  53.913  1.00  0.00    -0.252 N 
HETATM   14  C14 UNL     1      28.484   2.118  54.028  1.00  0.00     0.182 C 
HETATM   15  N5  UNL     1      29.110  -0.207  54.129  1.00  0.00    -0.061 NA
HETATM   16  N6  UNL     1      29.123  -1.432  53.817  1.00  0.00    -0.065 NA
HETATM   17  C15 UNL     1      28.115  -2.195  53.177  1.00  0.00     0.411 C 
HETATM   18  O1  UNL     1      28.528  -3.132  52.408  1.00  0.00    -0.234 OA
HETATM   19  O2  UNL     1      26.750  -1.930  53.382  1.00  0.00    -0.260 OA
HETATM   20  H8  UNL     1      23.840   4.751  54.102  1.00  0.00     0.183 HD
ENDROOT
BRANCH   1  21
HETATM   21  C4  UNL     1      23.124   5.026  51.944  1.00  0.00     0.102 C 
HETATM   22  C3  UNL     1      21.916   5.409  51.620  1.00  0.00    -0.009 C 
BRANCH  22  23
HETATM   23  C2  UNL     1      21.170   5.986  50.495  1.00  0.00     0.024 C 
HETATM   24  C1  UNL     1      21.903   7.210  49.993  1.00  0.00     0.009 C 
ENDBRANCH  22  23
ENDBRANCH   1  21
TORSDOF 2
ENDMDL
MODEL 3
REMARK VINA RESULT:      -7.7      3.216      4.828
REMARK  2 active torsions:
REMARK  status: ('A' for Active; 'I' for Inactive)
REMARK    1  A    between atoms: C2_2  and  C3_3 
REMARK    2  A    between atoms: C4_4  and  N1_5 
REMARK       I    between atoms: N1_5  and  C5_6 
ROOT
HETATM    1  N1  UNL     1      24.299   3.287  49.557  1.00  0.00    -0.201 N 
HETATM    2  C5  UNL     1      24.458   2.716  50.834  1.00  0.00     0.694 C 
HETATM    3  N2  UNL     1      25.358   3.198  51.664  1.00  0.00    -0.078 NA
HETATM    4  C6  UNL     1      25.450   2.549  52.957  1.00  0.00     0.139 C 
HETATM    5  C7  UNL     1      26.151   1.535  52.479  1.00  0.00    -0.051 C 
HETATM    6  C8  UNL     1      26.772   0.937  51.299  1.00  0.00     0.037 C 
HETATM    7  C9  UNL     1      26.679  -0.418  51.955  1.00  0.00     0.020 C 
HETATM    8  C10 UNL     1      26.521   0.317  53.260  1.00  0.00     0.076 C 
HETATM    9  C11 UNL     1      25.261  -0.219  53.917  1.00  0.00     0.096 C 
HETATM   10  C12 UNL     1      24.083   0.100  53.406  1.00  0.00     0.102 C 
HETATM   11  C13 UNL     1      23.893   0.934  52.251  1.00  0.00     0.360 C 
HETATM   12  N3  UNL     1      23.641   1.603  51.214  1.00  0.00    -0.225 NA
HETATM   13  N4  UNL     1      22.750  -0.246  53.810  1.00  0.00    -0.252 N 
HETATM   14  C14 UNL     1      21.613   0.345  53.114  1.00  0.00     0.182 C 
HETATM   15  N5  UNL     1      22.380  -1.136  54.854  1.00  0.00    -0.061 NA
HETATM   16  N6  UNL     1      23.109  -1.558  55.797  1.00  0.00    -0.065 NA
HETATM   17  C15 UNL     1      24.469  -1.265  56.066  1.00  0.00     0.411 C 
HETATM   18  O1  UNL     1      24.798  -1.234  57.304  1.00  0.00    -0.234 OA
HETATM   19  O2  UNL     1      25.389  -1.025  55.032  1.00  0.00    -0.260 OA
HETATM   20  H8  UNL     1      23.895   2.619  48.858  1.00  0.00     0.183 HD
ENDROOT
BRANCH   1  21
HETATM   21  C4  UNL     1      24.724   4.663  49.481  1.00  0.00     0.102 C 
HETATM   22  C3  UNL     1      25.727   5.324  48.965  1.00  0.00    -0.009 C 
BRANCH  22  23
HETATM   23  C2  UNL     1      26.239   6.694  48.836  1.00  0.00     0.024 C 
HETATM   24  C1  UNL     1      27.630   6.647  48.246  1.00  0.00     0.009 C 
ENDBRANCH  22  23
ENDBRANCH   1  21
TORSDOF 2
ENDMDL
MODEL 4
REMARK VINA RESULT:      -7.4      1.747      1.973
REMARK  2 active torsions:
REMARK  status: ('A' for Active; 'I' for Inactive)
REMARK    1  A    between atoms: C2_2  and  C3_3 
REMARK    2  A    between atoms: C4_4  and  N1_5 
REMARK       I    between atoms: N1_5  and  C5_6 
ROOT
HETATM    1  N1  UNL     1      21.454   2.972  50.095  1.00  0.00    -0.201 N 
HETATM    2  C5  UNL     1      22.575   2.826  50.934  1.00  0.00     0.694 C 
HETATM    3  N2  UNL     1      23.196   3.890  51.394  1.00  0.00    -0.078 NA
HETATM    4  C6  UNL     1      24.340   3.644  52.252  1.00  0.00     0.139 C 
HETATM    5  C7  UNL     1      25.139   3.378  51.233  1.00  0.00    -0.051 C 
HETATM    6  C8  UNL     1      25.260   3.269  49.780  1.00  0.00     0.037 C 
HETATM    7  C9  UNL     1      26.425   2.328  49.963  1.00  0.00     0.020 C 
HETATM    8  C10 UNL     1      26.539   2.874  51.363  1.00  0.00     0.076 C 
HETATM    9  C11 UNL     1      26.522   1.681  52.303  1.00  0.00     0.096 C 
HETATM   10  C12 UNL     1      25.393   1.016  52.478  1.00  0.00     0.102 C 
HETATM   11  C13 UNL     1      24.148   1.337  51.836  1.00  0.00     0.360 C 
HETATM   12  N3  UNL     1      23.036   1.513  51.271  1.00  0.00    -0.225 NA
HETATM   13  N4  UNL     1      25.081  -0.124  53.293  1.00  0.00    -0.252 N 
HETATM   14  C14 UNL     1      23.703  -0.591  53.377  1.00  0.00     0.182 C 
HETATM   15  N5  UNL     1      25.993  -0.893  54.067  1.00  0.00    -0.061 NA
HETATM   16  N6  UNL     1      27.163  -0.569  54.421  1.00  0.00    -0.065 NA
HETATM   17  C15 UNL     1      27.872   0.627  54.148  1.00  0.00     0.411 C 
HETATM   18  O1  UNL     1      28.678   1.018  55.064  1.00  0.00    -0.234 OA
HETATM   19  O2  UNL     1      27.694   1.331  52.946  1.00  0.00    -0.260 OA
HETATM   20  H8  UNL     1      21.297   2.143  49.474  1.00  0.00     0.183 HD
ENDROOT
BRANCH   1  21
HETATM   21  C4  UNL     1      20.762   4.225  50.267  1.00  0.00     0.102 C 
HETATM   22  C3  UNL     1      20.607   5.330  49.585  1.00  0.00    -0.009 C 
BRANCH  22  23
HETATM   23  C2  UNL     1      19.938   6.634  49.671  1.00  0.00     0.024 C 
HETATM   24  C1  UNL     1      20.939   7.674  50.125  1.00  0.00     0.009 C 
ENDBRANCH  22  23
ENDBRANCH   1  21
TORSDOF 2
ENDMDL
MODEL 5
REMARK VINA RESULT:      -7.3      2.580      4.149
REMARK  2 active torsions:
REMARK  status: ('A' for Active; 'I' for Inactive)
REMARK    1  A    between atoms: C2_2  and  C3_3 
REMARK    2  A    between atoms: C4_4  and  N1_5 
REMARK       I    between atoms: N1_5  and  C5_6 
ROOT
HETATM    1  N1  UNL     1      19.137   2.536  51.520  1.00  0.00    -0.201 N 
HETATM    2  C5  UNL     1      20.319   1.796  51.706  1.00  0.00     0.694 C 
HETATM    3  N2  UNL     1      20.379   0.541  51.314  1.00  0.00    -0.078 NA
HETATM    4  C6  UNL     1      21.638  -0.143  51.544  1.00  0.00     0.139 C 
HETATM    5  C7  UNL     1      21.373  -0.351  52.822  1.00  0.00    -0.051 C 
HETATM    6  C8  UNL     1      20.413  -0.171  53.910  1.00  0.00     0.037 C 
HETATM    7  C9  UNL     1      21.543  -0.274  54.904  1.00  0.00     0.020 C 
HETATM    8  C10 UNL     1      22.341  -0.925  53.805  1.00  0.00     0.076 C 
HETATM    9  C11 UNL     1      23.642  -0.152  53.688  1.00  0.00     0.096 C 
HETATM   10  C12 UNL     1      23.623   1.067  53.176  1.00  0.00     0.102 C 
HETATM   11  C13 UNL     1      22.440   1.737  52.708  1.00  0.00     0.360 C 
HETATM   12  N3  UNL     1      21.448   2.416  52.332  1.00  0.00    -0.225 NA
HETATM   13  N4  UNL     1      24.676   2.014  52.940  1.00  0.00    -0.252 N 
HETATM   14  C14 UNL     1      24.378   3.263  52.251  1.00  0.00     0.182 C 
HETATM   15  N5  UNL     1      26.041   1.879  53.313  1.00  0.00    -0.061 NA
HETATM   16  N6  UNL     1      26.645   0.819  53.646  1.00  0.00    -0.065 NA
HETATM   17  C15 UNL     1      26.135  -0.500  53.738  1.00  0.00     0.411 C 
HETATM   18  O1  UNL     1      26.960  -1.437  53.448  1.00  0.00    -0.234 OA
HETATM   19  O2  UNL     1      24.808  -0.751  54.124  1.00  0.00    -0.260 OA
HETATM   20  H8  UNL     1      19.040   3.328  52.198  1.00  0.00     0.183 HD
ENDROOT
BRANCH   1  21
HETATM   21  C4  UNL     1      18.313   2.051  50.441  1.00  0.00     0.102 C 
HETATM   22  C3  UNL     1      17.129   1.510  50.313  1.00  0.00    -0.009 C 
BRANCH  22  23
HETATM   23  C2  UNL     1      16.221   0.992  49.283  1.00  0.00     0.024 C 
HETATM   24  C1  UNL     1      16.230  -0.519  49.331  1.00  0.00     0.009 C 
ENDBRANCH  22  23
ENDBRANCH   1  21
TORSDOF 2
ENDMDL
MODEL 6
REMARK VINA RESULT:      -7.0      3.921      6.790
REMARK  2 active torsions:
REMARK  status: ('A' for Active; 'I' for Inactive)
REMARK    1  A    between atoms: C2_2  and  C3_3 
REMARK    2  A    between atoms: C4_4  and  N1_5 
REMARK       I    between atoms: N1_5  and  C5_6 
ROOT
HETATM    1  N1  UNL     1      25.652   3.054  52.018  1.00  0.00    -0.201 N 
HETATM    2  C5  UNL     1      24.415   2.428  51.771  1.00  0.00     0.694 C 
HETATM    3  N2  UNL     1      23.872   2.491  50.574  1.00  0.00    -0.078 NA
HETATM    4  C6  UNL     1      22.598   1.816  50.411  1.00  0.00     0.139 C 
HETATM    5  C7  UNL     1      21.923   2.798  50.983  1.00  0.00    -0.051 C 
HETATM    6  C8  UNL     1      21.993   4.115  51.615  1.00  0.00     0.037 C 
HETATM    7  C9  UNL     1      20.707   3.817  52.344  1.00  0.00     0.020 C 
HETATM    8  C10 UNL     1      20.467   2.745  51.313  1.00  0.00     0.076 C 
HETATM    9  C11 UNL     1      20.204   1.456  52.071  1.00  0.00     0.096 C 
HETATM   10  C12 UNL     1      21.207   0.860  52.695  1.00  0.00     0.102 C 
HETATM   11  C13 UNL     1      22.559   1.346  52.715  1.00  0.00     0.360 C 
HETATM   12  N3  UNL     1      23.753   1.732  52.833  1.00  0.00    -0.225 NA
HETATM   13  N4  UNL     1      21.258  -0.347  53.470  1.00  0.00    -0.252 N 
HETATM   14  C14 UNL     1      22.543  -0.832  53.960  1.00  0.00     0.182 C 
HETATM   15  N5  UNL     1      20.160  -1.170  53.836  1.00  0.00    -0.061 NA
HETATM   16  N6  UNL     1      19.001  -1.176  53.330  1.00  0.00    -0.065 NA
HETATM   17  C15 UNL     1      18.490  -0.377  52.277  1.00  0.00     0.411 C 
HETATM   18  O1  UNL     1      17.619  -0.938  51.524  1.00  0.00    -0.234 OA
HETATM   19  O2  UNL     1      18.920   0.946  52.082  1.00  0.00    -0.260 OA
HETATM   20  H8  UNL     1      25.790   3.302  53.026  1.00  0.00     0.183 HD
ENDROOT
BRANCH   1  21
HETATM   21  C4  UNL     1      26.463   3.219  50.838  1.00  0.00     0.102 C 
HETATM   22  C3  UNL     1      26.635   4.134  49.919  1.00  0.00    -0.009 C 
BRANCH  22  23
HETATM   23  C2  UNL     1      27.418   4.393  48.705  1.00  0.00     0.024 C 
HETATM   24  C1  UNL     1      27.546   5.887  48.509  1.00  0.00     0.009 C 
ENDBRANCH  22  23
ENDBRANCH   1  21
TORSDOF 2
ENDMDL
MODEL 7
REMARK VINA RESULT:      -7.0      3.322      7.324
REMARK  2 active torsions:
REMARK  status: ('A' for Active; 'I' for Inactive)
REMARK    1  A    between atoms: C2_2  and  C3_3 
REMARK    2  A    between atoms: C4_4  and  N1_5 
REMARK       I    between atoms: N1_5  and  C5_6 
ROOT
HETATM    1  N1  UNL     1      24.940  -0.198  54.006  1.00  0.00    -0.201 N 
HETATM    2  C5  UNL     1      24.134   0.521  53.103  1.00  0.00     0.694 C 
HETATM    3  N2  UNL     1      24.655   1.006  51.997  1.00  0.00    -0.078 NA
HETATM    4  C6  UNL     1      23.750   1.732  51.126  1.00  0.00     0.139 C 
HETATM    5  C7  UNL     1      23.805   2.828  51.864  1.00  0.00    -0.051 C 
HETATM    6  C8  UNL     1      24.369   3.467  53.051  1.00  0.00     0.037 C 
HETATM    7  C9  UNL     1      23.192   4.409  53.085  1.00  0.00     0.020 C 
HETATM    8  C10 UNL     1      22.961   4.040  51.643  1.00  0.00     0.076 C 
HETATM    9  C11 UNL     1      21.515   3.591  51.530  1.00  0.00     0.096 C 
HETATM   10  C12 UNL     1      21.158   2.430  52.055  1.00  0.00     0.102 C 
HETATM   11  C13 UNL     1      22.051   1.537  52.740  1.00  0.00     0.360 C 
HETATM   12  N3  UNL     1      22.750   0.726  53.405  1.00  0.00    -0.225 NA
HETATM   13  N4  UNL     1      19.891   1.757  52.095  1.00  0.00    -0.252 N 
HETATM   14  C14 UNL     1      19.809   0.414  52.656  1.00  0.00     0.182 C 
HETATM   15  N5  UNL     1      18.645   2.261  51.634  1.00  0.00    -0.061 NA
HETATM   16  N6  UNL     1      18.452   3.238  50.856  1.00  0.00    -0.065 NA
HETATM   17  C15 UNL     1      19.408   4.085  50.242  1.00  0.00     0.411 C 
HETATM   18  O1  UNL     1      19.099   4.524  49.079  1.00  0.00    -0.234 OA
HETATM   19  O2  UNL     1      20.616   4.414  50.879  1.00  0.00    -0.260 OA
HETATM   20  H8  UNL     1      24.575  -0.177  54.987  1.00  0.00     0.183 HD
ENDROOT
BRANCH   1  21
HETATM   21  C4  UNL     1      26.092  -0.811  53.392  1.00  0.00     0.102 C 
HETATM   22  C3  UNL     1      27.385  -0.828  53.594  1.00  0.00    -0.009 C 
BRANCH  22  23
HETATM   23  C2  UNL     1      28.614  -1.406  53.038  1.00  0.00     0.024 C 
HETATM   24  C1  UNL     1      29.806  -0.669  53.606  1.00  0.00     0.009 C 
ENDBRANCH  22  23
ENDBRANCH   1  21
TORSDOF 2
ENDMDL
MODEL 8
REMARK VINA RESULT:      -7.0      4.275      6.025
REMARK  2 active torsions:
REMARK  status: ('A' for Active; 'I' for Inactive)
REMARK    1  A    between atoms: C2_2  and  C3_3 
REMARK    2  A    between atoms: C4_4  and  N1_5 
REMARK       I    between atoms: N1_5  and  C5_6 
ROOT
HETATM    1  N1  UNL     1      22.874   1.448  51.255  1.00  0.00    -0.201 N 
HETATM    2  C5  UNL     1      23.412   2.748  51.301  1.00  0.00     0.694 C 
HETATM    3  N2  UNL     1      23.170   3.525  52.335  1.00  0.00    -0.078 NA
HETATM    4  C6  UNL     1      23.766   4.847  52.297  1.00  0.00     0.139 C 
HETATM    5  C7  UNL     1      22.842   5.319  51.478  1.00  0.00    -0.051 C 
HETATM    6  C8  UNL     1      21.624   5.030  50.724  1.00  0.00     0.037 C 
HETATM    7  C9  UNL     1      21.964   6.151  49.774  1.00  0.00     0.020 C 
HETATM    8  C10 UNL     1      22.880   6.673  50.849  1.00  0.00     0.076 C 
HETATM    9  C11 UNL     1      24.247   6.857  50.212  1.00  0.00     0.096 C 
HETATM   10  C12 UNL     1      24.958   5.787  49.897  1.00  0.00     0.102 C 
HETATM   11  C13 UNL     1      24.533   4.432  50.113  1.00  0.00     0.360 C 
HETATM   12  N3  UNL     1      24.214   3.217  50.211  1.00  0.00    -0.225 NA
HETATM   13  N4  UNL     1      26.258   5.656  49.302  1.00  0.00    -0.252 N 
HETATM   14  C14 UNL     1      26.854   4.333  49.164  1.00  0.00     0.182 C 
HETATM   15  N5  UNL     1      27.078   6.705  48.807  1.00  0.00    -0.061 NA
HETATM   16  N6  UNL     1      26.971   7.942  49.047  1.00  0.00    -0.065 NA
HETATM   17  C15 UNL     1      26.021   8.608  49.860  1.00  0.00     0.411 C 
HETATM   18  O1  UNL     1      26.443   9.654  50.467  1.00  0.00    -0.234 OA
HETATM   19  O2  UNL     1      24.701   8.141  49.984  1.00  0.00    -0.260 OA
HETATM   20  H8  UNL     1      22.766   1.085  50.278  1.00  0.00     0.183 HD
ENDROOT
BRANCH   1  21
HETATM   21  C4  UNL     1      22.587   0.894  52.554  1.00  0.00     0.102 C 
HETATM   22  C3  UNL     1      21.546   0.395  53.170  1.00  0.00    -0.009 C 
BRANCH  22  23
HETATM   23  C2  UNL     1      21.159  -0.183  54.463  1.00  0.00     0.024 C 
HETATM   24  C1  UNL     1      22.277  -1.071  54.962  1.00  0.00     0.009 C 
ENDBRANCH  22  23
ENDBRANCH   1  21
TORSDOF 2
ENDMDL
MODEL 9
REMARK VINA RESULT:      -6.9      7.947     11.052
REMARK  2 active torsions:
REMARK  status: ('A' for Active; 'I' for Inactive)
REMARK    1  A    between atoms: C2_2  and  C3_3 
REMARK    2  A    between atoms: C4_4  and  N1_5 
REMARK       I    between atoms: N1_5  and  C5_6 
ROOT
HETATM    1  N1  UNL     1      32.728   4.877  48.767  1.00  0.00    -0.201 N 
HETATM    2  C5  UNL     1      31.653   5.613  48.234  1.00  0.00     0.694 C 
HETATM    3  N2  UNL     1      31.839   6.382  47.183  1.00  0.00    -0.078 NA
HETATM    4  C6  UNL     1      30.675   7.102  46.702  1.00  0.00     0.139 C 
HETATM    5  C7  UNL     1      30.771   8.029  47.640  1.00  0.00    -0.051 C 
HETATM    6  C8  UNL     1      31.518   8.511  48.801  1.00  0.00     0.037 C 
HETATM    7  C9  UNL     1      30.279   9.221  49.285  1.00  0.00     0.020 C 
HETATM    8  C10 UNL     1      29.761   9.104  47.875  1.00  0.00     0.076 C 
HETATM    9  C11 UNL     1      28.392   8.451  47.962  1.00  0.00     0.096 C 
HETATM   10  C12 UNL     1      28.310   7.168  48.273  1.00  0.00     0.102 C 
HETATM   11  C13 UNL     1      29.438   6.320  48.543  1.00  0.00     0.360 C 
HETATM   12  N3  UNL     1      30.364   5.524  48.851  1.00  0.00    -0.225 NA
HETATM   13  N4  UNL     1      27.177   6.300  48.419  1.00  0.00    -0.252 N 
HETATM   14  C14 UNL     1      27.388   4.879  48.667  1.00  0.00     0.182 C 
HETATM   15  N5  UNL     1      25.806   6.669  48.347  1.00  0.00    -0.061 NA
HETATM   16  N6  UNL     1      25.321   7.732  47.866  1.00  0.00    -0.065 NA
HETATM   17  C15 UNL     1      25.999   8.828  47.276  1.00  0.00     0.411 C 
HETATM   18  O1  UNL     1      25.375   9.426  46.330  1.00  0.00    -0.234 OA
HETATM   19  O2  UNL     1      27.275   9.224  47.711  1.00  0.00    -0.260 OA
HETATM   20  H8  UNL     1      32.604   4.648  49.781  1.00  0.00     0.183 HD
ENDROOT
BRANCH   1  21
HETATM   21  C4  UNL     1      33.768   4.594  47.809  1.00  0.00     0.102 C 
HETATM   22  C3  UNL     1      34.143   3.575  47.081  1.00  0.00    -0.009 C 
BRANCH  22  23
HETATM   23  C2  UNL     1      35.165   3.195  46.098  1.00  0.00     0.024 C 
HETATM   24  C1  UNL     1      35.052   4.101  44.893  1.00  0.00     0.009 C 
ENDBRANCH  22  23
ENDBRANCH   1  21
TORSDOF 2
ENDMDL
