MODEL 1
REMARK VINA RESULT:      -7.1      0.000      0.000
REMARK  10 active torsions:
REMARK  status: ('A' for Active; 'I' for Inactive)
REMARK    1  A    between atoms: C2_2  and  O1_3 
REMARK    2  A    between atoms: O1_3  and  C3_4 
REMARK    3  A    between atoms: C3_4  and  C4_5 
REMARK    4  A    between atoms: C5_6  and  P1_7 
REMARK    5  A    between atoms: P1_7  and  N1_8 
REMARK    6  A    between atoms: N1_8  and  C6_9 
REMARK    7  A    between atoms: C6_9  and  C7_10 
REMARK    8  A    between atoms: C7_10  and  C8_11 
REMARK    9  A    between atoms: C11_16  and  C12_17 
REMARK   10  A    between atoms: C12_17  and  C13_18 
ROOT
HETATM    1  C8  UNL     1      27.168   1.660  53.182  1.00  0.00     0.008 A 
HETATM    2  C9  UNL     1      28.357   2.163  53.645  1.00  0.00     0.131 A 
HETATM    3  N2  UNL     1      29.049   1.454  54.520  1.00  0.00    -0.253 NA
HETATM    4  C10 UNL     1      28.630   0.259  54.970  1.00  0.00     0.233 A 
HETATM    5  N3  UNL     1      27.471  -0.247  54.527  1.00  0.00    -0.241 NA
HETATM    6  C11 UNL     1      26.737   0.442  53.638  1.00  0.00     0.070 A 
ENDROOT
BRANCH   1   7
HETATM    7  C7  UNL     1      26.459   2.331  52.321  1.00  0.00     0.003 C 
BRANCH   7   8
HETATM    8  C6  UNL     1      26.560   2.440  50.851  1.00  0.00     0.119 C 
BRANCH   8   9
HETATM    9  N1  UNL     1      26.958   3.796  50.441  1.00  0.00    -0.295 NA
HETATM   10  H11 UNL     1      27.765   3.781  49.809  1.00  0.00     0.127 HD
BRANCH   9  11
HETATM   11  P1  UNL     1      25.561   4.498  49.576  1.00  0.00    -0.033 P 
HETATM   12  H10 UNL     1      24.834   3.511  48.799  1.00  0.00     0.078 HD
BRANCH  11  13
HETATM   13  C5  UNL     1      24.407   5.200  50.809  1.00  0.00     0.017 C 
HETATM   14  C4  UNL     1      23.361   4.655  51.415  1.00  0.00     0.001 C 
BRANCH  14  15
HETATM   15  C3  UNL     1      22.956   3.272  51.140  1.00  0.00     0.195 C 
BRANCH  15  16
HETATM   16  O1  UNL     1      22.076   3.138  50.074  1.00  0.00    -0.388 OA
BRANCH  16  17
HETATM   17  C2  UNL     1      22.386   1.975  49.387  1.00  0.00     0.163 C 
HETATM   18  C1  UNL     1      22.524   2.324  47.899  1.00  0.00     0.033 C 
ENDBRANCH  16  17
ENDBRANCH  15  16
ENDBRANCH  14  15
ENDBRANCH  11  13
ENDBRANCH   9  11
ENDBRANCH   8   9
ENDBRANCH   7   8
ENDBRANCH   1   7
BRANCH   6  19
HETATM   19  C12 UNL     1      25.625  -0.168  53.288  1.00  0.00     0.044 C 
BRANCH  19  20
HETATM   20  C13 UNL     1      24.249  -0.406  53.672  1.00  0.00    -0.033 A 
HETATM   21  C14 UNL     1      23.933  -1.079  54.836  1.00  0.00     0.011 A 
HETATM   22  C15 UNL     1      22.637  -1.361  55.283  1.00  0.00     0.002 A 
HETATM   23  C16 UNL     1      21.674  -0.888  54.422  1.00  0.00     0.019 A 
HETATM   24  C17 UNL     1      21.842  -0.208  53.240  1.00  0.00     0.011 A 
HETATM   25 BR1  UNL     1      20.387   0.377  52.164  1.00  0.00    -0.051 Br
HETATM   26  C18 UNL     1      23.173   0.022  52.886  1.00  0.00     0.030 A 
ENDBRANCH  19  20
ENDBRANCH   6  19
TORSDOF 10
ENDMDL
MODEL 2
REMARK VINA RESULT:      -6.9      2.970      3.874
REMARK  10 active torsions:
REMARK  status: ('A' for Active; 'I' for Inactive)
REMARK    1  A    between atoms: C2_2  and  O1_3 
REMARK    2  A    between atoms: O1_3  and  C3_4 
REMARK    3  A    between atoms: C3_4  and  C4_5 
REMARK    4  A    between atoms: C5_6  and  P1_7 
REMARK    5  A    between atoms: P1_7  and  N1_8 
REMARK    6  A    between atoms: N1_8  and  C6_9 
REMARK    7  A    between atoms: C6_9  and  C7_10 
REMARK    8  A    between atoms: C7_10  and  C8_11 
REMARK    9  A    between atoms: C11_16  and  C12_17 
REMARK   10  A    between atoms: C12_17  and  C13_18 
ROOT
HETATM    1  C8  UNL     1      27.099   1.582  53.212  1.00  0.00     0.008 A 
HETATM    2  C9  UNL     1      28.271   2.137  53.659  1.00  0.00     0.131 A 
HETATM    3  N2  UNL     1      28.993   1.469  54.542  1.00  0.00    -0.253 NA
HETATM    4  C10 UNL     1      28.620   0.268  55.015  1.00  0.00     0.233 A 
HETATM    5  N3  UNL     1      27.479  -0.288  54.588  1.00  0.00    -0.241 NA
HETATM    6  C11 UNL     1      26.715   0.357  53.691  1.00  0.00     0.070 A 
ENDROOT
BRANCH   1   7
HETATM    7  C7  UNL     1      26.361   2.212  52.343  1.00  0.00     0.003 C 
BRANCH   7   8
HETATM    8  C6  UNL     1      26.516   2.394  50.885  1.00  0.00     0.119 C 
BRANCH   8   9
HETATM    9  N1  UNL     1      27.072   3.719  50.567  1.00  0.00    -0.295 NA
HETATM   10  H11 UNL     1      28.018   3.649  50.177  1.00  0.00     0.127 HD
BRANCH   9  11
HETATM   11  P1  UNL     1      25.994   4.445  49.341  1.00  0.00    -0.033 P 
HETATM   12  H10 UNL     1      24.629   4.582  49.811  1.00  0.00     0.078 HD
BRANCH  11  13
HETATM   13  C5  UNL     1      26.617   6.117  48.937  1.00  0.00     0.017 C 
HETATM   14  C4  UNL     1      27.791   6.504  48.457  1.00  0.00     0.001 C 
BRANCH  14  15
HETATM   15  C3  UNL     1      28.850   5.534  48.158  1.00  0.00     0.195 C 
BRANCH  15  16
HETATM   16  O1  UNL     1      30.106   6.099  47.976  1.00  0.00    -0.388 OA
BRANCH  16  17
HETATM   17  C2  UNL     1      31.019   5.084  47.741  1.00  0.00     0.163 C 
HETATM   18  C1  UNL     1      32.279   5.378  48.566  1.00  0.00     0.033 C 
ENDBRANCH  16  17
ENDBRANCH  15  16
ENDBRANCH  14  15
ENDBRANCH  11  13
ENDBRANCH   9  11
ENDBRANCH   8   9
ENDBRANCH   7   8
ENDBRANCH   1   7
BRANCH   6  19
HETATM   19  C12 UNL     1      25.625  -0.299  53.358  1.00  0.00     0.044 C 
BRANCH  19  20
HETATM   20  C13 UNL     1      24.208  -0.430  53.630  1.00  0.00    -0.033 A 
HETATM   21  C14 UNL     1      23.749  -1.030  54.786  1.00  0.00     0.011 A 
HETATM   22  C15 UNL     1      22.404  -1.207  55.130  1.00  0.00     0.002 A 
HETATM   23  C16 UNL     1      21.552  -0.711  54.170  1.00  0.00     0.019 A 
HETATM   24  C17 UNL     1      21.865  -0.096  52.982  1.00  0.00     0.011 A 
HETATM   25 BR1  UNL     1      20.549   0.534  51.761  1.00  0.00    -0.051 Br
HETATM   26  C18 UNL     1      23.233   0.031  52.737  1.00  0.00     0.030 A 
ENDBRANCH  19  20
ENDBRANCH   6  19
TORSDOF 10
ENDMDL
MODEL 3
REMARK VINA RESULT:      -6.9      2.169      2.762
REMARK  10 active torsions:
REMARK  status: ('A' for Active; 'I' for Inactive)
REMARK    1  A    between atoms: C2_2  and  O1_3 
REMARK    2  A    between atoms: O1_3  and  C3_4 
REMARK    3  A    between atoms: C3_4  and  C4_5 
REMARK    4  A    between atoms: C5_6  and  P1_7 
REMARK    5  A    between atoms: P1_7  and  N1_8 
REMARK    6  A    between atoms: N1_8  and  C6_9 
REMARK    7  A    between atoms: C6_9  and  C7_10 
REMARK    8  A    between atoms: C7_10  and  C8_11 
REMARK    9  A    between atoms: C11_16  and  C12_17 
REMARK   10  A    between atoms: C12_17  and  C13_18 
ROOT
HETATM    1  C8  UNL     1      27.134   0.953  52.704  1.00  0.00     0.008 A 
HETATM    2  C9  UNL     1      28.388   1.358  53.082  1.00  0.00     0.131 A 
HETATM    3  N2  UNL     1      28.885   0.907  54.220  1.00  0.00    -0.253 NA
HETATM    4  C10 UNL     1      28.205   0.066  55.018  1.00  0.00     0.233 A 
HETATM    5  N3  UNL     1      26.979  -0.340  54.663  1.00  0.00    -0.241 NA
HETATM    6  C11 UNL     1      26.437   0.095  53.514  1.00  0.00     0.070 A 
ENDROOT
BRANCH   1   7
HETATM    7  C7  UNL     1      26.612   1.379  51.589  1.00  0.00     0.003 C 
BRANCH   7   8
HETATM    8  C6  UNL     1      26.254   2.739  51.139  1.00  0.00     0.119 C 
BRANCH   8   9
HETATM    9  N1  UNL     1      25.309   3.379  52.069  1.00  0.00    -0.295 NA
HETATM   10  H11 UNL     1      25.754   4.130  52.606  1.00  0.00     0.127 HD
BRANCH   9  11
HETATM   11  P1  UNL     1      24.004   4.080  51.069  1.00  0.00    -0.033 P 
HETATM   12  H10 UNL     1      22.719   3.453  51.312  1.00  0.00     0.078 HD
BRANCH  11  13
HETATM   13  C5  UNL     1      23.848   5.855  51.482  1.00  0.00     0.017 C 
HETATM   14  C4  UNL     1      24.463   6.914  50.973  1.00  0.00     0.001 C 
BRANCH  14  15
HETATM   15  C3  UNL     1      25.455   6.776  49.900  1.00  0.00     0.195 C 
BRANCH  15  16
HETATM   16  O1  UNL     1      26.463   7.731  49.931  1.00  0.00    -0.388 OA
BRANCH  16  17
HETATM   17  C2  UNL     1      27.346   7.477  48.894  1.00  0.00     0.163 C 
HETATM   18  C1  UNL     1      27.228   5.993  48.522  1.00  0.00     0.033 C 
ENDBRANCH  16  17
ENDBRANCH  15  16
ENDBRANCH  14  15
ENDBRANCH  11  13
ENDBRANCH   9  11
ENDBRANCH   8   9
ENDBRANCH   7   8
ENDBRANCH   1   7
BRANCH   6  19
HETATM   19  C12 UNL     1      25.232  -0.379  53.287  1.00  0.00     0.044 C 
BRANCH  19  20
HETATM   20  C13 UNL     1      23.827  -0.204  53.593  1.00  0.00    -0.033 A 
HETATM   21  C14 UNL     1      23.190  -0.999  54.526  1.00  0.00     0.011 A 
HETATM   22  C15 UNL     1      21.839  -0.908  54.881  1.00  0.00     0.002 A 
HETATM   23  C16 UNL     1      21.183   0.083  54.187  1.00  0.00     0.019 A 
HETATM   24  C17 UNL     1      21.686   0.940  53.239  1.00  0.00     0.011 A 
HETATM   25 BR1  UNL     1      20.629   2.263  52.371  1.00  0.00    -0.051 Br
HETATM   26  C18 UNL     1      23.042   0.767  52.959  1.00  0.00     0.030 A 
ENDBRANCH  19  20
ENDBRANCH   6  19
TORSDOF 10
ENDMDL
MODEL 4
REMARK VINA RESULT:      -6.6      2.756      5.246
REMARK  10 active torsions:
REMARK  status: ('A' for Active; 'I' for Inactive)
REMARK    1  A    between atoms: C2_2  and  O1_3 
REMARK    2  A    between atoms: O1_3  and  C3_4 
REMARK    3  A    between atoms: C3_4  and  C4_5 
REMARK    4  A    between atoms: C5_6  and  P1_7 
REMARK    5  A    between atoms: P1_7  and  N1_8 
REMARK    6  A    between atoms: N1_8  and  C6_9 
REMARK    7  A    between atoms: C6_9  and  C7_10 
REMARK    8  A    between atoms: C7_10  and  C8_11 
REMARK    9  A    between atoms: C11_16  and  C12_17 
REMARK   10  A    between atoms: C12_17  and  C13_18 
ROOT
HETATM    1  C8  UNL     1      26.358   0.837  53.197  1.00  0.00     0.008 A 
HETATM    2  C9  UNL     1      26.995   0.485  54.360  1.00  0.00     0.131 A 
HETATM    3  N2  UNL     1      28.160   1.044  54.639  1.00  0.00    -0.253 NA
HETATM    4  C10 UNL     1      28.740   1.943  53.825  1.00  0.00     0.233 A 
HETATM    5  N3  UNL     1      28.130   2.298  52.686  1.00  0.00    -0.241 NA
HETATM    6  C11 UNL     1      26.945   1.753  52.365  1.00  0.00     0.070 A 
ENDROOT
BRANCH   1   7
HETATM    7  C7  UNL     1      25.209   0.306  52.889  1.00  0.00     0.003 C 
BRANCH   7   8
HETATM    8  C6  UNL     1      23.992   0.084  53.697  1.00  0.00     0.119 C 
BRANCH   8   9
HETATM    9  N1  UNL     1      23.206  -1.049  53.179  1.00  0.00    -0.295 NA
HETATM   10  H11 UNL     1      23.710  -1.936  53.276  1.00  0.00     0.127 HD
BRANCH   9  11
HETATM   11  P1  UNL     1      21.713  -1.123  54.158  1.00  0.00    -0.033 P 
HETATM   12  H10 UNL     1      21.982  -1.338  55.568  1.00  0.00     0.078 HD
BRANCH  11  13
HETATM   13  C5  UNL     1      20.831   0.470  53.992  1.00  0.00     0.017 C 
HETATM   14  C4  UNL     1      20.309   1.057  52.924  1.00  0.00     0.001 C 
BRANCH  14  15
HETATM   15  C3  UNL     1      20.385   0.433  51.599  1.00  0.00     0.195 C 
BRANCH  15  16
HETATM   16  O1  UNL     1      21.657   0.437  51.039  1.00  0.00    -0.388 OA
BRANCH  16  17
HETATM   17  C2  UNL     1      22.023   1.747  50.779  1.00  0.00     0.163 C 
HETATM   18  C1  UNL     1      22.171   1.907  49.259  1.00  0.00     0.033 C 
ENDBRANCH  16  17
ENDBRANCH  15  16
ENDBRANCH  14  15
ENDBRANCH  11  13
ENDBRANCH   9  11
ENDBRANCH   8   9
ENDBRANCH   7   8
ENDBRANCH   1   7
BRANCH   6  19
HETATM   19  C12 UNL     1      26.458   2.188  51.223  1.00  0.00     0.044 C 
BRANCH  19  20
HETATM   20  C13 UNL     1      26.093   3.378  50.482  1.00  0.00    -0.033 A 
HETATM   21  C14 UNL     1      26.936   3.918  49.530  1.00  0.00     0.011 A 
HETATM   22  C15 UNL     1      26.673   5.065  48.772  1.00  0.00     0.002 A 
HETATM   23  C16 UNL     1      25.453   5.624  49.078  1.00  0.00     0.019 A 
HETATM   24  C17 UNL     1      24.522   5.198  49.995  1.00  0.00     0.011 A 
HETATM   25 BR1  UNL     1      22.872   6.097  50.293  1.00  0.00    -0.051 Br
HETATM   26  C18 UNL     1      24.882   4.045  50.695  1.00  0.00     0.030 A 
ENDBRANCH  19  20
ENDBRANCH   6  19
TORSDOF 10
ENDMDL
MODEL 5
REMARK VINA RESULT:      -6.5      3.244      5.434
REMARK  10 active torsions:
REMARK  status: ('A' for Active; 'I' for Inactive)
REMARK    1  A    between atoms: C2_2  and  O1_3 
REMARK    2  A    between atoms: O1_3  and  C3_4 
REMARK    3  A    between atoms: C3_4  and  C4_5 
REMARK    4  A    between atoms: C5_6  and  P1_7 
REMARK    5  A    between atoms: P1_7  and  N1_8 
REMARK    6  A    between atoms: N1_8  and  C6_9 
REMARK    7  A    between atoms: C6_9  and  C7_10 
REMARK    8  A    between atoms: C7_10  and  C8_11 
REMARK    9  A    between atoms: C11_16  and  C12_17 
REMARK   10  A    between atoms: C12_17  and  C13_18 
ROOT
HETATM    1  C8  UNL     1      22.451  -0.118  53.181  1.00  0.00     0.008 A 
HETATM    2  C9  UNL     1      21.437  -0.649  53.936  1.00  0.00     0.131 A 
HETATM    3  N2  UNL     1      21.745  -1.308  55.040  1.00  0.00    -0.253 NA
HETATM    4  C10 UNL     1      23.015  -1.474  55.447  1.00  0.00     0.233 A 
HETATM    5  N3  UNL     1      24.017  -0.960  54.721  1.00  0.00    -0.241 NA
HETATM    6  C11 UNL     1      23.747  -0.284  53.593  1.00  0.00     0.070 A 
ENDROOT
BRANCH   1   7
HETATM    7  C7  UNL     1      22.184   0.536  52.087  1.00  0.00     0.003 C 
BRANCH   7   8
HETATM    8  C6  UNL     1      21.038   0.453  51.158  1.00  0.00     0.119 C 
BRANCH   8   9
HETATM    9  N1  UNL     1      20.349   1.749  51.041  1.00  0.00    -0.295 NA
HETATM   10  H11 UNL     1      20.926   2.518  51.397  1.00  0.00     0.127 HD
BRANCH   9  11
HETATM   11  P1  UNL     1      20.048   2.012  49.300  1.00  0.00    -0.033 P 
HETATM   12  H10 UNL     1      19.650   3.375  49.004  1.00  0.00     0.078 HD
BRANCH  11  13
HETATM   13  C5  UNL     1      21.594   1.668  48.384  1.00  0.00     0.017 C 
HETATM   14  C4  UNL     1      22.749   2.320  48.373  1.00  0.00     0.001 C 
BRANCH  14  15
HETATM   15  C3  UNL     1      22.950   3.528  49.180  1.00  0.00     0.195 C 
BRANCH  15  16
HETATM   16  O1  UNL     1      23.677   3.320  50.346  1.00  0.00    -0.388 OA
BRANCH  16  17
HETATM   17  C2  UNL     1      23.478   4.399  51.191  1.00  0.00     0.163 C 
HETATM   18  C1  UNL     1      23.607   3.901  52.637  1.00  0.00     0.033 C 
ENDBRANCH  16  17
ENDBRANCH  15  16
ENDBRANCH  14  15
ENDBRANCH  11  13
ENDBRANCH   9  11
ENDBRANCH   8   9
ENDBRANCH   7   8
ENDBRANCH   1   7
BRANCH   6  19
HETATM   19  C12 UNL     1      24.820   0.166  52.978  1.00  0.00     0.044 C 
BRANCH  19  20
HETATM   20  C13 UNL     1      26.206   0.542  53.165  1.00  0.00    -0.033 A 
HETATM   21  C14 UNL     1      26.590   1.867  53.228  1.00  0.00     0.011 A 
HETATM   22  C15 UNL     1      27.901   2.324  53.399  1.00  0.00     0.002 A 
HETATM   23  C16 UNL     1      28.804   1.291  53.500  1.00  0.00     0.019 A 
HETATM   24  C17 UNL     1      28.567  -0.062  53.454  1.00  0.00     0.011 A 
HETATM   25 BR1  UNL     1      29.945  -1.364  53.612  1.00  0.00    -0.051 Br
HETATM   26  C18 UNL     1      27.226  -0.410  53.282  1.00  0.00     0.030 A 
ENDBRANCH  19  20
ENDBRANCH   6  19
TORSDOF 10
ENDMDL
MODEL 6
REMARK VINA RESULT:      -6.5      1.780      2.312
REMARK  10 active torsions:
REMARK  status: ('A' for Active; 'I' for Inactive)
REMARK    1  A    between atoms: C2_2  and  O1_3 
REMARK    2  A    between atoms: O1_3  and  C3_4 
REMARK    3  A    between atoms: C3_4  and  C4_5 
REMARK    4  A    between atoms: C5_6  and  P1_7 
REMARK    5  A    between atoms: P1_7  and  N1_8 
REMARK    6  A    between atoms: N1_8  and  C6_9 
REMARK    7  A    between atoms: C6_9  and  C7_10 
REMARK    8  A    between atoms: C7_10  and  C8_11 
REMARK    9  A    between atoms: C11_16  and  C12_17 
REMARK   10  A    between atoms: C12_17  and  C13_18 
ROOT
HETATM    1  C8  UNL     1      27.115   0.906  52.759  1.00  0.00     0.008 A 
HETATM    2  C9  UNL     1      28.328   1.415  53.144  1.00  0.00     0.131 A 
HETATM    3  N2  UNL     1      28.868   0.986  54.271  1.00  0.00    -0.253 NA
HETATM    4  C10 UNL     1      28.270   0.070  55.052  1.00  0.00     0.233 A 
HETATM    5  N3  UNL     1      27.084  -0.438  54.691  1.00  0.00    -0.241 NA
HETATM    6  C11 UNL     1      26.501  -0.029  53.552  1.00  0.00     0.070 A 
ENDROOT
BRANCH   1   7
HETATM    7  C7  UNL     1      26.553   1.306  51.654  1.00  0.00     0.003 C 
BRANCH   7   8
HETATM    8  C6  UNL     1      25.736   2.500  51.355  1.00  0.00     0.119 C 
BRANCH   8   9
HETATM    9  N1  UNL     1      26.578   3.636  50.948  1.00  0.00    -0.295 NA
HETATM   10  H11 UNL     1      27.554   3.355  50.811  1.00  0.00     0.127 HD
BRANCH   9  11
HETATM   11  P1  UNL     1      25.924   4.226  49.394  1.00  0.00    -0.033 P 
HETATM   12  H10 UNL     1      24.501   3.977  49.258  1.00  0.00     0.078 HD
BRANCH  11  13
HETATM   13  C5  UNL     1      26.186   6.034  49.302  1.00  0.00     0.017 C 
HETATM   14  C4  UNL     1      25.613   7.021  49.978  1.00  0.00     0.001 C 
BRANCH  14  15
HETATM   15  C3  UNL     1      24.587   6.755  50.992  1.00  0.00     0.195 C 
BRANCH  15  16
HETATM   16  O1  UNL     1      23.307   6.589  50.478  1.00  0.00    -0.388 OA
BRANCH  16  17
HETATM   17  C2  UNL     1      22.717   7.835  50.346  1.00  0.00     0.163 C 
HETATM   18  C1  UNL     1      21.195   7.648  50.397  1.00  0.00     0.033 C 
ENDBRANCH  16  17
ENDBRANCH  15  16
ENDBRANCH  14  15
ENDBRANCH  11  13
ENDBRANCH   9  11
ENDBRANCH   8   9
ENDBRANCH   7   8
ENDBRANCH   1   7
BRANCH   6  19
HETATM   19  C12 UNL     1      25.343  -0.606  53.316  1.00  0.00     0.044 C 
BRANCH  19  20
HETATM   20  C13 UNL     1      23.915  -0.498  53.534  1.00  0.00    -0.033 A 
HETATM   21  C14 UNL     1      23.321  -1.009  54.672  1.00  0.00     0.011 A 
HETATM   22  C15 UNL     1      21.953  -0.959  54.965  1.00  0.00     0.002 A 
HETATM   23  C16 UNL     1      21.231  -0.331  53.975  1.00  0.00     0.019 A 
HETATM   24  C17 UNL     1      21.686   0.218  52.801  1.00  0.00     0.011 A 
HETATM   25 BR1  UNL     1      20.539   1.055  51.534  1.00  0.00    -0.051 Br
HETATM   26  C18 UNL     1      23.065   0.116  52.607  1.00  0.00     0.030 A 
ENDBRANCH  19  20
ENDBRANCH   6  19
TORSDOF 10
ENDMDL
MODEL 7
REMARK VINA RESULT:      -6.4      1.460      1.948
REMARK  10 active torsions:
REMARK  status: ('A' for Active; 'I' for Inactive)
REMARK    1  A    between atoms: C2_2  and  O1_3 
REMARK    2  A    between atoms: O1_3  and  C3_4 
REMARK    3  A    between atoms: C3_4  and  C4_5 
REMARK    4  A    between atoms: C5_6  and  P1_7 
REMARK    5  A    between atoms: P1_7  and  N1_8 
REMARK    6  A    between atoms: N1_8  and  C6_9 
REMARK    7  A    between atoms: C6_9  and  C7_10 
REMARK    8  A    between atoms: C7_10  and  C8_11 
REMARK    9  A    between atoms: C11_16  and  C12_17 
REMARK   10  A    between atoms: C12_17  and  C13_18 
ROOT
HETATM    1  C8  UNL     1      26.951   1.301  52.808  1.00  0.00     0.008 A 
HETATM    2  C9  UNL     1      28.132   1.825  53.268  1.00  0.00     0.131 A 
HETATM    3  N2  UNL     1      28.695   1.282  54.334  1.00  0.00    -0.253 NA
HETATM    4  C10 UNL     1      28.151   0.237  54.980  1.00  0.00     0.233 A 
HETATM    5  N3  UNL     1      26.999  -0.287  54.543  1.00  0.00    -0.241 NA
HETATM    6  C11 UNL     1      26.394   0.235  53.464  1.00  0.00     0.070 A 
ENDROOT
BRANCH   1   7
HETATM    7  C7  UNL     1      26.368   1.811  51.761  1.00  0.00     0.003 C 
BRANCH   7   8
HETATM    8  C6  UNL     1      25.396   2.916  51.631  1.00  0.00     0.119 C 
BRANCH   8   9
HETATM    9  N1  UNL     1      25.918   3.989  50.768  1.00  0.00    -0.295 NA
HETATM   10  H11 UNL     1      26.779   3.705  50.290  1.00  0.00     0.127 HD
BRANCH   9  11
HETATM   11  P1  UNL     1      24.659   4.319  49.544  1.00  0.00    -0.033 P 
HETATM   12  H10 UNL     1      25.215   4.582  48.230  1.00  0.00     0.078 HD
BRANCH  11  13
HETATM   13  C5  UNL     1      23.580   2.847  49.411  1.00  0.00     0.017 C 
HETATM   14  C4  UNL     1      22.519   2.626  48.647  1.00  0.00     0.001 C 
BRANCH  14  15
HETATM   15  C3  UNL     1      22.025   3.645  47.715  1.00  0.00     0.195 C 
BRANCH  15  16
HETATM   16  O1  UNL     1      22.026   3.248  46.384  1.00  0.00    -0.388 OA
BRANCH  16  17
HETATM   17  C2  UNL     1      21.917   4.375  45.585  1.00  0.00     0.163 C 
HETATM   18  C1  UNL     1      22.224   5.604  46.452  1.00  0.00     0.033 C 
ENDBRANCH  16  17
ENDBRANCH  15  16
ENDBRANCH  14  15
ENDBRANCH  11  13
ENDBRANCH   9  11
ENDBRANCH   8   9
ENDBRANCH   7   8
ENDBRANCH   1   7
BRANCH   6  19
HETATM   19  C12 UNL     1      25.272  -0.373  53.142  1.00  0.00     0.044 C 
BRANCH  19  20
HETATM   20  C13 UNL     1      23.841  -0.386  53.367  1.00  0.00    -0.033 A 
HETATM   21  C14 UNL     1      23.302  -0.877  54.540  1.00  0.00     0.011 A 
HETATM   22  C15 UNL     1      21.936  -0.936  54.841  1.00  0.00     0.002 A 
HETATM   23  C16 UNL     1      21.155  -0.443  53.822  1.00  0.00     0.019 A 
HETATM   24  C17 UNL     1      21.552   0.071  52.611  1.00  0.00     0.011 A 
HETATM   25 BR1  UNL     1      20.328   0.714  51.305  1.00  0.00    -0.051 Br
HETATM   26  C18 UNL     1      22.934   0.086  52.411  1.00  0.00     0.030 A 
ENDBRANCH  19  20
ENDBRANCH   6  19
TORSDOF 10
ENDMDL
MODEL 8
REMARK VINA RESULT:      -6.4      2.933      6.025
REMARK  10 active torsions:
REMARK  status: ('A' for Active; 'I' for Inactive)
REMARK    1  A    between atoms: C2_2  and  O1_3 
REMARK    2  A    between atoms: O1_3  and  C3_4 
REMARK    3  A    between atoms: C3_4  and  C4_5 
REMARK    4  A    between atoms: C5_6  and  P1_7 
REMARK    5  A    between atoms: P1_7  and  N1_8 
REMARK    6  A    between atoms: N1_8  and  C6_9 
REMARK    7  A    between atoms: C6_9  and  C7_10 
REMARK    8  A    between atoms: C7_10  and  C8_11 
REMARK    9  A    between atoms: C11_16  and  C12_17 
REMARK   10  A    between atoms: C12_17  and  C13_18 
ROOT
HETATM    1  C8  UNL     1      23.812   3.639  49.359  1.00  0.00     0.008 A 
HETATM    2  C9  UNL     1      23.840   4.837  48.692  1.00  0.00     0.131 A 
HETATM    3  N2  UNL     1      22.757   5.227  48.043  1.00  0.00    -0.253 NA
HETATM    4  C10 UNL     1      21.632   4.491  48.013  1.00  0.00     0.233 A 
HETATM    5  N3  UNL     1      21.588   3.319  48.660  1.00  0.00    -0.241 NA
HETATM    6  C11 UNL     1      22.667   2.886  49.333  1.00  0.00     0.070 A 
ENDROOT
BRANCH   1   7
HETATM    7  C7  UNL     1      24.861   3.222  50.009  1.00  0.00     0.003 C 
BRANCH   7   8
HETATM    8  C6  UNL     1      26.268   3.671  49.975  1.00  0.00     0.119 C 
BRANCH   8   9
HETATM    9  N1  UNL     1      27.016   3.176  51.143  1.00  0.00    -0.295 NA
HETATM   10  H11 UNL     1      26.917   3.800  51.949  1.00  0.00     0.127 HD
BRANCH   9  11
HETATM   11  P1  UNL     1      26.320   1.583  51.557  1.00  0.00    -0.033 P 
HETATM   12  H10 UNL     1      27.280   0.504  51.423  1.00  0.00     0.078 HD
BRANCH  11  13
HETATM   13  C5  UNL     1      25.768   1.627  53.301  1.00  0.00     0.017 C 
HETATM   14  C4  UNL     1      26.360   1.182  54.401  1.00  0.00     0.001 C 
BRANCH  14  15
HETATM   15  C3  UNL     1      27.672   0.527  54.349  1.00  0.00     0.195 C 
BRANCH  15  16
HETATM   16  O1  UNL     1      27.614  -0.851  54.179  1.00  0.00    -0.388 OA
BRANCH  16  17
HETATM   17  C2  UNL     1      28.548  -1.219  53.224  1.00  0.00     0.163 C 
HETATM   18  C1  UNL     1      29.919  -0.696  53.673  1.00  0.00     0.033 C 
ENDBRANCH  16  17
ENDBRANCH  15  16
ENDBRANCH  14  15
ENDBRANCH  11  13
ENDBRANCH   9  11
ENDBRANCH   8   9
ENDBRANCH   7   8
ENDBRANCH   1   7
BRANCH   6  19
HETATM   19  C12 UNL     1      22.490   1.723  49.921  1.00  0.00     0.044 C 
BRANCH  19  20
HETATM   20  C13 UNL     1      21.730   1.031  50.941  1.00  0.00    -0.033 A 
HETATM   21  C14 UNL     1      20.360   0.883  50.842  1.00  0.00     0.011 A 
HETATM   22  C15 UNL     1      19.544   0.238  51.778  1.00  0.00     0.002 A 
HETATM   23  C16 UNL     1      20.262  -0.251  52.846  1.00  0.00     0.019 A 
HETATM   24  C17 UNL     1      21.615  -0.177  53.074  1.00  0.00     0.011 A 
HETATM   25 BR1  UNL     1      22.449  -0.914  54.617  1.00  0.00    -0.051 Br
HETATM   26  C18 UNL     1      22.336   0.485  52.079  1.00  0.00     0.030 A 
ENDBRANCH  19  20
ENDBRANCH   6  19
TORSDOF 10
ENDMDL
MODEL 9
REMARK VINA RESULT:      -6.4      2.991      5.659
REMARK  10 active torsions:
REMARK  status: ('A' for Active; 'I' for Inactive)
REMARK    1  A    between atoms: C2_2  and  O1_3 
REMARK    2  A    between atoms: O1_3  and  C3_4 
REMARK    3  A    between atoms: C3_4  and  C4_5 
REMARK    4  A    between atoms: C5_6  and  P1_7 
REMARK    5  A    between atoms: P1_7  and  N1_8 
REMARK    6  A    between atoms: N1_8  and  C6_9 
REMARK    7  A    between atoms: C6_9  and  C7_10 
REMARK    8  A    between atoms: C7_10  and  C8_11 
REMARK    9  A    between atoms: C11_16  and  C12_17 
REMARK   10  A    between atoms: C12_17  and  C13_18 
ROOT
HETATM    1  C8  UNL     1      23.365  -0.514  53.903  1.00  0.00     0.008 A 
HETATM    2  C9  UNL     1      23.014  -1.306  54.966  1.00  0.00     0.131 A 
HETATM    3  N2  UNL     1      21.748  -1.663  55.100  1.00  0.00    -0.253 NA
HETATM    4  C10 UNL     1      20.796  -1.277  54.234  1.00  0.00     0.233 A 
HETATM    5  N3  UNL     1      21.122  -0.503  53.190  1.00  0.00    -0.241 NA
HETATM    6  C11 UNL     1      22.397  -0.118  53.017  1.00  0.00     0.070 A 
ENDROOT
BRANCH   1   7
HETATM    7  C7  UNL     1      24.602  -0.142  53.739  1.00  0.00     0.003 C 
BRANCH   7   8
HETATM    8  C6  UNL     1      25.831  -0.927  53.506  1.00  0.00     0.119 C 
BRANCH   8   9
HETATM    9  N1  UNL     1      26.843  -0.658  54.541  1.00  0.00    -0.295 NA
HETATM   10  H11 UNL     1      26.915  -1.431  55.211  1.00  0.00     0.127 HD
BRANCH   9  11
HETATM   11  P1  UNL     1      28.406  -0.479  53.695  1.00  0.00    -0.033 P 
HETATM   12  H10 UNL     1      28.304  -0.752  52.273  1.00  0.00     0.078 HD
BRANCH  11  13
HETATM   13  C5  UNL     1      28.978   1.248  53.892  1.00  0.00     0.017 C 
HETATM   14  C4  UNL     1      28.435   2.386  53.480  1.00  0.00     0.001 C 
BRANCH  14  15
HETATM   15  C3  UNL     1      27.173   2.401  52.733  1.00  0.00     0.195 C 
BRANCH  15  16
HETATM   16  O1  UNL     1      27.317   2.211  51.365  1.00  0.00    -0.388 OA
BRANCH  16  17
HETATM   17  C2  UNL     1      26.461   3.076  50.704  1.00  0.00     0.163 C 
HETATM   18  C1  UNL     1      25.148   3.144  51.497  1.00  0.00     0.033 C 
ENDBRANCH  16  17
ENDBRANCH  15  16
ENDBRANCH  14  15
ENDBRANCH  11  13
ENDBRANCH   9  11
ENDBRANCH   8   9
ENDBRANCH   7   8
ENDBRANCH   1   7
BRANCH   6  19
HETATM   19  C12 UNL     1      22.580   0.637  51.955  1.00  0.00     0.044 C 
BRANCH  19  20
HETATM   20  C13 UNL     1      21.899   1.392  50.923  1.00  0.00    -0.033 A 
HETATM   21  C14 UNL     1      21.570   0.818  49.711  1.00  0.00     0.011 A 
HETATM   22  C15 UNL     1      20.921   1.469  48.656  1.00  0.00     0.002 A 
HETATM   23  C16 UNL     1      20.633   2.781  48.951  1.00  0.00     0.019 A 
HETATM   24  C17 UNL     1      20.900   3.478  50.105  1.00  0.00     0.011 A 
HETATM   25 BR1  UNL     1      20.428   5.305  50.347  1.00  0.00    -0.051 Br
HETATM   26  C18 UNL     1      21.548   2.736  51.094  1.00  0.00     0.030 A 
ENDBRANCH  19  20
ENDBRANCH   6  19
TORSDOF 10
ENDMDL
