MODEL 1
REMARK VINA RESULT:      -8.9      0.000      0.000
REMARK  6 active torsions:
REMARK  status: ('A' for Active; 'I' for Inactive)
REMARK    1  A    between atoms: C6_6  and  N1_7 
REMARK       I    between atoms: N1_7  and  C7_8 
REMARK    2  A    between atoms: C7_8  and  C8_10 
REMARK    3  A    between atoms: C15_17  and  N2_18 
REMARK    4  A    between atoms: N2_18  and  C16_19 
REMARK    5  A    between atoms: C18_22  and  C19_23 
REMARK    6  A    between atoms: C19_23  and  C20_24 
ROOT
HETATM    1  C1  UNL     1      17.795  -1.836  53.433  1.00  0.00     0.014 C 
HETATM    2  C2  UNL     1      19.012  -1.414  53.485  1.00  0.00     0.005 C 
HETATM    3  C3  UNL     1      20.360  -0.895  53.481  1.00  0.00    -0.013 A 
HETATM    4  C4  UNL     1      21.178  -1.375  54.475  1.00  0.00     0.015 A 
HETATM    5  C5  UNL     1      22.442  -0.840  54.542  1.00  0.00     0.030 A 
HETATM    6  C6  UNL     1      22.795   0.119  53.628  1.00  0.00     0.037 A 
HETATM    7  C14 UNL     1      21.936   0.556  52.659  1.00  0.00     0.059 A 
HETATM    8  C15 UNL     1      20.629   0.051  52.532  1.00  0.00     0.045 A 
ENDROOT
BRANCH   8   9
HETATM    9  N2  UNL     1      19.854   0.533  51.460  1.00  0.00    -0.339 N 
HETATM   10  H13 UNL     1      19.987   0.068  50.502  1.00  0.00     0.167 HD
BRANCH   9  11
HETATM   11  C16 UNL     1      18.918   1.584  51.407  1.00  0.00     0.148 A 
HETATM   12  N3  UNL     1      17.696   1.185  51.332  1.00  0.00    -0.239 NA
HETATM   13  C17 UNL     1      16.544   1.966  51.265  1.00  0.00     0.144 A 
HETATM   14  C18 UNL     1      16.557   3.280  51.272  1.00  0.00     0.027 A 
HETATM   15  N5  UNL     1      17.677   4.135  51.385  1.00  0.00    -0.363 N 
HETATM   16  P1  UNL     1      19.299   3.368  51.407  1.00  0.00     0.044 P 
HETATM   17  H21 UNL     1      17.791   5.129  51.468  1.00  0.00     0.164 HD
HETATM   18  H22 UNL     1      20.015   3.782  52.585  1.00  0.00     0.088 HD
BRANCH  14  19
HETATM   19  C19 UNL     1      15.254   3.987  51.195  1.00  0.00     0.072 C 
BRANCH  19  20
HETATM   20  C20 UNL     1      14.269   3.489  52.186  1.00  0.00     0.056 A 
HETATM   21  C21 UNL     1      12.868   3.901  51.990  1.00  0.00     0.003 A 
HETATM   22  C22 UNL     1      12.508   4.632  53.066  1.00  0.00     0.112 A 
HETATM   23  N4  UNL     1      13.603   4.731  53.978  1.00  0.00    -0.277 NA
HETATM   24  C23 UNL     1      14.623   4.089  53.506  1.00  0.00     0.098 A 
ENDBRANCH  19  20
ENDBRANCH  14  19
ENDBRANCH   9  11
ENDBRANCH   8   9
BRANCH   6  25
HETATM   25  N1  UNL     1      24.115   0.611  53.797  1.00  0.00    -0.323 N 
HETATM   26  C7  UNL     1      25.338   0.017  53.452  1.00  0.00     0.256 C 
HETATM   27  O1  UNL     1      25.371  -1.106  52.914  1.00  0.00    -0.267 OA
HETATM   28  H6  UNL     1      24.297   1.551  54.240  1.00  0.00     0.169 HD
BRANCH  26  29
HETATM   29  C8  UNL     1      26.636   0.628  53.678  1.00  0.00     0.032 A 
HETATM   30  C9  UNL     1      27.043   1.860  53.212  1.00  0.00     0.017 A 
HETATM   31  C10 UNL     1      28.264   2.442  53.423  1.00  0.00     0.001 A 
HETATM   32  C11 UNL     1      29.164   1.726  54.169  1.00  0.00     0.000 A 
HETATM   33  C12 UNL     1      28.869   0.486  54.686  1.00  0.00     0.001 A 
HETATM   34  C13 UNL     1      27.616  -0.004  54.413  1.00  0.00     0.017 A 
ENDBRANCH  26  29
ENDBRANCH   6  25
TORSDOF 6
ENDMDL
MODEL 2
REMARK VINA RESULT:      -8.8      7.393     11.236
REMARK  6 active torsions:
REMARK  status: ('A' for Active; 'I' for Inactive)
REMARK    1  A    between atoms: C6_6  and  N1_7 
REMARK       I    between atoms: N1_7  and  C7_8 
REMARK    2  A    between atoms: C7_8  and  C8_10 
REMARK    3  A    between atoms: C15_17  and  N2_18 
REMARK    4  A    between atoms: N2_18  and  C16_19 
REMARK    5  A    between atoms: C18_22  and  C19_23 
REMARK    6  A    between atoms: C19_23  and  C20_24 
ROOT
HETATM    1  C1  UNL     1      25.382   9.015  50.093  1.00  0.00     0.014 C 
HETATM    2  C2  UNL     1      26.420   8.440  49.587  1.00  0.00     0.005 C 
HETATM    3  C3  UNL     1      27.538   7.729  49.013  1.00  0.00    -0.013 A 
HETATM    4  C4  UNL     1      28.688   8.465  48.865  1.00  0.00     0.015 A 
HETATM    5  C5  UNL     1      29.744   7.837  48.250  1.00  0.00     0.030 A 
HETATM    6  C6  UNL     1      29.582   6.540  47.834  1.00  0.00     0.037 A 
HETATM    7  C14 UNL     1      28.411   5.858  48.012  1.00  0.00     0.059 A 
HETATM    8  C15 UNL     1      27.290   6.440  48.634  1.00  0.00     0.045 A 
ENDROOT
BRANCH   8   9
HETATM    9  N2  UNL     1      26.158   5.623  48.815  1.00  0.00    -0.339 N 
HETATM   10  H13 UNL     1      25.345   5.740  48.125  1.00  0.00     0.167 HD
BRANCH   9  11
HETATM   11  C16 UNL     1      25.874   4.659  49.802  1.00  0.00     0.148 A 
HETATM   12  N3  UNL     1      26.773   3.744  49.907  1.00  0.00    -0.239 NA
HETATM   13  C17 UNL     1      26.790   2.658  50.779  1.00  0.00     0.144 A 
HETATM   14  C18 UNL     1      25.841   2.416  51.655  1.00  0.00     0.027 A 
HETATM   15  N5  UNL     1      24.685   3.186  51.915  1.00  0.00    -0.363 N 
HETATM   16  P1  UNL     1      24.388   4.607  50.861  1.00  0.00     0.044 P 
HETATM   17  H21 UNL     1      23.946   3.130  52.593  1.00  0.00     0.164 HD
HETATM   18  H22 UNL     1      24.242   5.789  51.670  1.00  0.00     0.088 HD
BRANCH  14  19
HETATM   19  C19 UNL     1      25.987   1.220  52.523  1.00  0.00     0.072 C 
BRANCH  19  20
HETATM   20  C20 UNL     1      26.736   1.503  53.771  1.00  0.00     0.056 A 
HETATM   21  C21 UNL     1      28.206   1.522  53.669  1.00  0.00     0.003 A 
HETATM   22  C22 UNL     1      28.679   0.531  54.456  1.00  0.00     0.112 A 
HETATM   23  N4  UNL     1      27.594  -0.154  55.084  1.00  0.00    -0.277 NA
HETATM   24  C23 UNL     1      26.472   0.376  54.714  1.00  0.00     0.098 A 
ENDBRANCH  19  20
ENDBRANCH  14  19
ENDBRANCH   9  11
ENDBRANCH   8   9
BRANCH   6  25
HETATM   25  N1  UNL     1      30.728   5.995  47.201  1.00  0.00    -0.323 N 
HETATM   26  C7  UNL     1      31.735   5.176  47.735  1.00  0.00     0.256 C 
HETATM   27  O1  UNL     1      31.704   4.825  48.929  1.00  0.00    -0.267 OA
HETATM   28  H6  UNL     1      30.934   6.182  46.184  1.00  0.00     0.169 HD
BRANCH  26  29
HETATM   29  C8  UNL     1      32.869   4.677  46.976  1.00  0.00     0.032 A 
HETATM   30  C9  UNL     1      33.199   5.032  45.686  1.00  0.00     0.017 A 
HETATM   31  C10 UNL     1      34.267   4.566  44.967  1.00  0.00     0.001 A 
HETATM   32  C11 UNL     1      35.082   3.660  45.595  1.00  0.00     0.000 A 
HETATM   33  C12 UNL     1      34.851   3.233  46.882  1.00  0.00     0.001 A 
HETATM   34  C13 UNL     1      33.752   3.764  47.511  1.00  0.00     0.017 A 
ENDBRANCH  26  29
ENDBRANCH   6  25
TORSDOF 6
ENDMDL
MODEL 3
REMARK VINA RESULT:      -8.6      7.057     11.494
REMARK  6 active torsions:
REMARK  status: ('A' for Active; 'I' for Inactive)
REMARK    1  A    between atoms: C6_6  and  N1_7 
REMARK       I    between atoms: N1_7  and  C7_8 
REMARK    2  A    between atoms: C7_8  and  C8_10 
REMARK    3  A    between atoms: C15_17  and  N2_18 
REMARK    4  A    between atoms: N2_18  and  C16_19 
REMARK    5  A    between atoms: C18_22  and  C19_23 
REMARK    6  A    between atoms: C19_23  and  C20_24 
ROOT
HETATM    1  C1  UNL     1      22.037   6.694  47.328  1.00  0.00     0.014 C 
HETATM    2  C2  UNL     1      22.873   5.905  47.912  1.00  0.00     0.005 C 
HETATM    3  C3  UNL     1      23.864   5.080  48.562  1.00  0.00    -0.013 A 
HETATM    4  C4  UNL     1      23.437   3.827  48.928  1.00  0.00     0.015 A 
HETATM    5  C5  UNL     1      24.335   3.049  49.618  1.00  0.00     0.030 A 
HETATM    6  C6  UNL     1      25.576   3.566  49.887  1.00  0.00     0.037 A 
HETATM    7  C14 UNL     1      25.945   4.822  49.494  1.00  0.00     0.059 A 
HETATM    8  C15 UNL     1      25.076   5.672  48.784  1.00  0.00     0.045 A 
ENDROOT
BRANCH   8   9
HETATM    9  N2  UNL     1      25.585   6.921  48.380  1.00  0.00    -0.339 N 
HETATM   10  H13 UNL     1      25.035   7.464  47.636  1.00  0.00     0.167 HD
BRANCH   9  11
HETATM   11  C16 UNL     1      26.754   7.602  48.769  1.00  0.00     0.148 A 
HETATM   12  N3  UNL     1      27.805   7.238  48.121  1.00  0.00    -0.239 NA
HETATM   13  C17 UNL     1      29.107   7.714  48.265  1.00  0.00     0.144 A 
HETATM   14  C18 UNL     1      29.446   8.647  49.126  1.00  0.00     0.027 A 
HETATM   15  N5  UNL     1      28.604   9.358  50.011  1.00  0.00    -0.363 N 
HETATM   16  P1  UNL     1      26.878   8.871  50.075  1.00  0.00     0.044 P 
HETATM   17  H21 UNL     1      28.745  10.121  50.648  1.00  0.00     0.164 HD
HETATM   18  H22 UNL     1      26.042  10.015  49.818  1.00  0.00     0.088 HD
BRANCH  14  19
HETATM   19  C19 UNL     1      30.871   9.060  49.175  1.00  0.00     0.072 C 
BRANCH  19  20
HETATM   20  C20 UNL     1      31.729   8.278  48.252  1.00  0.00     0.056 A 
HETATM   21  C21 UNL     1      32.732   7.394  48.871  1.00  0.00     0.003 A 
HETATM   22  C22 UNL     1      33.950   7.832  48.486  1.00  0.00     0.112 A 
HETATM   23  N4  UNL     1      33.812   8.972  47.636  1.00  0.00    -0.277 NA
HETATM   24  C23 UNL     1      32.558   9.252  47.481  1.00  0.00     0.098 A 
ENDBRANCH  19  20
ENDBRANCH  14  19
ENDBRANCH   9  11
ENDBRANCH   8   9
BRANCH   6  25
HETATM   25  N1  UNL     1      26.417   2.685  50.614  1.00  0.00    -0.323 N 
HETATM   26  C7  UNL     1      26.303   2.234  51.938  1.00  0.00     0.256 C 
HETATM   27  O1  UNL     1      25.361   2.609  52.659  1.00  0.00    -0.267 OA
HETATM   28  H6  UNL     1      27.277   2.260  50.174  1.00  0.00     0.169 HD
BRANCH  26  29
HETATM   29  C8  UNL     1      27.238   1.322  52.574  1.00  0.00     0.032 A 
HETATM   30  C9  UNL     1      28.359   1.682  53.292  1.00  0.00     0.017 A 
HETATM   31  C10 UNL     1      29.243   0.827  53.894  1.00  0.00     0.001 A 
HETATM   32  C11 UNL     1      28.983  -0.513  53.768  1.00  0.00     0.000 A 
HETATM   33  C12 UNL     1      27.895  -0.989  53.074  1.00  0.00     0.001 A 
HETATM   34  C13 UNL     1      27.073  -0.045  52.509  1.00  0.00     0.017 A 
ENDBRANCH  26  29
ENDBRANCH   6  25
TORSDOF 6
ENDMDL
MODEL 4
REMARK VINA RESULT:      -8.5      3.268      3.929
REMARK  6 active torsions:
REMARK  status: ('A' for Active; 'I' for Inactive)
REMARK    1  A    between atoms: C6_6  and  N1_7 
REMARK       I    between atoms: N1_7  and  C7_8 
REMARK    2  A    between atoms: C7_8  and  C8_10 
REMARK    3  A    between atoms: C15_17  and  N2_18 
REMARK    4  A    between atoms: N2_18  and  C16_19 
REMARK    5  A    between atoms: C18_22  and  C19_23 
REMARK    6  A    between atoms: C19_23  and  C20_24 
ROOT
HETATM    1  C1  UNL     1      20.672  -1.186  54.108  1.00  0.00     0.014 C 
HETATM    2  C2  UNL     1      21.500  -0.475  53.421  1.00  0.00     0.005 C 
HETATM    3  C3  UNL     1      22.372   0.327  52.595  1.00  0.00    -0.013 A 
HETATM    4  C4  UNL     1      23.610   0.587  53.127  1.00  0.00     0.015 A 
HETATM    5  C5  UNL     1      24.432   1.413  52.398  1.00  0.00     0.030 A 
HETATM    6  C6  UNL     1      23.967   1.912  51.208  1.00  0.00     0.037 A 
HETATM    7  C14 UNL     1      22.722   1.615  50.728  1.00  0.00     0.059 A 
HETATM    8  C15 UNL     1      21.830   0.776  51.423  1.00  0.00     0.045 A 
ENDROOT
BRANCH   8   9
HETATM    9  N2  UNL     1      20.598   0.494  50.804  1.00  0.00    -0.339 N 
HETATM   10  H13 UNL     1      20.580  -0.281  50.062  1.00  0.00     0.167 HD
BRANCH   9  11
HETATM   11  C16 UNL     1      19.334   1.093  50.967  1.00  0.00     0.148 A 
HETATM   12  N3  UNL     1      19.388   2.321  51.349  1.00  0.00    -0.239 NA
HETATM   13  C17 UNL     1      18.325   3.187  51.598  1.00  0.00     0.144 A 
HETATM   14  C18 UNL     1      17.064   2.844  51.466  1.00  0.00     0.027 A 
HETATM   15  N5  UNL     1      16.544   1.605  51.027  1.00  0.00    -0.363 N 
HETATM   16  P1  UNL     1      17.717   0.284  50.716  1.00  0.00     0.044 P 
HETATM   17  H21 UNL     1      15.620   1.266  50.829  1.00  0.00     0.164 HD
HETATM   18  H22 UNL     1      17.546  -0.210  49.373  1.00  0.00     0.088 HD
BRANCH  14  19
HETATM   19  C19 UNL     1      16.032   3.868  51.766  1.00  0.00     0.072 C 
BRANCH  19  20
HETATM   20  C20 UNL     1      14.954   3.358  52.648  1.00  0.00     0.056 A 
HETATM   21  C21 UNL     1      13.598   3.309  52.072  1.00  0.00     0.003 A 
HETATM   22  C22 UNL     1      12.819   4.139  52.799  1.00  0.00     0.112 A 
HETATM   23  N4  UNL     1      13.589   4.745  53.838  1.00  0.00    -0.277 NA
HETATM   24  C23 UNL     1      14.811   4.321  53.780  1.00  0.00     0.098 A 
ENDBRANCH  19  20
ENDBRANCH  14  19
ENDBRANCH   9  11
ENDBRANCH   8   9
BRANCH   6  25
HETATM   25  N1  UNL     1      24.889   2.762  50.545  1.00  0.00    -0.323 N 
HETATM   26  C7  UNL     1      24.856   4.155  50.379  1.00  0.00     0.256 C 
HETATM   27  O1  UNL     1      23.919   4.830  50.845  1.00  0.00    -0.267 OA
HETATM   28  H6  UNL     1      25.753   2.376  50.080  1.00  0.00     0.169 HD
BRANCH  26  29
HETATM   29  C8  UNL     1      25.871   4.918  49.674  1.00  0.00     0.032 A 
HETATM   30  C9  UNL     1      25.843   6.276  49.437  1.00  0.00     0.017 A 
HETATM   31  C10 UNL     1      26.797   7.001  48.774  1.00  0.00     0.001 A 
HETATM   32  C11 UNL     1      27.881   6.305  48.304  1.00  0.00     0.000 A 
HETATM   33  C12 UNL     1      28.016   4.947  48.482  1.00  0.00     0.001 A 
HETATM   34  C13 UNL     1      27.001   4.318  49.160  1.00  0.00     0.017 A 
ENDBRANCH  26  29
ENDBRANCH   6  25
TORSDOF 6
ENDMDL
MODEL 5
REMARK VINA RESULT:      -8.4      4.295      9.018
REMARK  6 active torsions:
REMARK  status: ('A' for Active; 'I' for Inactive)
REMARK    1  A    between atoms: C6_6  and  N1_7 
REMARK       I    between atoms: N1_7  and  C7_8 
REMARK    2  A    between atoms: C7_8  and  C8_10 
REMARK    3  A    between atoms: C15_17  and  N2_18 
REMARK    4  A    between atoms: N2_18  and  C16_19 
REMARK    5  A    between atoms: C18_22  and  C19_23 
REMARK    6  A    between atoms: C19_23  and  C20_24 
ROOT
HETATM    1  C1  UNL     1      28.366   0.230  54.808  1.00  0.00     0.014 C 
HETATM    2  C2  UNL     1      27.119   0.043  54.541  1.00  0.00     0.005 C 
HETATM    3  C3  UNL     1      25.733  -0.129  54.173  1.00  0.00    -0.013 A 
HETATM    4  C4  UNL     1      24.963  -0.809  55.083  1.00  0.00     0.015 A 
HETATM    5  C5  UNL     1      23.660  -1.055  54.724  1.00  0.00     0.030 A 
HETATM    6  C6  UNL     1      23.224  -0.611  53.502  1.00  0.00     0.037 A 
HETATM    7  C14 UNL     1      24.039   0.065  52.637  1.00  0.00     0.059 A 
HETATM    8  C15 UNL     1      25.383   0.351  52.941  1.00  0.00     0.045 A 
ENDROOT
BRANCH   8   9
HETATM    9  N2  UNL     1      26.110   1.104  52.000  1.00  0.00    -0.339 N 
HETATM   10  H13 UNL     1      27.043   0.701  51.656  1.00  0.00     0.167 HD
BRANCH   9  11
HETATM   11  C16 UNL     1      25.838   2.361  51.427  1.00  0.00     0.148 A 
HETATM   12  N3  UNL     1      26.676   2.705  50.511  1.00  0.00    -0.239 NA
HETATM   13  C17 UNL     1      26.686   3.876  49.758  1.00  0.00     0.144 A 
HETATM   14  C18 UNL     1      25.793   4.832  49.891  1.00  0.00     0.027 A 
HETATM   15  N5  UNL     1      24.671   4.856  50.749  1.00  0.00    -0.363 N 
HETATM   16  P1  UNL     1      24.476   3.485  51.889  1.00  0.00     0.044 P 
HETATM   17  H21 UNL     1      23.904   5.491  50.878  1.00  0.00     0.164 HD
HETATM   18  H22 UNL     1      23.179   2.886  51.711  1.00  0.00     0.088 HD
BRANCH  14  19
HETATM   19  C19 UNL     1      25.925   6.029  49.022  1.00  0.00     0.072 C 
BRANCH  19  20
HETATM   20  C20 UNL     1      25.355   7.252  49.636  1.00  0.00     0.056 A 
HETATM   21  C21 UNL     1      24.581   8.138  48.749  1.00  0.00     0.003 A 
HETATM   22  C22 UNL     1      25.224   9.325  48.703  1.00  0.00     0.112 A 
HETATM   23  N4  UNL     1      26.395   9.278  49.519  1.00  0.00    -0.277 NA
HETATM   24  C23 UNL     1      26.499   8.109  50.066  1.00  0.00     0.098 A 
ENDBRANCH  19  20
ENDBRANCH  14  19
ENDBRANCH   9  11
ENDBRANCH   8   9
BRANCH   6  25
HETATM   25  N1  UNL     1      21.869  -0.930  53.228  1.00  0.00    -0.323 N 
HETATM   26  C7  UNL     1      20.733  -0.108  53.278  1.00  0.00     0.256 C 
HETATM   27  O1  UNL     1      20.827   1.090  53.602  1.00  0.00    -0.267 OA
HETATM   28  H6  UNL     1      21.582  -1.903  52.938  1.00  0.00     0.169 HD
BRANCH  26  29
HETATM   29  C8  UNL     1      19.386  -0.557  52.971  1.00  0.00     0.032 A 
HETATM   30  C9  UNL     1      18.712  -1.582  53.599  1.00  0.00     0.017 A 
HETATM   31  C10 UNL     1      17.442  -2.009  53.315  1.00  0.00     0.001 A 
HETATM   32  C11 UNL     1      16.783  -1.349  52.309  1.00  0.00     0.000 A 
HETATM   33  C12 UNL     1      17.357  -0.311  51.613  1.00  0.00     0.001 A 
HETATM   34  C13 UNL     1      18.634   0.036  51.979  1.00  0.00     0.017 A 
ENDBRANCH  26  29
ENDBRANCH   6  25
TORSDOF 6
ENDMDL
MODEL 6
REMARK VINA RESULT:      -8.3      3.715      6.482
REMARK  6 active torsions:
REMARK  status: ('A' for Active; 'I' for Inactive)
REMARK    1  A    between atoms: C6_6  and  N1_7 
REMARK       I    between atoms: N1_7  and  C7_8 
REMARK    2  A    between atoms: C7_8  and  C8_10 
REMARK    3  A    between atoms: C15_17  and  N2_18 
REMARK    4  A    between atoms: N2_18  and  C16_19 
REMARK    5  A    between atoms: C18_22  and  C19_23 
REMARK    6  A    between atoms: C19_23  and  C20_24 
ROOT
HETATM    1  C1  UNL     1      22.728   7.069  46.873  1.00  0.00     0.014 C 
HETATM    2  C2  UNL     1      23.476   6.382  47.667  1.00  0.00     0.005 C 
HETATM    3  C3  UNL     1      24.253   5.566  48.571  1.00  0.00    -0.013 A 
HETATM    4  C4  UNL     1      25.566   5.940  48.720  1.00  0.00     0.015 A 
HETATM    5  C5  UNL     1      26.348   5.135  49.513  1.00  0.00     0.030 A 
HETATM    6  C6  UNL     1      25.774   4.033  50.093  1.00  0.00     0.037 A 
HETATM    7  C14 UNL     1      24.458   3.714  49.909  1.00  0.00     0.059 A 
HETATM    8  C15 UNL     1      23.600   4.493  49.111  1.00  0.00     0.045 A 
ENDROOT
BRANCH   8   9
HETATM    9  N2  UNL     1      22.250   4.100  49.042  1.00  0.00    -0.339 N 
HETATM   10  H13 UNL     1      21.666   4.470  48.221  1.00  0.00     0.167 HD
BRANCH   9  11
HETATM   11  C16 UNL     1      21.484   3.300  49.911  1.00  0.00     0.148 A 
HETATM   12  N3  UNL     1      21.841   2.062  49.925  1.00  0.00    -0.239 NA
HETATM   13  C17 UNL     1      21.290   1.023  50.671  1.00  0.00     0.144 A 
HETATM   14  C18 UNL     1      20.284   1.180  51.502  1.00  0.00     0.027 A 
HETATM   15  N5  UNL     1      19.610   2.377  51.831  1.00  0.00    -0.363 N 
HETATM   16  P1  UNL     1      20.083   3.860  50.938  1.00  0.00     0.044 P 
HETATM   17  H21 UNL     1      18.891   2.616  52.489  1.00  0.00     0.164 HD
HETATM   18  H22 UNL     1      20.457   4.890  51.872  1.00  0.00     0.088 HD
BRANCH  14  19
HETATM   19  C19 UNL     1      19.797  -0.017  52.234  1.00  0.00     0.072 C 
BRANCH  19  20
HETATM   20  C20 UNL     1      20.213  -0.032  53.656  1.00  0.00     0.056 A 
HETATM   21  C21 UNL     1      21.605   0.360  53.942  1.00  0.00     0.003 A 
HETATM   22  C22 UNL     1      22.221  -0.709  54.493  1.00  0.00     0.112 A 
HETATM   23  N4  UNL     1      21.306  -1.802  54.592  1.00  0.00    -0.277 NA
HETATM   24  C23 UNL     1      20.152  -1.448  54.124  1.00  0.00     0.098 A 
ENDBRANCH  19  20
ENDBRANCH  14  19
ENDBRANCH   9  11
ENDBRANCH   8   9
BRANCH   6  25
HETATM   25  N1  UNL     1      26.673   3.267  50.879  1.00  0.00    -0.323 N 
HETATM   26  C7  UNL     1      26.420   2.492  52.021  1.00  0.00     0.256 C 
HETATM   27  O1  UNL     1      25.270   2.404  52.489  1.00  0.00    -0.267 OA
HETATM   28  H6  UNL     1      27.700   3.217  50.644  1.00  0.00     0.169 HD
BRANCH  26  29
HETATM   29  C8  UNL     1      27.436   1.746  52.743  1.00  0.00     0.032 A 
HETATM   30  C9  UNL     1      28.413   2.285  53.554  1.00  0.00     0.017 A 
HETATM   31  C10 UNL     1      29.372   1.587  54.237  1.00  0.00     0.001 A 
HETATM   32  C11 UNL     1      29.354   0.223  54.099  1.00  0.00     0.000 A 
HETATM   33  C12 UNL     1      28.426  -0.424  53.317  1.00  0.00     0.001 A 
HETATM   34  C13 UNL     1      27.510   0.372  52.675  1.00  0.00     0.017 A 
ENDBRANCH  26  29
ENDBRANCH   6  25
TORSDOF 6
ENDMDL
MODEL 7
REMARK VINA RESULT:      -8.3      3.678      5.294
REMARK  6 active torsions:
REMARK  status: ('A' for Active; 'I' for Inactive)
REMARK    1  A    between atoms: C6_6  and  N1_7 
REMARK       I    between atoms: N1_7  and  C7_8 
REMARK    2  A    between atoms: C7_8  and  C8_10 
REMARK    3  A    between atoms: C15_17  and  N2_18 
REMARK    4  A    between atoms: N2_18  and  C16_19 
REMARK    5  A    between atoms: C18_22  and  C19_23 
REMARK    6  A    between atoms: C19_23  and  C20_24 
ROOT
HETATM    1  C1  UNL     1      18.239  -1.199  53.449  1.00  0.00     0.014 C 
HETATM    2  C2  UNL     1      19.515  -1.020  53.494  1.00  0.00     0.005 C 
HETATM    3  C3  UNL     1      20.939  -0.774  53.478  1.00  0.00    -0.013 A 
HETATM    4  C4  UNL     1      21.644  -1.347  54.507  1.00  0.00     0.015 A 
HETATM    5  C5  UNL     1      22.988  -1.065  54.562  1.00  0.00     0.030 A 
HETATM    6  C6  UNL     1      23.524  -0.247  53.601  1.00  0.00     0.037 A 
HETATM    7  C14 UNL     1      22.769   0.293  52.597  1.00  0.00     0.059 A 
HETATM    8  C15 UNL     1      21.388   0.046  52.481  1.00  0.00     0.045 A 
ENDROOT
BRANCH   8   9
HETATM    9  N2  UNL     1      20.725   0.608  51.374  1.00  0.00    -0.339 N 
HETATM   10  H13 UNL     1      19.818   0.136  51.047  1.00  0.00     0.167 HD
BRANCH   9  11
HETATM   11  C16 UNL     1      21.067   1.706  50.562  1.00  0.00     0.148 A 
HETATM   12  N3  UNL     1      20.969   2.842  51.159  1.00  0.00    -0.239 NA
HETATM   13  C17 UNL     1      21.233   4.107  50.639  1.00  0.00     0.144 A 
HETATM   14  C18 UNL     1      21.640   4.314  49.407  1.00  0.00     0.027 A 
HETATM   15  N5  UNL     1      21.922   3.350  48.414  1.00  0.00    -0.363 N 
HETATM   16  P1  UNL     1      21.584   1.634  48.813  1.00  0.00     0.044 P 
HETATM   17  H21 UNL     1      22.296   3.394  47.483  1.00  0.00     0.164 HD
HETATM   18  H22 UNL     1      22.773   0.846  48.618  1.00  0.00     0.088 HD
BRANCH  14  19
HETATM   19  C19 UNL     1      21.884   5.717  48.984  1.00  0.00     0.072 C 
BRANCH  19  20
HETATM   20  C20 UNL     1      23.256   6.183  49.297  1.00  0.00     0.056 A 
HETATM   21  C21 UNL     1      23.437   6.896  50.573  1.00  0.00     0.003 A 
HETATM   22  C22 UNL     1      23.848   8.149  50.282  1.00  0.00     0.112 A 
HETATM   23  N4  UNL     1      23.952   8.311  48.866  1.00  0.00    -0.277 NA
HETATM   24  C23 UNL     1      23.622   7.208  48.275  1.00  0.00     0.098 A 
ENDBRANCH  19  20
ENDBRANCH  14  19
ENDBRANCH   9  11
ENDBRANCH   8   9
BRANCH   6  25
HETATM   25  N1  UNL     1      24.914  -0.013  53.760  1.00  0.00    -0.323 N 
HETATM   26  C7  UNL     1      26.003  -0.710  53.215  1.00  0.00     0.256 C 
HETATM   27  O1  UNL     1      25.823  -1.694  52.473  1.00  0.00    -0.267 OA
HETATM   28  H6  UNL     1      25.272   0.779  54.358  1.00  0.00     0.169 HD
BRANCH  26  29
HETATM   29  C8  UNL     1      27.395  -0.369  53.454  1.00  0.00     0.032 A 
HETATM   30  C9  UNL     1      28.478  -1.197  53.250  1.00  0.00     0.017 A 
HETATM   31  C10 UNL     1      29.791  -0.881  53.473  1.00  0.00     0.001 A 
HETATM   32  C11 UNL     1      30.047   0.381  53.943  1.00  0.00     0.000 A 
HETATM   33  C12 UNL     1      29.046   1.293  54.184  1.00  0.00     0.001 A 
HETATM   34  C13 UNL     1      27.764   0.872  53.927  1.00  0.00     0.017 A 
ENDBRANCH  26  29
ENDBRANCH   6  25
TORSDOF 6
ENDMDL
MODEL 8
REMARK VINA RESULT:      -8.3      4.983      9.804
REMARK  6 active torsions:
REMARK  status: ('A' for Active; 'I' for Inactive)
REMARK    1  A    between atoms: C6_6  and  N1_7 
REMARK       I    between atoms: N1_7  and  C7_8 
REMARK    2  A    between atoms: C7_8  and  C8_10 
REMARK    3  A    between atoms: C15_17  and  N2_18 
REMARK    4  A    between atoms: N2_18  and  C16_19 
REMARK    5  A    between atoms: C18_22  and  C19_23 
REMARK    6  A    between atoms: C19_23  and  C20_24 
ROOT
HETATM    1  C1  UNL     1      27.732   2.218  53.472  1.00  0.00     0.014 C 
HETATM    2  C2  UNL     1      26.528   1.770  53.354  1.00  0.00     0.005 C 
HETATM    3  C3  UNL     1      25.158   1.341  53.196  1.00  0.00    -0.013 A 
HETATM    4  C4  UNL     1      24.911   0.031  53.527  1.00  0.00     0.015 A 
HETATM    5  C5  UNL     1      23.634  -0.426  53.311  1.00  0.00     0.030 A 
HETATM    6  C6  UNL     1      22.708   0.441  52.791  1.00  0.00     0.037 A 
HETATM    7  C14 UNL     1      23.014   1.737  52.482  1.00  0.00     0.059 A 
HETATM    8  C15 UNL     1      24.301   2.271  52.678  1.00  0.00     0.045 A 
ENDROOT
BRANCH   8   9
HETATM    9  N2  UNL     1      24.485   3.635  52.379  1.00  0.00    -0.339 N 
HETATM   10  H13 UNL     1      24.180   4.350  53.118  1.00  0.00     0.167 HD
BRANCH   9  11
HETATM   11  C16 UNL     1      24.989   4.258  51.221  1.00  0.00     0.148 A 
HETATM   12  N3  UNL     1      24.528   5.445  51.031  1.00  0.00    -0.239 NA
HETATM   13  C17 UNL     1      24.824   6.320  49.988  1.00  0.00     0.144 A 
HETATM   14  C18 UNL     1      25.659   6.032  49.014  1.00  0.00     0.027 A 
HETATM   15  N5  UNL     1      26.423   4.856  48.848  1.00  0.00    -0.363 N 
HETATM   16  P1  UNL     1      26.160   3.529  50.027  1.00  0.00     0.044 P 
HETATM   17  H21 UNL     1      27.127   4.567  48.193  1.00  0.00     0.164 HD
HETATM   18  H22 UNL     1      27.414   3.163  50.633  1.00  0.00     0.088 HD
BRANCH  14  19
HETATM   19  C19 UNL     1      25.881   7.060  47.966  1.00  0.00     0.072 C 
BRANCH  19  20
HETATM   20  C20 UNL     1      27.317   7.363  47.753  1.00  0.00     0.056 A 
HETATM   21  C21 UNL     1      28.012   8.070  48.843  1.00  0.00     0.003 A 
HETATM   22  C22 UNL     1      28.424   9.260  48.355  1.00  0.00     0.112 A 
HETATM   23  N4  UNL     1      28.038   9.386  46.986  1.00  0.00    -0.277 NA
HETATM   24  C23 UNL     1      27.405   8.321  46.611  1.00  0.00     0.098 A 
ENDBRANCH  19  20
ENDBRANCH  14  19
ENDBRANCH   9  11
ENDBRANCH   8   9
BRANCH   6  25
HETATM   25  N1  UNL     1      21.427  -0.138  52.597  1.00  0.00    -0.323 N 
HETATM   26  C7  UNL     1      20.317  -0.151  53.454  1.00  0.00     0.256 C 
HETATM   27  O1  UNL     1      20.367   0.398  54.570  1.00  0.00    -0.267 OA
HETATM   28  H6  UNL     1      21.188  -0.654  51.709  1.00  0.00     0.169 HD
BRANCH  26  29
HETATM   29  C8  UNL     1      19.048  -0.784  53.138  1.00  0.00     0.032 A 
HETATM   30  C9  UNL     1      18.572  -1.959  53.680  1.00  0.00     0.017 A 
HETATM   31  C10 UNL     1      17.377  -2.559  53.387  1.00  0.00     0.001 A 
HETATM   32  C11 UNL     1      16.582  -1.926  52.467  1.00  0.00     0.000 A 
HETATM   33  C12 UNL     1      16.953  -0.749  51.861  1.00  0.00     0.001 A 
HETATM   34  C13 UNL     1      18.172  -0.234  52.227  1.00  0.00     0.017 A 
ENDBRANCH  26  29
ENDBRANCH   6  25
TORSDOF 6
ENDMDL
MODEL 9
REMARK VINA RESULT:      -8.3      6.278      9.953
REMARK  6 active torsions:
REMARK  status: ('A' for Active; 'I' for Inactive)
REMARK    1  A    between atoms: C6_6  and  N1_7 
REMARK       I    between atoms: N1_7  and  C7_8 
REMARK    2  A    between atoms: C7_8  and  C8_10 
REMARK    3  A    between atoms: C15_17  and  N2_18 
REMARK    4  A    between atoms: N2_18  and  C16_19 
REMARK    5  A    between atoms: C18_22  and  C19_23 
REMARK    6  A    between atoms: C19_23  and  C20_24 
ROOT
HETATM    1  C1  UNL     1      22.068   5.305  45.552  1.00  0.00     0.014 C 
HETATM    2  C2  UNL     1      22.185   4.581  46.612  1.00  0.00     0.005 C 
HETATM    3  C3  UNL     1      22.337   3.835  47.839  1.00  0.00    -0.013 A 
HETATM    4  C4  UNL     1      22.058   2.494  47.750  1.00  0.00     0.015 A 
HETATM    5  C5  UNL     1      22.119   1.775  48.920  1.00  0.00     0.030 A 
HETATM    6  C6  UNL     1      22.449   2.434  50.076  1.00  0.00     0.037 A 
HETATM    7  C14 UNL     1      22.719   3.774  50.101  1.00  0.00     0.059 A 
HETATM    8  C15 UNL     1      22.676   4.570  48.941  1.00  0.00     0.045 A 
ENDROOT
BRANCH   8   9
HETATM    9  N2  UNL     1      23.030   5.926  49.077  1.00  0.00    -0.339 N 
HETATM   10  H13 UNL     1      22.248   6.655  48.985  1.00  0.00     0.167 HD
BRANCH   9  11
HETATM   11  C16 UNL     1      24.285   6.527  49.290  1.00  0.00     0.148 A 
HETATM   12  N3  UNL     1      24.214   7.762  49.647  1.00  0.00    -0.239 NA
HETATM   13  C17 UNL     1      25.264   8.632  49.932  1.00  0.00     0.144 A 
HETATM   14  C18 UNL     1      26.530   8.285  49.871  1.00  0.00     0.027 A 
HETATM   15  N5  UNL     1      27.067   7.014  49.563  1.00  0.00    -0.363 N 
HETATM   16  P1  UNL     1      25.913   5.729  49.078  1.00  0.00     0.044 P 
HETATM   17  H21 UNL     1      27.995   6.631  49.556  1.00  0.00     0.164 HD
HETATM   18  H22 UNL     1      26.082   4.579  49.929  1.00  0.00     0.088 HD
BRANCH  14  19
HETATM   19  C19 UNL     1      27.548   9.315  50.200  1.00  0.00     0.072 C 
BRANCH  19  20
HETATM   20  C20 UNL     1      28.519   9.537  49.102  1.00  0.00     0.056 A 
HETATM   21  C21 UNL     1      29.947   9.458  49.456  1.00  0.00     0.003 A 
HETATM   22  C22 UNL     1      30.490  10.672  49.219  1.00  0.00     0.112 A 
HETATM   23  N4  UNL     1      29.492  11.564  48.721  1.00  0.00    -0.277 NA
HETATM   24  C23 UNL     1      28.356  10.947  48.642  1.00  0.00     0.098 A 
ENDBRANCH  19  20
ENDBRANCH  14  19
ENDBRANCH   9  11
ENDBRANCH   8   9
BRANCH   6  25
HETATM   25  N1  UNL     1      22.470   1.600  51.224  1.00  0.00    -0.323 N 
HETATM   26  C7  UNL     1      23.563   1.154  51.981  1.00  0.00     0.256 C 
HETATM   27  O1  UNL     1      24.725   1.485  51.679  1.00  0.00    -0.267 OA
HETATM   28  H6  UNL     1      21.580   1.212  51.635  1.00  0.00     0.169 HD
BRANCH  26  29
HETATM   29  C8  UNL     1      23.453   0.295  53.147  1.00  0.00     0.032 A 
HETATM   30  C9  UNL     1      24.505  -0.273  53.836  1.00  0.00     0.017 A 
HETATM   31  C10 UNL     1      24.407  -1.082  54.936  1.00  0.00     0.001 A 
HETATM   32  C11 UNL     1      23.142  -1.349  55.392  1.00  0.00     0.000 A 
HETATM   33  C12 UNL     1      22.019  -0.837  54.785  1.00  0.00     0.001 A 
HETATM   34  C13 UNL     1      22.230  -0.038  53.688  1.00  0.00     0.017 A 
ENDBRANCH  26  29
ENDBRANCH   6  25
TORSDOF 6
ENDMDL
