MODEL 1
REMARK VINA RESULT:      -8.6      0.000      0.000
REMARK  4 active torsions:
REMARK  status: ('A' for Active; 'I' for Inactive)
REMARK    1  A    between atoms: O1_2  and  C2_3 
REMARK    2  A    between atoms: C5_6  and  C6_7 
REMARK    3  A    between atoms: C6_7  and  N1_8 
REMARK    4  A    between atoms: N1_8  and  C7_9 
ROOT
HETATM    1  C7  UNL     1      24.613   1.944  52.630  1.00  0.00     0.044 A 
HETATM    2  C8  UNL     1      23.265   1.621  52.724  1.00  0.00     0.049 A 
HETATM    3  C9  UNL     1      23.032   0.341  53.116  1.00  0.00     0.122 A 
HETATM    4  N2  UNL     1      23.975  -0.559  53.394  1.00  0.00    -0.235 NA
HETATM    5  C10 UNL     1      25.274  -0.254  53.307  1.00  0.00     0.192 A 
HETATM    6  O2  UNL     1      26.192  -1.171  53.590  1.00  0.00    -0.240 OA
HETATM    7  C11 UNL     1      27.386  -0.770  53.586  1.00  0.00     0.066 C 
HETATM    8  C12 UNL     1      28.469  -0.385  53.578  1.00  0.00    -0.048 C 
HETATM    9  C13 UNL     1      29.694   0.075  53.565  1.00  0.00     0.067 C 
HETATM   10  C14 UNL     1      29.111   1.306  53.734  1.00  0.00     0.009 C 
HETATM   11  C15 UNL     1      28.058   2.056  53.254  1.00  0.00     0.002 C 
HETATM   12  C16 UNL     1      26.846   1.618  52.755  1.00  0.00     0.018 C 
HETATM   13  C17 UNL     1      25.612   1.031  52.914  1.00  0.00     0.044 A 
ENDROOT
BRANCH   1  14
HETATM   14  N1  UNL     1      24.896   3.298  52.201  1.00  0.00    -0.385 N 
HETATM   15  H8  UNL     1      25.542   3.922  52.772  1.00  0.00     0.160 HD
BRANCH  14  16
HETATM   16  C6  UNL     1      24.309   3.839  50.992  1.00  0.00     0.158 C 
BRANCH  16  17
HETATM   17  C5  UNL     1      25.392   4.411  50.153  1.00  0.00    -0.040 A 
HETATM   18  C4  UNL     1      25.296   5.763  49.851  1.00  0.00     0.011 A 
HETATM   19  C3  UNL     1      26.221   6.449  49.081  1.00  0.00     0.037 A 
HETATM   20  C2  UNL     1      27.315   5.733  48.582  1.00  0.00     0.068 A 
HETATM   21  C19 UNL     1      27.420   4.387  48.877  1.00  0.00     0.037 A 
HETATM   22  C18 UNL     1      26.476   3.717  49.654  1.00  0.00     0.011 A 
BRANCH  20  23
HETATM   23  O1  UNL     1      28.262   6.383  47.808  1.00  0.00    -0.356 OA
HETATM   24  C1  UNL     1      29.625   6.121  48.015  1.00  0.00     0.210 C 
ENDBRANCH  20  23
ENDBRANCH  16  17
ENDBRANCH  14  16
ENDBRANCH   1  14
TORSDOF 4
ENDMDL
MODEL 2
REMARK VINA RESULT:      -8.4      1.586      3.673
REMARK  4 active torsions:
REMARK  status: ('A' for Active; 'I' for Inactive)
REMARK    1  A    between atoms: O1_2  and  C2_3 
REMARK    2  A    between atoms: C5_6  and  C6_7 
REMARK    3  A    between atoms: C6_7  and  N1_8 
REMARK    4  A    between atoms: N1_8  and  C7_9 
ROOT
HETATM    1  C7  UNL     1      26.832   1.748  53.110  1.00  0.00     0.044 A 
HETATM    2  C8  UNL     1      28.193   1.726  53.392  1.00  0.00     0.049 A 
HETATM    3  C9  UNL     1      28.551   0.781  54.300  1.00  0.00     0.122 A 
HETATM    4  N2  UNL     1      27.713  -0.068  54.894  1.00  0.00    -0.235 NA
HETATM    5  C10 UNL     1      26.403  -0.052  54.627  1.00  0.00     0.192 A 
HETATM    6  O2  UNL     1      25.591  -0.910  55.235  1.00  0.00    -0.240 OA
HETATM    7  C11 UNL     1      24.392  -0.898  54.846  1.00  0.00     0.066 C 
HETATM    8  C12 UNL     1      23.304  -0.873  54.478  1.00  0.00    -0.048 C 
HETATM    9  C13 UNL     1      22.071  -0.829  54.043  1.00  0.00     0.067 C 
HETATM   10  C14 UNL     1      22.609  -0.248  52.922  1.00  0.00     0.009 C 
HETATM   11  C15 UNL     1      23.531   0.712  52.563  1.00  0.00     0.002 C 
HETATM   12  C16 UNL     1      24.668   1.110  53.240  1.00  0.00     0.018 C 
HETATM   13  C17 UNL     1      25.941   0.879  53.711  1.00  0.00     0.044 A 
ENDROOT
BRANCH   1  14
HETATM   14  N1  UNL     1      26.415   2.754  52.155  1.00  0.00    -0.385 N 
HETATM   15  H8  UNL     1      25.985   3.669  52.488  1.00  0.00     0.160 HD
BRANCH  14  16
HETATM   16  C6  UNL     1      26.569   2.544  50.730  1.00  0.00     0.158 C 
BRANCH  16  17
HETATM   17  C5  UNL     1      26.196   3.794  50.023  1.00  0.00    -0.040 A 
HETATM   18  C4  UNL     1      27.182   4.386  49.244  1.00  0.00     0.011 A 
HETATM   19  C3  UNL     1      26.998   5.554  48.521  1.00  0.00     0.037 A 
HETATM   20  C2  UNL     1      25.741   6.167  48.582  1.00  0.00     0.068 A 
HETATM   21  C19 UNL     1      24.753   5.587  49.354  1.00  0.00     0.037 A 
HETATM   22  C18 UNL     1      24.962   4.412  50.074  1.00  0.00     0.011 A 
BRANCH  20  23
HETATM   23  O1  UNL     1      25.517   7.337  47.874  1.00  0.00    -0.356 OA
HETATM   24  C1  UNL     1      26.591   7.981  47.243  1.00  0.00     0.210 C 
ENDBRANCH  20  23
ENDBRANCH  16  17
ENDBRANCH  14  16
ENDBRANCH   1  14
TORSDOF 4
ENDMDL
MODEL 3
REMARK VINA RESULT:      -8.4      3.253      5.961
REMARK  4 active torsions:
REMARK  status: ('A' for Active; 'I' for Inactive)
REMARK    1  A    between atoms: O1_2  and  C2_3 
REMARK    2  A    between atoms: C5_6  and  C6_7 
REMARK    3  A    between atoms: C6_7  and  N1_8 
REMARK    4  A    between atoms: N1_8  and  C7_9 
ROOT
HETATM    1  C7  UNL     1      23.090   2.653  51.431  1.00  0.00     0.044 A 
HETATM    2  C8  UNL     1      22.775   3.942  51.018  1.00  0.00     0.049 A 
HETATM    3  C9  UNL     1      21.556   4.371  51.435  1.00  0.00     0.122 A 
HETATM    4  N2  UNL     1      20.704   3.659  52.172  1.00  0.00    -0.235 NA
HETATM    5  C10 UNL     1      21.000   2.418  52.573  1.00  0.00     0.192 A 
HETATM    6  O2  UNL     1      20.131   1.731  53.306  1.00  0.00    -0.240 OA
HETATM    7  C11 UNL     1      20.534   0.615  53.730  1.00  0.00     0.066 C 
HETATM    8  C12 UNL     1      20.920  -0.399  54.108  1.00  0.00    -0.048 C 
HETATM    9  C13 UNL     1      21.380  -1.549  54.528  1.00  0.00     0.067 C 
HETATM   10  C14 UNL     1      22.620  -1.006  54.302  1.00  0.00     0.009 C 
HETATM   11  C15 UNL     1      23.297  -0.266  53.357  1.00  0.00     0.002 C 
HETATM   12  C16 UNL     1      22.793   0.670  52.473  1.00  0.00     0.018 C 
HETATM   13  C17 UNL     1      22.225   1.892  52.197  1.00  0.00     0.044 A 
ENDROOT
BRANCH   1  14
HETATM   14  N1  UNL     1      24.379   2.161  50.992  1.00  0.00    -0.385 N 
HETATM   15  H8  UNL     1      24.446   1.292  50.381  1.00  0.00     0.160 HD
BRANCH  14  16
HETATM   16  C6  UNL     1      25.607   2.831  51.370  1.00  0.00     0.158 C 
BRANCH  16  17
HETATM   17  C5  UNL     1      26.467   1.870  52.103  1.00  0.00    -0.040 A 
HETATM   18  C4  UNL     1      26.289   0.525  51.807  1.00  0.00     0.011 A 
HETATM   19  C3  UNL     1      27.010  -0.499  52.400  1.00  0.00     0.037 A 
HETATM   20  C2  UNL     1      27.974  -0.150  53.353  1.00  0.00     0.068 A 
HETATM   21  C19 UNL     1      28.160   1.185  53.656  1.00  0.00     0.037 A 
HETATM   22  C18 UNL     1      27.422   2.198  53.045  1.00  0.00     0.011 A 
BRANCH  20  23
HETATM   23  O1  UNL     1      28.716  -1.145  53.970  1.00  0.00    -0.356 OA
HETATM   24  C1  UNL     1      30.108  -1.179  53.796  1.00  0.00     0.210 C 
ENDBRANCH  20  23
ENDBRANCH  16  17
ENDBRANCH  14  16
ENDBRANCH   1  14
TORSDOF 4
ENDMDL
MODEL 4
REMARK VINA RESULT:      -8.4      2.088      4.137
REMARK  4 active torsions:
REMARK  status: ('A' for Active; 'I' for Inactive)
REMARK    1  A    between atoms: O1_2  and  C2_3 
REMARK    2  A    between atoms: C5_6  and  C6_7 
REMARK    3  A    between atoms: C6_7  and  N1_8 
REMARK    4  A    between atoms: N1_8  and  C7_9 
ROOT
HETATM    1  C7  UNL     1      26.825   1.766  53.136  1.00  0.00     0.044 A 
HETATM    2  C8  UNL     1      28.184   1.748  53.423  1.00  0.00     0.049 A 
HETATM    3  C9  UNL     1      28.543   0.796  54.324  1.00  0.00     0.122 A 
HETATM    4  N2  UNL     1      27.706  -0.061  54.907  1.00  0.00    -0.235 NA
HETATM    5  C10 UNL     1      26.397  -0.048  54.636  1.00  0.00     0.192 A 
HETATM    6  O2  UNL     1      25.586  -0.915  55.233  1.00  0.00    -0.240 OA
HETATM    7  C11 UNL     1      24.389  -0.905  54.839  1.00  0.00     0.066 C 
HETATM    8  C12 UNL     1      23.302  -0.881  54.467  1.00  0.00    -0.048 C 
HETATM    9  C13 UNL     1      22.071  -0.838  54.026  1.00  0.00     0.067 C 
HETATM   10  C14 UNL     1      22.611  -0.246  52.913  1.00  0.00     0.009 C 
HETATM   11  C15 UNL     1      23.530   0.722  52.567  1.00  0.00     0.002 C 
HETATM   12  C16 UNL     1      24.662   1.118  53.252  1.00  0.00     0.018 C 
HETATM   13  C17 UNL     1      25.934   0.888  53.726  1.00  0.00     0.044 A 
ENDROOT
BRANCH   1  14
HETATM   14  N1  UNL     1      26.407   2.779  52.188  1.00  0.00    -0.385 N 
HETATM   15  H8  UNL     1      25.918   3.663  52.522  1.00  0.00     0.160 HD
BRANCH  14  16
HETATM   16  C6  UNL     1      26.641   2.618  50.767  1.00  0.00     0.158 C 
BRANCH  16  17
HETATM   17  C5  UNL     1      25.760   3.558  50.031  1.00  0.00    -0.040 A 
HETATM   18  C4  UNL     1      24.441   3.161  49.849  1.00  0.00     0.011 A 
HETATM   19  C3  UNL     1      23.491   3.920  49.185  1.00  0.00     0.037 A 
HETATM   20  C2  UNL     1      23.890   5.159  48.670  1.00  0.00     0.068 A 
HETATM   21  C19 UNL     1      25.199   5.563  48.845  1.00  0.00     0.037 A 
HETATM   22  C18 UNL     1      26.138   4.782  49.517  1.00  0.00     0.011 A 
BRANCH  20  23
HETATM   23  O1  UNL     1      22.969   5.948  47.999  1.00  0.00    -0.356 OA
HETATM   24  C1  UNL     1      22.128   5.366  47.039  1.00  0.00     0.210 C 
ENDBRANCH  20  23
ENDBRANCH  16  17
ENDBRANCH  14  16
ENDBRANCH   1  14
TORSDOF 4
ENDMDL
MODEL 5
REMARK VINA RESULT:      -8.2      1.834      2.893
REMARK  4 active torsions:
REMARK  status: ('A' for Active; 'I' for Inactive)
REMARK    1  A    between atoms: O1_2  and  C2_3 
REMARK    2  A    between atoms: C5_6  and  C6_7 
REMARK    3  A    between atoms: C6_7  and  N1_8 
REMARK    4  A    between atoms: N1_8  and  C7_9 
ROOT
HETATM    1  C7  UNL     1      23.304  -0.052  53.186  1.00  0.00     0.044 A 
HETATM    2  C8  UNL     1      22.291  -0.690  53.890  1.00  0.00     0.049 A 
HETATM    3  C9  UNL     1      22.708  -1.278  55.042  1.00  0.00     0.122 A 
HETATM    4  N2  UNL     1      23.961  -1.271  55.496  1.00  0.00    -0.235 NA
HETATM    5  C10 UNL     1      24.940  -0.658  54.823  1.00  0.00     0.192 A 
HETATM    6  O2  UNL     1      26.181  -0.668  55.299  1.00  0.00    -0.240 OA
HETATM    7  C11 UNL     1      27.018   0.024  54.659  1.00  0.00     0.066 C 
HETATM    8  C12 UNL     1      27.767   0.659  54.063  1.00  0.00    -0.048 C 
HETATM    9  C13 UNL     1      28.602   1.391  53.371  1.00  0.00     0.067 C 
HETATM   10  C14 UNL     1      27.479   2.034  52.912  1.00  0.00     0.009 C 
HETATM   11  C15 UNL     1      26.214   1.754  52.444  1.00  0.00     0.002 C 
HETATM   12  C16 UNL     1      25.398   0.682  52.755  1.00  0.00     0.018 C 
HETATM   13  C17 UNL     1      24.613  -0.028  53.634  1.00  0.00     0.044 A 
ENDROOT
BRANCH   1  14
HETATM   14  N1  UNL     1      22.895   0.574  51.945  1.00  0.00    -0.385 N 
HETATM   15  H8  UNL     1      23.235   0.194  51.011  1.00  0.00     0.160 HD
BRANCH  14  16
HETATM   16  C6  UNL     1      22.018   1.727  51.940  1.00  0.00     0.158 C 
BRANCH  16  17
HETATM   17  C5  UNL     1      22.812   2.927  51.579  1.00  0.00    -0.040 A 
HETATM   18  C4  UNL     1      23.472   2.891  50.358  1.00  0.00     0.011 A 
HETATM   19  C3  UNL     1      24.254   3.926  49.871  1.00  0.00     0.037 A 
HETATM   20  C2  UNL     1      24.382   5.074  50.662  1.00  0.00     0.068 A 
HETATM   21  C19 UNL     1      23.730   5.120  51.880  1.00  0.00     0.037 A 
HETATM   22  C18 UNL     1      22.948   4.065  52.348  1.00  0.00     0.011 A 
BRANCH  20  23
HETATM   23  O1  UNL     1      25.156   6.132  50.212  1.00  0.00    -0.356 OA
HETATM   24  C1  UNL     1      26.106   5.914  49.203  1.00  0.00     0.210 C 
ENDBRANCH  20  23
ENDBRANCH  16  17
ENDBRANCH  14  16
ENDBRANCH   1  14
TORSDOF 4
ENDMDL
MODEL 6
REMARK VINA RESULT:      -7.8      1.474      2.190
REMARK  4 active torsions:
REMARK  status: ('A' for Active; 'I' for Inactive)
REMARK    1  A    between atoms: O1_2  and  C2_3 
REMARK    2  A    between atoms: C5_6  and  C6_7 
REMARK    3  A    between atoms: C6_7  and  N1_8 
REMARK    4  A    between atoms: N1_8  and  C7_9 
ROOT
HETATM    1  C7  UNL     1      23.156   2.549  51.437  1.00  0.00     0.044 A 
HETATM    2  C8  UNL     1      21.844   2.929  51.695  1.00  0.00     0.049 A 
HETATM    3  C9  UNL     1      21.201   2.119  52.576  1.00  0.00     0.122 A 
HETATM    4  N2  UNL     1      21.734   1.048  53.162  1.00  0.00    -0.235 NA
HETATM    5  C10 UNL     1      22.995   0.677  52.918  1.00  0.00     0.192 A 
HETATM    6  O2  UNL     1      23.500  -0.396  53.517  1.00  0.00    -0.240 OA
HETATM    7  C11 UNL     1      24.725  -0.611  53.313  1.00  0.00     0.066 C 
HETATM    8  C12 UNL     1      25.842  -0.790  53.117  1.00  0.00    -0.048 C 
HETATM    9  C13 UNL     1      27.116  -0.974  52.881  1.00  0.00     0.067 C 
HETATM   10  C14 UNL     1      27.131   0.361  52.559  1.00  0.00     0.009 C 
HETATM   11  C15 UNL     1      26.398   1.289  51.852  1.00  0.00     0.002 C 
HETATM   12  C16 UNL     1      25.038   1.309  51.610  1.00  0.00     0.018 C 
HETATM   13  C17 UNL     1      23.734   1.443  52.032  1.00  0.00     0.044 A 
ENDROOT
BRANCH   1  14
HETATM   14  N1  UNL     1      23.867   3.385  50.491  1.00  0.00    -0.385 N 
HETATM   15  H8  UNL     1      24.201   2.986  49.562  1.00  0.00     0.160 HD
BRANCH  14  16
HETATM   16  C6  UNL     1      24.141   4.778  50.780  1.00  0.00     0.158 C 
BRANCH  16  17
HETATM   17  C5  UNL     1      25.319   5.205  49.985  1.00  0.00    -0.040 A 
HETATM   18  C4  UNL     1      26.226   4.213  49.636  1.00  0.00     0.011 A 
HETATM   19  C3  UNL     1      27.376   4.443  48.898  1.00  0.00     0.037 A 
HETATM   20  C2  UNL     1      27.632   5.754  48.481  1.00  0.00     0.068 A 
HETATM   21  C19 UNL     1      26.737   6.749  48.824  1.00  0.00     0.037 A 
HETATM   22  C18 UNL     1      25.586   6.494  49.568  1.00  0.00     0.011 A 
BRANCH  20  23
HETATM   23  O1  UNL     1      28.772   6.026  47.741  1.00  0.00    -0.356 OA
HETATM   24  C1  UNL     1      30.035   5.842  48.322  1.00  0.00     0.210 C 
ENDBRANCH  20  23
ENDBRANCH  16  17
ENDBRANCH  14  16
ENDBRANCH   1  14
TORSDOF 4
ENDMDL
MODEL 7
REMARK VINA RESULT:      -7.7      1.972      6.887
REMARK  4 active torsions:
REMARK  status: ('A' for Active; 'I' for Inactive)
REMARK    1  A    between atoms: O1_2  and  C2_3 
REMARK    2  A    between atoms: C5_6  and  C6_7 
REMARK    3  A    between atoms: C6_7  and  N1_8 
REMARK    4  A    between atoms: N1_8  and  C7_9 
ROOT
HETATM    1  C7  UNL     1      24.052   4.082  49.373  1.00  0.00     0.044 A 
HETATM    2  C8  UNL     1      22.671   4.136  49.228  1.00  0.00     0.049 A 
HETATM    3  C9  UNL     1      22.219   5.305  48.704  1.00  0.00     0.122 A 
HETATM    4  N2  UNL     1      22.988   6.333  48.347  1.00  0.00    -0.235 NA
HETATM    5  C10 UNL     1      24.317   6.287  48.483  1.00  0.00     0.192 A 
HETATM    6  O2  UNL     1      25.058   7.328  48.120  1.00  0.00    -0.240 OA
HETATM    7  C11 UNL     1      26.306   7.159  48.182  1.00  0.00     0.066 C 
HETATM    8  C12 UNL     1      27.440   6.986  48.244  1.00  0.00    -0.048 C 
HETATM    9  C13 UNL     1      28.727   6.767  48.321  1.00  0.00     0.067 C 
HETATM   10  C14 UNL     1      28.388   5.438  48.272  1.00  0.00     0.009 C 
HETATM   11  C15 UNL     1      27.477   4.556  48.811  1.00  0.00     0.002 C 
HETATM   12  C16 UNL     1      26.189   4.806  49.246  1.00  0.00     0.018 C 
HETATM   13  C17 UNL     1      24.874   5.133  49.010  1.00  0.00     0.044 A 
ENDROOT
BRANCH   1  14
HETATM   14  N1  UNL     1      24.566   2.853  49.942  1.00  0.00    -0.385 N 
HETATM   15  H8  UNL     1      25.457   2.412  49.562  1.00  0.00     0.160 HD
BRANCH  14  16
HETATM   16  C6  UNL     1      23.885   2.192  51.037  1.00  0.00     0.158 C 
BRANCH  16  17
HETATM   17  C5  UNL     1      24.896   1.517  51.887  1.00  0.00    -0.040 A 
HETATM   18  C4  UNL     1      24.426   0.890  53.034  1.00  0.00     0.011 A 
HETATM   19  C3  UNL     1      25.236   0.217  53.934  1.00  0.00     0.037 A 
HETATM   20  C2  UNL     1      26.609   0.168  53.664  1.00  0.00     0.068 A 
HETATM   21  C19 UNL     1      27.088   0.788  52.527  1.00  0.00     0.037 A 
HETATM   22  C18 UNL     1      26.253   1.461  51.636  1.00  0.00     0.011 A 
BRANCH  20  23
HETATM   23  O1  UNL     1      27.454  -0.496  54.540  1.00  0.00    -0.356 OA
HETATM   24  C1  UNL     1      28.748  -0.003  54.761  1.00  0.00     0.210 C 
ENDBRANCH  20  23
ENDBRANCH  16  17
ENDBRANCH  14  16
ENDBRANCH   1  14
TORSDOF 4
ENDMDL
MODEL 8
REMARK VINA RESULT:      -7.7      3.316      5.701
REMARK  4 active torsions:
REMARK  status: ('A' for Active; 'I' for Inactive)
REMARK    1  A    between atoms: O1_2  and  C2_3 
REMARK    2  A    between atoms: C5_6  and  C6_7 
REMARK    3  A    between atoms: C6_7  and  N1_8 
REMARK    4  A    between atoms: N1_8  and  C7_9 
ROOT
HETATM    1  C7  UNL     1      21.432   1.631  50.697  1.00  0.00     0.044 A 
HETATM    2  C8  UNL     1      20.549   2.469  50.028  1.00  0.00     0.049 A 
HETATM    3  C9  UNL     1      19.262   2.359  50.449  1.00  0.00     0.122 A 
HETATM    4  N2  UNL     1      18.837   1.538  51.408  1.00  0.00    -0.235 NA
HETATM    5  C10 UNL     1      19.682   0.729  52.056  1.00  0.00     0.192 A 
HETATM    6  O2  UNL     1      19.230  -0.079  53.008  1.00  0.00    -0.240 OA
HETATM    7  C11 UNL     1      20.108  -0.727  53.639  1.00  0.00     0.066 C 
HETATM    8  C12 UNL     1      20.923  -1.308  54.202  1.00  0.00    -0.048 C 
HETATM    9  C13 UNL     1      21.867  -1.958  54.833  1.00  0.00     0.067 C 
HETATM   10  C14 UNL     1      22.699  -0.970  54.369  1.00  0.00     0.009 C 
HETATM   11  C15 UNL     1      22.963  -0.260  53.218  1.00  0.00     0.002 C 
HETATM   12  C16 UNL     1      22.097   0.073  52.194  1.00  0.00     0.018 C 
HETATM   13  C17 UNL     1      21.019   0.770  51.697  1.00  0.00     0.044 A 
ENDROOT
BRANCH   1  14
HETATM   14  N1  UNL     1      22.812   1.714  50.262  1.00  0.00    -0.385 N 
HETATM   15  H8  UNL     1      23.274   0.891  49.770  1.00  0.00     0.160 HD
BRANCH  14  16
HETATM   16  C6  UNL     1      23.597   2.911  50.484  1.00  0.00     0.158 C 
BRANCH  16  17
HETATM   17  C5  UNL     1      24.586   2.638  51.557  1.00  0.00    -0.040 A 
HETATM   18  C4  UNL     1      25.777   2.040  51.167  1.00  0.00     0.011 A 
HETATM   19  C3  UNL     1      26.803   1.719  52.041  1.00  0.00     0.037 A 
HETATM   20  C2  UNL     1      26.622   2.019  53.396  1.00  0.00     0.068 A 
HETATM   21  C19 UNL     1      25.440   2.614  53.796  1.00  0.00     0.037 A 
HETATM   22  C18 UNL     1      24.422   2.927  52.897  1.00  0.00     0.011 A 
BRANCH  20  23
HETATM   23  O1  UNL     1      27.624   1.713  54.304  1.00  0.00    -0.356 OA
HETATM   24  C1  UNL     1      28.918   1.436  53.838  1.00  0.00     0.210 C 
ENDBRANCH  20  23
ENDBRANCH  16  17
ENDBRANCH  14  16
ENDBRANCH   1  14
TORSDOF 4
ENDMDL
MODEL 9
REMARK VINA RESULT:      -7.5      5.258      8.635
REMARK  4 active torsions:
REMARK  status: ('A' for Active; 'I' for Inactive)
REMARK    1  A    between atoms: O1_2  and  C2_3 
REMARK    2  A    between atoms: C5_6  and  C6_7 
REMARK    3  A    between atoms: C6_7  and  N1_8 
REMARK    4  A    between atoms: N1_8  and  C7_9 
ROOT
HETATM    1  C7  UNL     1      32.692   6.877  47.668  1.00  0.00     0.044 A 
HETATM    2  C8  UNL     1      33.464   8.008  47.901  1.00  0.00     0.049 A 
HETATM    3  C9  UNL     1      34.744   7.735  48.266  1.00  0.00     0.122 A 
HETATM    4  N2  UNL     1      35.257   6.513  48.403  1.00  0.00    -0.235 NA
HETATM    5  C10 UNL     1      34.519   5.420  48.180  1.00  0.00     0.192 A 
HETATM    6  O2  UNL     1      35.057   4.214  48.326  1.00  0.00    -0.240 OA
HETATM    7  C11 UNL     1      34.325   3.244  47.992  1.00  0.00     0.066 C 
HETATM    8  C12 UNL     1      33.643   2.374  47.682  1.00  0.00    -0.048 C 
HETATM    9  C13 UNL     1      32.850   1.397  47.322  1.00  0.00     0.067 C 
HETATM   10  C14 UNL     1      32.189   2.355  46.595  1.00  0.00     0.009 C 
HETATM   11  C15 UNL     1      31.725   3.647  46.718  1.00  0.00     0.002 C 
HETATM   12  C16 UNL     1      32.227   4.672  47.497  1.00  0.00     0.018 C 
HETATM   13  C17 UNL     1      33.199   5.597  47.802  1.00  0.00     0.044 A 
ENDROOT
BRANCH   1  14
HETATM   14  N1  UNL     1      31.317   7.134  47.289  1.00  0.00    -0.385 N 
HETATM   15  H8  UNL     1      30.941   6.792  46.354  1.00  0.00     0.160 HD
BRANCH  14  16
HETATM   16  C6  UNL     1      30.422   7.862  48.165  1.00  0.00     0.158 C 
BRANCH  16  17
HETATM   17  C5  UNL     1      29.185   7.063  48.351  1.00  0.00    -0.040 A 
HETATM   18  C4  UNL     1      28.015   7.773  48.583  1.00  0.00     0.011 A 
HETATM   19  C3  UNL     1      26.778   7.181  48.777  1.00  0.00     0.037 A 
HETATM   20  C2  UNL     1      26.710   5.783  48.734  1.00  0.00     0.068 A 
HETATM   21  C19 UNL     1      27.869   5.066  48.505  1.00  0.00     0.037 A 
HETATM   22  C18 UNL     1      29.103   5.685  48.313  1.00  0.00     0.011 A 
BRANCH  20  23
HETATM   23  O1  UNL     1      25.490   5.152  48.924  1.00  0.00    -0.356 OA
HETATM   24  C1  UNL     1      25.414   4.033  49.767  1.00  0.00     0.210 C 
ENDBRANCH  20  23
ENDBRANCH  16  17
ENDBRANCH  14  16
ENDBRANCH   1  14
TORSDOF 4
ENDMDL
