MODEL 1
REMARK VINA RESULT:      -7.1      0.000      0.000
REMARK  5 active torsions:
REMARK  status: ('A' for Active; 'I' for Inactive)
REMARK    1  A    between atoms: N1_2  and  C3_4 
REMARK    2  A    between atoms: C3_4  and  C4_5 
REMARK    3  A    between atoms: C4_5  and  C5_6 
REMARK    4  A    between atoms: C5_6  and  C6_7 
REMARK    5  A    between atoms: C7_9  and  N2_10 
ROOT
HETATM    1  C6  UNL     1      25.923   1.074  51.827  1.00  0.00     0.105 A 
HETATM    2  O1  UNL     1      26.919   1.799  51.607  1.00  0.00    -0.312 OA
HETATM    3  C7  UNL     1      25.601   2.376  51.291  1.00  0.00     0.196 A 
HETATM    4  C8  UNL     1      24.345   2.565  50.560  1.00  0.00     0.179 A 
HETATM    5  C9  UNL     1      23.881   1.769  51.644  1.00  0.00     0.071 A 
HETATM    6  C10 UNL     1      23.323   0.764  52.574  1.00  0.00     0.096 C 
HETATM    7  N3  UNL     1      22.906  -0.030  53.304  1.00  0.00    -0.192 NA
HETATM    8  C11 UNL     1      24.505   3.071  52.216  1.00  0.00     0.200 A 
HETATM    9  N4  UNL     1      23.803   4.110  51.568  1.00  0.00    -0.369 N 
HETATM   10  C12 UNL     1      24.535   5.184  51.006  1.00  0.00     0.149 C 
HETATM   11  C13 UNL     1      23.640   6.399  51.129  1.00  0.00     0.012 C 
HETATM   12  C14 UNL     1      22.403   6.302  50.656  1.00  0.00     0.013 C 
HETATM   13 CL1  UNL     1      21.303   7.641  50.753  1.00  0.00    -0.089 Cl
HETATM   14  C15 UNL     1      22.049   4.977  50.049  1.00  0.00     0.104 C 
HETATM   15  C16 UNL     1      22.610   3.842  50.772  1.00  0.00     0.226 C 
HETATM   16  O2  UNL     1      23.192   2.828  49.754  1.00  0.00    -0.342 OA
ENDROOT
BRANCH   3  17
HETATM   17  N2  UNL     1      26.665   3.267  51.003  1.00  0.00    -0.394 N 
HETATM   18  H11 UNL     1      27.106   3.612  51.851  1.00  0.00     0.153 HD
HETATM   19  H12 UNL     1      27.235   3.066  50.187  1.00  0.00     0.153 HD
ENDBRANCH   3  17
BRANCH   1  20
HETATM   20  C5  UNL     1      26.238  -0.220  52.359  1.00  0.00     0.035 C 
BRANCH  20  21
HETATM   21  C4  UNL     1      27.128  -0.354  53.364  1.00  0.00     0.006 C 
BRANCH  21  22
HETATM   22  C3  UNL     1      27.629   0.271  54.607  1.00  0.00     0.299 C 
BRANCH  22  23
HETATM   23  N1  UNL     1      29.023   0.675  54.497  1.00  0.00     0.083 N 
HETATM   24  C1  UNL     1      29.786  -0.201  53.663  1.00  0.00     0.309 C 
HETATM   25  C2  UNL     1      29.170   2.074  54.196  1.00  0.00     0.309 C 
ENDBRANCH  22  23
ENDBRANCH  21  22
ENDBRANCH  20  21
ENDBRANCH   1  20
TORSDOF 5
ENDMDL
MODEL 2
REMARK VINA RESULT:      -7.1      2.572      3.213
REMARK  5 active torsions:
REMARK  status: ('A' for Active; 'I' for Inactive)
REMARK    1  A    between atoms: N1_2  and  C3_4 
REMARK    2  A    between atoms: C3_4  and  C4_5 
REMARK    3  A    between atoms: C4_5  and  C5_6 
REMARK    4  A    between atoms: C5_6  and  C6_7 
REMARK    5  A    between atoms: C7_9  and  N2_10 
ROOT
HETATM    1  C6  UNL     1      24.465   0.222  52.888  1.00  0.00     0.105 A 
HETATM    2  O1  UNL     1      24.991   1.157  52.245  1.00  0.00    -0.312 OA
HETATM    3  C7  UNL     1      23.523   1.056  52.180  1.00  0.00     0.196 A 
HETATM    4  C8  UNL     1      22.218   0.509  51.797  1.00  0.00     0.179 A 
HETATM    5  C9  UNL     1      22.325  -0.009  53.118  1.00  0.00     0.071 A 
HETATM    6  C10 UNL     1      22.418  -0.793  54.369  1.00  0.00     0.096 C 
HETATM    7  N3  UNL     1      22.510  -1.405  55.345  1.00  0.00    -0.192 NA
HETATM    8  C11 UNL     1      22.387   1.541  53.187  1.00  0.00     0.200 A 
HETATM    9  N4  UNL     1      21.208   1.968  52.537  1.00  0.00    -0.369 N 
HETATM   10  C12 UNL     1      21.295   2.996  51.567  1.00  0.00     0.149 C 
HETATM   11  C13 UNL     1      19.984   3.750  51.652  1.00  0.00     0.012 C 
HETATM   12  C14 UNL     1      18.862   3.044  51.570  1.00  0.00     0.013 C 
HETATM   13 CL1  UNL     1      17.313   3.820  51.657  1.00  0.00    -0.089 Cl
HETATM   14  C15 UNL     1      19.044   1.566  51.400  1.00  0.00     0.104 C 
HETATM   15  C16 UNL     1      20.152   1.027  52.180  1.00  0.00     0.226 C 
HETATM   16  O2  UNL     1      20.961   0.040  51.300  1.00  0.00    -0.342 OA
ENDROOT
BRANCH   3  17
HETATM   17  N2  UNL     1      24.025   2.141  51.416  1.00  0.00    -0.394 N 
HETATM   18  H11 UNL     1      25.039   2.194  51.463  1.00  0.00     0.153 HD
HETATM   19  H12 UNL     1      23.551   2.359  50.546  1.00  0.00     0.153 HD
ENDBRANCH   3  17
BRANCH   1  20
HETATM   20  C5  UNL     1      25.397  -0.610  53.593  1.00  0.00     0.035 C 
BRANCH  20  21
HETATM   21  C4  UNL     1      26.216  -0.087  54.528  1.00  0.00     0.006 C 
BRANCH  21  22
HETATM   22  C3  UNL     1      27.626   0.233  54.837  1.00  0.00     0.299 C 
BRANCH  22  23
HETATM   23  N1  UNL     1      28.358   0.685  53.663  1.00  0.00     0.083 N 
HETATM   24  C1  UNL     1      28.314   2.105  53.499  1.00  0.00     0.309 C 
HETATM   25  C2  UNL     1      29.673   0.108  53.576  1.00  0.00     0.309 C 
ENDBRANCH  22  23
ENDBRANCH  21  22
ENDBRANCH  20  21
ENDBRANCH   1  20
TORSDOF 5
ENDMDL
MODEL 3
REMARK VINA RESULT:      -6.6      3.469      6.586
REMARK  5 active torsions:
REMARK  status: ('A' for Active; 'I' for Inactive)
REMARK    1  A    between atoms: N1_2  and  C3_4 
REMARK    2  A    between atoms: C3_4  and  C4_5 
REMARK    3  A    between atoms: C4_5  and  C5_6 
REMARK    4  A    between atoms: C5_6  and  C6_7 
REMARK    5  A    between atoms: C7_9  and  N2_10 
ROOT
HETATM    1  C6  UNL     1      22.505   3.857  51.786  1.00  0.00     0.105 A 
HETATM    2  O1  UNL     1      23.034   4.691  52.554  1.00  0.00    -0.312 OA
HETATM    3  C7  UNL     1      23.602   3.332  52.565  1.00  0.00     0.196 A 
HETATM    4  C8  UNL     1      23.670   1.894  52.839  1.00  0.00     0.179 A 
HETATM    5  C9  UNL     1      23.291   1.865  51.469  1.00  0.00     0.071 A 
HETATM    6  C10 UNL     1      22.675   1.700  50.134  1.00  0.00     0.096 C 
HETATM    7  N3  UNL     1      22.186   1.589  49.093  1.00  0.00    -0.192 NA
HETATM    8  C11 UNL     1      24.644   2.618  51.593  1.00  0.00     0.200 A 
HETATM    9  N4  UNL     1      25.493   1.705  52.256  1.00  0.00    -0.369 N 
HETATM   10  C12 UNL     1      26.271   2.163  53.348  1.00  0.00     0.149 C 
HETATM   11  C13 UNL     1      27.541   1.337  53.319  1.00  0.00     0.012 C 
HETATM   12  C14 UNL     1      27.414   0.016  53.281  1.00  0.00     0.013 C 
HETATM   13 CL1  UNL     1      28.812  -1.012  53.246  1.00  0.00    -0.089 Cl
HETATM   14  C15 UNL     1      26.005  -0.495  53.273  1.00  0.00     0.104 C 
HETATM   15  C16 UNL     1      25.102   0.315  52.465  1.00  0.00     0.226 C 
HETATM   16  O2  UNL     1      23.775   0.524  53.239  1.00  0.00    -0.342 OA
ENDROOT
BRANCH   3  17
HETATM   17  N2  UNL     1      24.262   4.202  53.470  1.00  0.00    -0.394 N 
HETATM   18  H11 UNL     1      24.968   4.765  53.002  1.00  0.00     0.153 HD
HETATM   19  H12 UNL     1      23.706   4.611  54.214  1.00  0.00     0.153 HD
ENDBRANCH   3  17
BRANCH   1  20
HETATM   20  C5  UNL     1      21.414   4.374  51.011  1.00  0.00     0.035 C 
BRANCH  20  21
HETATM   21  C4  UNL     1      20.144   4.014  51.283  1.00  0.00     0.006 C 
BRANCH  21  22
HETATM   22  C3  UNL     1      19.309   3.010  51.978  1.00  0.00     0.299 C 
BRANCH  22  23
HETATM   23  N1  UNL     1      19.622   1.651  51.562  1.00  0.00     0.083 N 
HETATM   24  C1  UNL     1      19.981   0.809  52.660  1.00  0.00     0.309 C 
HETATM   25  C2  UNL     1      18.627   1.101  50.680  1.00  0.00     0.309 C 
ENDBRANCH  22  23
ENDBRANCH  21  22
ENDBRANCH  20  21
ENDBRANCH   1  20
TORSDOF 5
ENDMDL
MODEL 4
REMARK VINA RESULT:      -6.6      1.561      2.902
REMARK  5 active torsions:
REMARK  status: ('A' for Active; 'I' for Inactive)
REMARK    1  A    between atoms: N1_2  and  C3_4 
REMARK    2  A    between atoms: C3_4  and  C4_5 
REMARK    3  A    between atoms: C4_5  and  C5_6 
REMARK    4  A    between atoms: C5_6  and  C6_7 
REMARK    5  A    between atoms: C7_9  and  N2_10 
ROOT
HETATM    1  C6  UNL     1      25.230   1.755  51.711  1.00  0.00     0.105 A 
HETATM    2  O1  UNL     1      24.308   1.015  52.120  1.00  0.00    -0.312 OA
HETATM    3  C7  UNL     1      23.938   2.397  51.770  1.00  0.00     0.196 A 
HETATM    4  C8  UNL     1      23.861   3.854  51.906  1.00  0.00     0.179 A 
HETATM    5  C9  UNL     1      24.901   3.752  50.941  1.00  0.00     0.071 A 
HETATM    6  C10 UNL     1      26.135   3.775  50.125  1.00  0.00     0.096 C 
HETATM    7  N3  UNL     1      27.103   3.775  49.494  1.00  0.00    -0.192 NA
HETATM    8  C11 UNL     1      23.623   3.082  50.366  1.00  0.00     0.200 A 
HETATM    9  N4  UNL     1      22.636   4.088  50.443  1.00  0.00    -0.369 N 
HETATM   10  C12 UNL     1      21.366   3.762  50.979  1.00  0.00     0.149 C 
HETATM   11  C13 UNL     1      20.375   4.645  50.251  1.00  0.00     0.012 C 
HETATM   12  C14 UNL     1      20.616   5.951  50.228  1.00  0.00     0.013 C 
HETATM   13 CL1  UNL     1      19.538   7.043  49.417  1.00  0.00    -0.089 Cl
HETATM   14  C15 UNL     1      21.861   6.387  50.941  1.00  0.00     0.104 C 
HETATM   15  C16 UNL     1      22.979   5.469  50.766  1.00  0.00     0.226 C 
HETATM   16  O2  UNL     1      23.682   5.256  52.131  1.00  0.00    -0.342 OA
ENDROOT
BRANCH   3  17
HETATM   17  N2  UNL     1      22.830   1.639  52.229  1.00  0.00    -0.394 N 
HETATM   18  H11 UNL     1      21.955   2.142  52.106  1.00  0.00     0.153 HD
HETATM   19  H12 UNL     1      22.857   0.636  52.081  1.00  0.00     0.153 HD
ENDBRANCH   3  17
BRANCH   1  20
HETATM   20  C5  UNL     1      26.516   1.121  51.649  1.00  0.00     0.035 C 
BRANCH  20  21
HETATM   21  C4  UNL     1      26.681  -0.144  52.084  1.00  0.00     0.006 C 
BRANCH  21  22
HETATM   22  C3  UNL     1      27.482  -1.004  52.982  1.00  0.00     0.299 C 
BRANCH  22  23
HETATM   23  N1  UNL     1      28.598  -0.286  53.581  1.00  0.00     0.083 N 
HETATM   24  C1  UNL     1      28.290   0.224  54.881  1.00  0.00     0.309 C 
HETATM   25  C2  UNL     1      29.833  -1.017  53.497  1.00  0.00     0.309 C 
ENDBRANCH  22  23
ENDBRANCH  21  22
ENDBRANCH  20  21
ENDBRANCH   1  20
TORSDOF 5
ENDMDL
MODEL 5
REMARK VINA RESULT:      -6.6      3.209      6.606
REMARK  5 active torsions:
REMARK  status: ('A' for Active; 'I' for Inactive)
REMARK    1  A    between atoms: N1_2  and  C3_4 
REMARK    2  A    between atoms: C3_4  and  C4_5 
REMARK    3  A    between atoms: C4_5  and  C5_6 
REMARK    4  A    between atoms: C5_6  and  C6_7 
REMARK    5  A    between atoms: C7_9  and  N2_10 
ROOT
HETATM    1  C6  UNL     1      22.541   3.626  52.020  1.00  0.00     0.105 A 
HETATM    2  O1  UNL     1      23.144   4.492  52.691  1.00  0.00    -0.312 OA
HETATM    3  C7  UNL     1      23.705   3.130  52.718  1.00  0.00     0.196 A 
HETATM    4  C8  UNL     1      23.791   1.707  53.058  1.00  0.00     0.179 A 
HETATM    5  C9  UNL     1      23.285   1.612  51.732  1.00  0.00     0.071 A 
HETATM    6  C10 UNL     1      22.546   1.386  50.472  1.00  0.00     0.096 C 
HETATM    7  N3  UNL     1      21.960   1.227  49.488  1.00  0.00    -0.192 NA
HETATM    8  C11 UNL     1      24.647   2.357  51.691  1.00  0.00     0.200 A 
HETATM    9  N4  UNL     1      25.550   1.471  52.318  1.00  0.00    -0.369 N 
HETATM   10  C12 UNL     1      26.429   1.976  53.307  1.00  0.00     0.149 C 
HETATM   11  C13 UNL     1      27.687   1.139  53.202  1.00  0.00     0.012 C 
HETATM   12  C14 UNL     1      27.551  -0.182  53.244  1.00  0.00     0.013 C 
HETATM   13 CL1  UNL     1      28.934  -1.224  53.131  1.00  0.00    -0.089 Cl
HETATM   14  C15 UNL     1      26.145  -0.679  53.393  1.00  0.00     0.104 C 
HETATM   15  C16 UNL     1      25.174   0.097  52.633  1.00  0.00     0.226 C 
HETATM   16  O2  UNL     1      23.927   0.358  53.516  1.00  0.00    -0.342 OA
ENDROOT
BRANCH   3  17
HETATM   17  N2  UNL     1      24.451   4.038  53.512  1.00  0.00    -0.394 N 
HETATM   18  H11 UNL     1      25.388   4.175  53.144  1.00  0.00     0.153 HD
HETATM   19  H12 UNL     1      23.951   4.823  53.918  1.00  0.00     0.153 HD
ENDBRANCH   3  17
BRANCH   1  20
HETATM   20  C5  UNL     1      21.385   4.113  51.324  1.00  0.00     0.035 C 
BRANCH  20  21
HETATM   21  C4  UNL     1      21.513   4.980  50.300  1.00  0.00     0.006 C 
BRANCH  21  22
HETATM   22  C3  UNL     1      22.488   5.764  49.512  1.00  0.00     0.299 C 
BRANCH  22  23
HETATM   23  N1  UNL     1      22.567   7.149  49.953  1.00  0.00     0.083 N 
HETATM   24  C1  UNL     1      21.308   7.654  50.408  1.00  0.00     0.309 C 
HETATM   25  C2  UNL     1      23.669   7.383  50.847  1.00  0.00     0.309 C 
ENDBRANCH  22  23
ENDBRANCH  21  22
ENDBRANCH  20  21
ENDBRANCH   1  20
TORSDOF 5
ENDMDL
MODEL 6
REMARK VINA RESULT:      -6.5      3.807      5.069
REMARK  5 active torsions:
REMARK  status: ('A' for Active; 'I' for Inactive)
REMARK    1  A    between atoms: N1_2  and  C3_4 
REMARK    2  A    between atoms: C3_4  and  C4_5 
REMARK    3  A    between atoms: C4_5  and  C5_6 
REMARK    4  A    between atoms: C5_6  and  C6_7 
REMARK    5  A    between atoms: C7_9  and  N2_10 
ROOT
HETATM    1  C6  UNL     1      22.642   3.814  51.666  1.00  0.00     0.105 A 
HETATM    2  O1  UNL     1      22.692   4.816  52.413  1.00  0.00    -0.312 OA
HETATM    3  C7  UNL     1      23.774   4.677  51.423  1.00  0.00     0.196 A 
HETATM    4  C8  UNL     1      24.984   4.125  50.807  1.00  0.00     0.179 A 
HETATM    5  C9  UNL     1      23.992   3.500  50.002  1.00  0.00     0.071 A 
HETATM    6  C10 UNL     1      23.068   2.616  49.258  1.00  0.00     0.096 C 
HETATM    7  N3  UNL     1      22.333   1.927  48.691  1.00  0.00    -0.192 NA
HETATM    8  C11 UNL     1      23.839   5.040  49.873  1.00  0.00     0.200 A 
HETATM    9  N4  UNL     1      25.112   5.485  49.454  1.00  0.00    -0.369 N 
HETATM   10  C12 UNL     1      25.699   6.594  50.110  1.00  0.00     0.149 C 
HETATM   11  C13 UNL     1      26.531   7.298  49.059  1.00  0.00     0.012 C 
HETATM   12  C14 UNL     1      27.405   6.568  48.375  1.00  0.00     0.013 C 
HETATM   13 CL1  UNL     1      28.402   7.286  47.150  1.00  0.00    -0.089 Cl
HETATM   14  C15 UNL     1      27.455   5.115  48.743  1.00  0.00     0.104 C 
HETATM   15  C16 UNL     1      26.145   4.546  49.029  1.00  0.00     0.226 C 
HETATM   16  O2  UNL     1      26.239   3.662  50.299  1.00  0.00    -0.342 OA
ENDROOT
BRANCH   3  17
HETATM   17  N2  UNL     1      23.921   5.837  52.226  1.00  0.00    -0.394 N 
HETATM   18  H11 UNL     1      23.057   6.072  52.707  1.00  0.00     0.153 HD
HETATM   19  H12 UNL     1      24.810   5.969  52.698  1.00  0.00     0.153 HD
ENDBRANCH   3  17
BRANCH   1  20
HETATM   20  C5  UNL     1      21.518   2.954  51.902  1.00  0.00     0.035 C 
BRANCH  20  21
HETATM   21  C4  UNL     1      21.638   1.866  52.690  1.00  0.00     0.006 C 
BRANCH  21  22
HETATM   22  C3  UNL     1      22.559   0.786  53.104  1.00  0.00     0.299 C 
BRANCH  22  23
HETATM   23  N1  UNL     1      21.848  -0.392  53.578  1.00  0.00     0.083 N 
HETATM   24  C1  UNL     1      22.506  -1.027  54.678  1.00  0.00     0.309 C 
HETATM   25  C2  UNL     1      20.444  -0.148  53.774  1.00  0.00     0.309 C 
ENDBRANCH  22  23
ENDBRANCH  21  22
ENDBRANCH  20  21
ENDBRANCH   1  20
TORSDOF 5
ENDMDL
MODEL 7
REMARK VINA RESULT:      -6.4      3.469      4.775
REMARK  5 active torsions:
REMARK  status: ('A' for Active; 'I' for Inactive)
REMARK    1  A    between atoms: N1_2  and  C3_4 
REMARK    2  A    between atoms: C3_4  and  C4_5 
REMARK    3  A    between atoms: C4_5  and  C5_6 
REMARK    4  A    between atoms: C5_6  and  C6_7 
REMARK    5  A    between atoms: C7_9  and  N2_10 
ROOT
HETATM    1  C6  UNL     1      23.469   0.487  52.783  1.00  0.00     0.105 A 
HETATM    2  O1  UNL     1      23.098  -0.559  53.360  1.00  0.00    -0.312 OA
HETATM    3  C7  UNL     1      22.036   0.320  52.842  1.00  0.00     0.196 A 
HETATM    4  C8  UNL     1      21.167   1.498  52.770  1.00  0.00     0.179 A 
HETATM    5  C9  UNL     1      22.111   1.827  51.757  1.00  0.00     0.071 A 
HETATM    6  C10 UNL     1      23.144   2.388  50.861  1.00  0.00     0.096 C 
HETATM    7  N3  UNL     1      23.965   2.816  50.168  1.00  0.00    -0.192 NA
HETATM    8  C11 UNL     1      21.424   0.486  51.379  1.00  0.00     0.200 A 
HETATM    9  N4  UNL     1      20.045   0.787  51.380  1.00  0.00    -0.369 N 
HETATM   10  C12 UNL     1      19.154  -0.089  52.047  1.00  0.00     0.149 C 
HETATM   11  C13 UNL     1      17.855  -0.020  51.272  1.00  0.00     0.012 C 
HETATM   12  C14 UNL     1      17.338   1.182  51.042  1.00  0.00     0.013 C 
HETATM   13 CL1  UNL     1      15.854   1.361  50.162  1.00  0.00    -0.089 Cl
HETATM   14  C15 UNL     1      18.123   2.334  51.594  1.00  0.00     0.104 C 
HETATM   15  C16 UNL     1      19.565   2.161  51.474  1.00  0.00     0.226 C 
HETATM   16  O2  UNL     1      20.242   2.589  52.801  1.00  0.00    -0.342 OA
ENDROOT
BRANCH   3  17
HETATM   17  N2  UNL     1      21.519  -0.834  53.483  1.00  0.00    -0.394 N 
HETATM   18  H11 UNL     1      21.495  -1.633  52.855  1.00  0.00     0.153 HD
HETATM   19  H12 UNL     1      21.756  -0.971  54.461  1.00  0.00     0.153 HD
ENDBRANCH   3  17
BRANCH   1  20
HETATM   20  C5  UNL     1      24.892   0.658  52.721  1.00  0.00     0.035 C 
BRANCH  20  21
HETATM   21  C4  UNL     1      25.719  -0.253  53.271  1.00  0.00     0.006 C 
BRANCH  21  22
HETATM   22  C3  UNL     1      26.905  -1.099  53.016  1.00  0.00     0.299 C 
BRANCH  22  23
HETATM   23  N1  UNL     1      28.136  -0.475  53.477  1.00  0.00     0.083 N 
HETATM   24  C1  UNL     1      27.991   0.154  54.753  1.00  0.00     0.309 C 
HETATM   25  C2  UNL     1      29.275  -1.346  53.360  1.00  0.00     0.309 C 
ENDBRANCH  22  23
ENDBRANCH  21  22
ENDBRANCH  20  21
ENDBRANCH   1  20
TORSDOF 5
ENDMDL
MODEL 8
REMARK VINA RESULT:      -6.3      7.398     10.042
REMARK  5 active torsions:
REMARK  status: ('A' for Active; 'I' for Inactive)
REMARK    1  A    between atoms: N1_2  and  C3_4 
REMARK    2  A    between atoms: C3_4  and  C4_5 
REMARK    3  A    between atoms: C4_5  and  C5_6 
REMARK    4  A    between atoms: C5_6  and  C6_7 
REMARK    5  A    between atoms: C7_9  and  N2_10 
ROOT
HETATM    1  C6  UNL     1      29.646   8.837  48.792  1.00  0.00     0.105 A 
HETATM    2  O1  UNL     1      30.402   9.133  49.744  1.00  0.00    -0.312 OA
HETATM    3  C7  UNL     1      30.711   7.888  49.019  1.00  0.00     0.196 A 
HETATM    4  C8  UNL     1      30.546   6.499  48.581  1.00  0.00     0.179 A 
HETATM    5  C9  UNL     1      30.015   7.178  47.450  1.00  0.00     0.071 A 
HETATM    6  C10 UNL     1      29.231   7.747  46.332  1.00  0.00     0.096 C 
HETATM    7  N3  UNL     1      28.615   8.207  45.469  1.00  0.00    -0.192 NA
HETATM    8  C11 UNL     1      31.487   7.629  47.652  1.00  0.00     0.200 A 
HETATM    9  N4  UNL     1      32.225   6.425  47.647  1.00  0.00    -0.369 N 
HETATM   10  C12 UNL     1      33.193   6.212  48.659  1.00  0.00     0.149 C 
HETATM   11  C13 UNL     1      34.280   5.375  48.016  1.00  0.00     0.012 C 
HETATM   12  C14 UNL     1      33.912   4.260  47.397  1.00  0.00     0.013 C 
HETATM   13 CL1  UNL     1      35.085   3.237  46.630  1.00  0.00    -0.089 Cl
HETATM   14  C15 UNL     1      32.441   3.969  47.417  1.00  0.00     0.104 C 
HETATM   15  C16 UNL     1      31.614   5.158  47.259  1.00  0.00     0.226 C 
HETATM   16  O2  UNL     1      30.445   5.105  48.276  1.00  0.00    -0.342 OA
ENDROOT
BRANCH   3  17
HETATM   17  N2  UNL     1      31.616   8.135  50.083  1.00  0.00    -0.394 N 
HETATM   18  H11 UNL     1      32.362   7.445  50.107  1.00  0.00     0.153 HD
HETATM   19  H12 UNL     1      31.820   9.103  50.307  1.00  0.00     0.153 HD
ENDBRANCH   3  17
BRANCH   1  20
HETATM   20  C5  UNL     1      28.586   9.776  48.562  1.00  0.00     0.035 C 
BRANCH  20  21
HETATM   21  C4  UNL     1      27.386   9.620  49.156  1.00  0.00     0.006 C 
BRANCH  21  22
HETATM   22  C3  UNL     1      26.574   8.705  49.987  1.00  0.00     0.299 C 
BRANCH  22  23
HETATM   23  N1  UNL     1      25.869   7.714  49.189  1.00  0.00     0.083 N 
HETATM   24  C1  UNL     1      25.228   8.284  48.044  1.00  0.00     0.309 C 
HETATM   25  C2  UNL     1      26.673   6.553  48.914  1.00  0.00     0.309 C 
ENDBRANCH  22  23
ENDBRANCH  21  22
ENDBRANCH  20  21
ENDBRANCH   1  20
TORSDOF 5
ENDMDL
MODEL 9
REMARK VINA RESULT:      -6.1      3.742      5.871
REMARK  5 active torsions:
REMARK  status: ('A' for Active; 'I' for Inactive)
REMARK    1  A    between atoms: N1_2  and  C3_4 
REMARK    2  A    between atoms: C3_4  and  C4_5 
REMARK    3  A    between atoms: C4_5  and  C5_6 
REMARK    4  A    between atoms: C5_6  and  C6_7 
REMARK    5  A    between atoms: C7_9  and  N2_10 
ROOT
HETATM    1  C6  UNL     1      24.039   4.278  50.071  1.00  0.00     0.105 A 
HETATM    2  O1  UNL     1      25.019   4.270  50.849  1.00  0.00    -0.312 OA
HETATM    3  C7  UNL     1      23.843   3.485  51.262  1.00  0.00     0.196 A 
HETATM    4  C8  UNL     1      22.483   3.237  51.748  1.00  0.00     0.179 A 
HETATM    5  C9  UNL     1      22.285   3.041  50.353  1.00  0.00     0.071 A 
HETATM    6  C10 UNL     1      21.900   3.044  48.926  1.00  0.00     0.096 C 
HETATM    7  N3  UNL     1      21.614   3.058  47.806  1.00  0.00    -0.192 NA
HETATM    8  C11 UNL     1      23.351   2.026  50.850  1.00  0.00     0.200 A 
HETATM    9  N4  UNL     1      22.712   1.334  51.901  1.00  0.00    -0.369 N 
HETATM   10  C12 UNL     1      23.407   1.150  53.122  1.00  0.00     0.149 C 
HETATM   11  C13 UNL     1      22.917  -0.171  53.677  1.00  0.00     0.012 C 
HETATM   12  C14 UNL     1      21.605  -0.343  53.788  1.00  0.00     0.013 C 
HETATM   13 CL1  UNL     1      20.949  -1.823  54.412  1.00  0.00    -0.089 Cl
HETATM   14  C15 UNL     1      20.765   0.816  53.342  1.00  0.00     0.104 C 
HETATM   15  C16 UNL     1      21.283   1.481  52.153  1.00  0.00     0.226 C 
HETATM   16  O2  UNL     1      21.205   3.017  52.353  1.00  0.00    -0.342 OA
ENDROOT
BRANCH   3  17
HETATM   17  N2  UNL     1      24.897   3.420  52.209  1.00  0.00    -0.394 N 
HETATM   18  H11 UNL     1      24.699   2.749  52.945  1.00  0.00     0.153 HD
HETATM   19  H12 UNL     1      25.845   3.517  51.860  1.00  0.00     0.153 HD
ENDBRANCH   3  17
BRANCH   1  20
HETATM   20  C5  UNL     1      24.229   5.064  48.886  1.00  0.00     0.035 C 
BRANCH  20  21
HETATM   21  C4  UNL     1      25.071   6.117  48.886  1.00  0.00     0.006 C 
BRANCH  21  22
HETATM   22  C3  UNL     1      26.141   6.791  48.120  1.00  0.00     0.299 C 
BRANCH  22  23
HETATM   23  N1  UNL     1      27.468   6.453  48.612  1.00  0.00     0.083 N 
HETATM   24  C1  UNL     1      27.728   5.047  48.574  1.00  0.00     0.309 C 
HETATM   25  C2  UNL     1      28.498   7.273  48.032  1.00  0.00     0.309 C 
ENDBRANCH  22  23
ENDBRANCH  21  22
ENDBRANCH  20  21
ENDBRANCH   1  20
TORSDOF 5
ENDMDL
