MODEL 1
REMARK VINA RESULT:      -8.6      0.000      0.000
REMARK  5 active torsions:
REMARK  status: ('A' for Active; 'I' for Inactive)
REMARK    1  A    between atoms: C3_3  and  C4_4 
REMARK    2  A    between atoms: C4_4  and  N1_5 
REMARK    3  A    between atoms: N1_5  and  C5_6 
REMARK    4  A    between atoms: C6_8  and  O1_9 
REMARK    5  A    between atoms: C9_13  and  N3_14 
ROOT
HETATM    1  C1  UNL     1      21.999  -1.662  54.797  1.00  0.00     0.048 C 
HETATM    2  C2  UNL     1      22.684  -0.673  53.960  1.00  0.00    -0.058 A 
HETATM    3  C3  UNL     1      23.928  -0.217  53.808  1.00  0.00    -0.054 A 
HETATM    4  C8  UNL     1      24.407   0.813  52.895  1.00  0.00     0.067 A 
HETATM    5  C9  UNL     1      23.374   1.388  51.983  1.00  0.00     0.134 A 
HETATM    6  C17 UNL     1      22.011   0.859  52.182  1.00  0.00     0.001 A 
HETATM    7  C18 UNL     1      21.678  -0.067  53.066  1.00  0.00     0.005 A 
ENDROOT
BRANCH   3   8
HETATM    8  C4  UNL     1      24.886  -0.887  54.730  1.00  0.00     0.156 C 
BRANCH   8   9
HETATM    9  N1  UNL     1      26.169  -0.981  54.081  1.00  0.00    -0.365 N 
HETATM   10  H6  UNL     1      26.353  -1.777  53.432  1.00  0.00     0.162 HD
BRANCH   9  11
HETATM   11  C5  UNL     1      27.352  -0.247  54.067  1.00  0.00     0.169 A 
HETATM   12  N2  UNL     1      27.847   0.965  54.464  1.00  0.00    -0.200 NA
HETATM   13  C6  UNL     1      29.135   1.071  54.210  1.00  0.00     0.171 A 
HETATM   14  C7  UNL     1      30.079   0.159  53.606  1.00  0.00     0.111 A 
HETATM   15  S1  UNL     1      28.791  -1.190  53.336  1.00  0.00    -0.060 SA
BRANCH  13  16
HETATM   16  O1  UNL     1      29.506   2.358  54.668  1.00  0.00    -0.344 OA
HETATM   17  H7  UNL     1      28.784   3.061  54.823  1.00  0.00     0.219 HD
ENDBRANCH  13  16
ENDBRANCH   9  11
ENDBRANCH   8   9
ENDBRANCH   3   8
BRANCH   5  18
HETATM   18  N3  UNL     1      23.301   2.818  52.120  1.00  0.00    -0.288 NA
HETATM   19  C10 UNL     1      23.891   3.579  51.289  1.00  0.00     0.015 C 
HETATM   20  C11 UNL     1      23.784   5.044  51.476  1.00  0.00     0.062 C 
HETATM   21  C15 UNL     1      24.731   3.309  50.077  1.00  0.00     0.054 C 
HETATM   22  C12 UNL     1      22.905   5.603  50.346  1.00  0.00     0.075 C 
HETATM   23  C13 UNL     1      23.596   5.277  49.075  1.00  0.00     0.091 C 
HETATM   24  F1  UNL     1      23.479   5.974  47.899  1.00  0.00    -0.211 F 
HETATM   25  C14 UNL     1      24.406   4.253  48.966  1.00  0.00     0.021 C 
HETATM   26  C16 UNL     1      26.193   3.478  50.425  1.00  0.00     0.020 C 
ENDBRANCH   5  18
TORSDOF 5
ENDMDL
MODEL 2
REMARK VINA RESULT:      -8.4      3.575      6.229
REMARK  5 active torsions:
REMARK  status: ('A' for Active; 'I' for Inactive)
REMARK    1  A    between atoms: C3_3  and  C4_4 
REMARK    2  A    between atoms: C4_4  and  N1_5 
REMARK    3  A    between atoms: N1_5  and  C5_6 
REMARK    4  A    between atoms: C6_8  and  O1_9 
REMARK    5  A    between atoms: C9_13  and  N3_14 
ROOT
HETATM    1  C1  UNL     1      19.671  -0.500  53.531  1.00  0.00     0.048 C 
HETATM    2  C2  UNL     1      21.100  -0.191  53.438  1.00  0.00    -0.058 A 
HETATM    3  C3  UNL     1      21.872   0.662  52.763  1.00  0.00    -0.054 A 
HETATM    4  C8  UNL     1      23.322   0.800  52.813  1.00  0.00     0.067 A 
HETATM    5  C9  UNL     1      24.016  -0.096  53.785  1.00  0.00     0.134 A 
HETATM    6  C17 UNL     1      23.129  -1.024  54.512  1.00  0.00     0.001 A 
HETATM    7  C18 UNL     1      21.815  -1.085  54.371  1.00  0.00     0.005 A 
ENDROOT
BRANCH   3   8
HETATM    8  C4  UNL     1      21.079   1.539  51.859  1.00  0.00     0.156 C 
BRANCH   8   9
HETATM    9  N1  UNL     1      21.252   2.909  52.270  1.00  0.00    -0.365 N 
HETATM   10  H6  UNL     1      20.649   3.290  53.032  1.00  0.00     0.162 HD
BRANCH   9  11
HETATM   11  C5  UNL     1      22.068   3.978  51.912  1.00  0.00     0.169 A 
HETATM   12  N2  UNL     1      22.887   4.916  52.478  1.00  0.00    -0.200 NA
HETATM   13  C6  UNL     1      23.466   5.671  51.566  1.00  0.00     0.171 A 
HETATM   14  C7  UNL     1      23.384   5.676  50.123  1.00  0.00     0.111 A 
HETATM   15  S1  UNL     1      22.173   4.234  50.063  1.00  0.00    -0.060 SA
BRANCH  13  16
HETATM   16  O1  UNL     1      24.274   6.583  52.286  1.00  0.00    -0.344 OA
HETATM   17  H7  UNL     1      25.169   6.876  51.894  1.00  0.00     0.219 HD
ENDBRANCH  13  16
ENDBRANCH   9  11
ENDBRANCH   8   9
ENDBRANCH   3   8
BRANCH   5  18
HETATM   18  N3  UNL     1      25.020  -0.891  53.130  1.00  0.00    -0.288 NA
HETATM   19  C10 UNL     1      26.154  -0.393  52.842  1.00  0.00     0.015 C 
HETATM   20  C11 UNL     1      27.152  -1.255  52.168  1.00  0.00     0.062 C 
HETATM   21  C15 UNL     1      26.752   0.966  53.044  1.00  0.00     0.054 C 
HETATM   22  C12 UNL     1      28.280  -1.547  53.170  1.00  0.00     0.075 C 
HETATM   23  C13 UNL     1      28.868  -0.235  53.535  1.00  0.00     0.091 C 
HETATM   24  F1  UNL     1      30.154  -0.027  53.964  1.00  0.00    -0.211 F 
HETATM   25  C14 UNL     1      28.179   0.878  53.476  1.00  0.00     0.021 C 
HETATM   26  C16 UNL     1      26.701   1.742  51.746  1.00  0.00     0.020 C 
ENDBRANCH   5  18
TORSDOF 5
ENDMDL
MODEL 3
REMARK VINA RESULT:      -8.4      3.907      7.139
REMARK  5 active torsions:
REMARK  status: ('A' for Active; 'I' for Inactive)
REMARK    1  A    between atoms: C3_3  and  C4_4 
REMARK    2  A    between atoms: C4_4  and  N1_5 
REMARK    3  A    between atoms: N1_5  and  C5_6 
REMARK    4  A    between atoms: C6_8  and  O1_9 
REMARK    5  A    between atoms: C9_13  and  N3_14 
ROOT
HETATM    1  C1  UNL     1      23.702   5.015  49.110  1.00  0.00     0.048 C 
HETATM    2  C2  UNL     1      24.344   3.919  49.840  1.00  0.00    -0.058 A 
HETATM    3  C3  UNL     1      23.959   2.919  50.635  1.00  0.00    -0.054 A 
HETATM    4  C8  UNL     1      24.790   1.914  51.286  1.00  0.00     0.067 A 
HETATM    5  C9  UNL     1      26.249   1.992  50.976  1.00  0.00     0.134 A 
HETATM    6  C17 UNL     1      26.634   3.111  50.094  1.00  0.00     0.001 A 
HETATM    7  C18 UNL     1      25.794   3.989  49.573  1.00  0.00     0.005 A 
ENDROOT
BRANCH   3   8
HETATM    8  C4  UNL     1      22.486   2.904  50.842  1.00  0.00     0.156 C 
BRANCH   8   9
HETATM    9  N1  UNL     1      22.209   2.471  52.188  1.00  0.00    -0.365 N 
HETATM   10  H6  UNL     1      22.513   3.070  52.987  1.00  0.00     0.162 HD
BRANCH   9  11
HETATM   11  C5  UNL     1      21.596   1.378  52.794  1.00  0.00     0.169 A 
HETATM   12  N2  UNL     1      21.806   0.472  53.797  1.00  0.00    -0.200 NA
HETATM   13  C6  UNL     1      20.778  -0.339  53.944  1.00  0.00     0.171 A 
HETATM   14  C7  UNL     1      19.513  -0.431  53.251  1.00  0.00     0.111 A 
HETATM   15  S1  UNL     1      19.898   1.012  52.101  1.00  0.00    -0.060 SA
BRANCH  13  16
HETATM   16  O1  UNL     1      21.131  -1.210  55.002  1.00  0.00    -0.344 OA
HETATM   17  H7  UNL     1      20.421  -1.487  55.680  1.00  0.00     0.219 HD
ENDBRANCH  13  16
ENDBRANCH   9  11
ENDBRANCH   8   9
ENDBRANCH   3   8
BRANCH   5  18
HETATM   18  N3  UNL     1      27.028   2.109  52.179  1.00  0.00    -0.288 NA
HETATM   19  C10 UNL     1      27.300   1.082  52.877  1.00  0.00     0.015 C 
HETATM   20  C11 UNL     1      28.106   1.258  54.107  1.00  0.00     0.062 C 
HETATM   21  C15 UNL     1      26.965  -0.371  52.727  1.00  0.00     0.054 C 
HETATM   22  C12 UNL     1      29.489   0.634  53.860  1.00  0.00     0.075 C 
HETATM   23  C13 UNL     1      29.257  -0.803  53.576  1.00  0.00     0.091 C 
HETATM   24  F1  UNL     1      30.155  -1.817  53.795  1.00  0.00    -0.211 F 
HETATM   25  C14 UNL     1      28.130  -1.240  53.071  1.00  0.00     0.021 C 
HETATM   26  C16 UNL     1      25.823  -0.727  53.653  1.00  0.00     0.020 C 
ENDBRANCH   5  18
TORSDOF 5
ENDMDL
MODEL 4
REMARK VINA RESULT:      -8.1      1.912      2.186
REMARK  5 active torsions:
REMARK  status: ('A' for Active; 'I' for Inactive)
REMARK    1  A    between atoms: C3_3  and  C4_4 
REMARK    2  A    between atoms: C4_4  and  N1_5 
REMARK    3  A    between atoms: N1_5  and  C5_6 
REMARK    4  A    between atoms: C6_8  and  O1_9 
REMARK    5  A    between atoms: C9_13  and  N3_14 
ROOT
HETATM    1  C1  UNL     1      21.088  -0.192  54.124  1.00  0.00     0.048 C 
HETATM    2  C2  UNL     1      21.898   0.692  53.282  1.00  0.00    -0.058 A 
HETATM    3  C3  UNL     1      23.180   0.798  52.929  1.00  0.00    -0.054 A 
HETATM    4  C8  UNL     1      23.798   1.792  52.060  1.00  0.00     0.067 A 
HETATM    5  C9  UNL     1      22.858   2.780  51.452  1.00  0.00     0.134 A 
HETATM    6  C17 UNL     1      21.450   2.630  51.867  1.00  0.00     0.001 A 
HETATM    7  C18 UNL     1      20.997   1.699  52.690  1.00  0.00     0.005 A 
ENDROOT
BRANCH   3   8
HETATM    8  C4  UNL     1      24.022  -0.261  53.551  1.00  0.00     0.156 C 
BRANCH   8   9
HETATM    9  N1  UNL     1      25.384  -0.088  53.117  1.00  0.00    -0.365 N 
HETATM   10  H6  UNL     1      25.648   0.784  52.609  1.00  0.00     0.162 HD
BRANCH   9  11
HETATM   11  C5  UNL     1      26.568  -0.818  53.182  1.00  0.00     0.169 A 
HETATM   12  N2  UNL     1      27.019  -2.107  53.098  1.00  0.00    -0.200 NA
HETATM   13  C6  UNL     1      28.331  -2.171  53.188  1.00  0.00     0.171 A 
HETATM   14  C7  UNL     1      29.338  -1.148  53.354  1.00  0.00     0.111 A 
HETATM   15  S1  UNL     1      28.083   0.257  53.390  1.00  0.00    -0.060 SA
BRANCH  13  16
HETATM   16  O1  UNL     1      28.652  -3.545  53.085  1.00  0.00    -0.344 OA
HETATM   17  H7  UNL     1      28.218  -4.209  53.727  1.00  0.00     0.219 HD
ENDBRANCH  13  16
ENDBRANCH   9  11
ENDBRANCH   8   9
ENDBRANCH   3   8
BRANCH   5  18
HETATM   18  N3  UNL     1      23.253   4.128  51.763  1.00  0.00    -0.288 NA
HETATM   19  C10 UNL     1      23.865   4.838  50.903  1.00  0.00     0.015 C 
HETATM   20  C11 UNL     1      24.249   6.219  51.274  1.00  0.00     0.062 C 
HETATM   21  C15 UNL     1      24.318   4.574  49.499  1.00  0.00     0.054 C 
HETATM   22  C12 UNL     1      23.371   7.188  50.466  1.00  0.00     0.075 C 
HETATM   23  C13 UNL     1      23.657   6.921  49.035  1.00  0.00     0.091 C 
HETATM   24  F1  UNL     1      23.522   7.823  48.011  1.00  0.00    -0.211 F 
HETATM   25  C14 UNL     1      24.078   5.754  48.615  1.00  0.00     0.021 C 
HETATM   26  C16 UNL     1      25.801   4.275  49.492  1.00  0.00     0.020 C 
ENDBRANCH   5  18
TORSDOF 5
ENDMDL
MODEL 5
REMARK VINA RESULT:      -8.0      3.998      7.288
REMARK  5 active torsions:
REMARK  status: ('A' for Active; 'I' for Inactive)
REMARK    1  A    between atoms: C3_3  and  C4_4 
REMARK    2  A    between atoms: C4_4  and  N1_5 
REMARK    3  A    between atoms: N1_5  and  C5_6 
REMARK    4  A    between atoms: C6_8  and  O1_9 
REMARK    5  A    between atoms: C9_13  and  N3_14 
ROOT
HETATM    1  C1  UNL     1      23.852   5.115  48.845  1.00  0.00     0.048 C 
HETATM    2  C2  UNL     1      24.441   4.035  49.642  1.00  0.00    -0.058 A 
HETATM    3  C3  UNL     1      24.008   3.097  50.487  1.00  0.00    -0.054 A 
HETATM    4  C8  UNL     1      24.790   2.096  51.201  1.00  0.00     0.067 A 
HETATM    5  C9  UNL     1      26.253   2.096  50.904  1.00  0.00     0.134 A 
HETATM    6  C17 UNL     1      26.692   3.147  49.966  1.00  0.00     0.001 A 
HETATM    7  C18 UNL     1      25.895   4.030  49.387  1.00  0.00     0.005 A 
ENDROOT
BRANCH   3   8
HETATM    8  C4  UNL     1      22.533   3.155  50.678  1.00  0.00     0.156 C 
BRANCH   8   9
HETATM    9  N1  UNL     1      22.197   2.488  51.910  1.00  0.00    -0.365 N 
HETATM   10  H6  UNL     1      22.687   2.767  52.788  1.00  0.00     0.162 HD
BRANCH   9  11
HETATM   11  C5  UNL     1      21.324   1.481  52.310  1.00  0.00     0.169 A 
HETATM   12  N2  UNL     1      20.077   0.992  52.031  1.00  0.00    -0.200 NA
HETATM   13  C6  UNL     1      19.804  -0.081  52.744  1.00  0.00     0.171 A 
HETATM   14  C7  UNL     1      20.569  -0.803  53.735  1.00  0.00     0.111 A 
HETATM   15  S1  UNL     1      22.053   0.350  53.608  1.00  0.00    -0.060 SA
BRANCH  13  16
HETATM   16  O1  UNL     1      18.500  -0.473  52.355  1.00  0.00    -0.344 OA
HETATM   17  H7  UNL     1      18.007  -1.179  52.900  1.00  0.00     0.219 HD
ENDBRANCH  13  16
ENDBRANCH   9  11
ENDBRANCH   8   9
ENDBRANCH   3   8
BRANCH   5  18
HETATM   18  N3  UNL     1      27.026   2.247  52.107  1.00  0.00    -0.288 NA
HETATM   19  C10 UNL     1      27.302   1.239  52.830  1.00  0.00     0.015 C 
HETATM   20  C11 UNL     1      28.101   1.450  54.059  1.00  0.00     0.062 C 
HETATM   21  C15 UNL     1      26.977  -0.220  52.714  1.00  0.00     0.054 C 
HETATM   22  C12 UNL     1      29.489   0.830  53.834  1.00  0.00     0.075 C 
HETATM   23  C13 UNL     1      29.268  -0.615  53.583  1.00  0.00     0.091 C 
HETATM   24  F1  UNL     1      30.172  -1.617  53.830  1.00  0.00    -0.211 F 
HETATM   25  C14 UNL     1      28.146  -1.072  53.084  1.00  0.00     0.021 C 
HETATM   26  C16 UNL     1      25.833  -0.561  53.643  1.00  0.00     0.020 C 
ENDBRANCH   5  18
TORSDOF 5
ENDMDL
MODEL 6
REMARK VINA RESULT:      -7.9      5.049      7.672
REMARK  5 active torsions:
REMARK  status: ('A' for Active; 'I' for Inactive)
REMARK    1  A    between atoms: C3_3  and  C4_4 
REMARK    2  A    between atoms: C4_4  and  N1_5 
REMARK    3  A    between atoms: N1_5  and  C5_6 
REMARK    4  A    between atoms: C6_8  and  O1_9 
REMARK    5  A    between atoms: C9_13  and  N3_14 
ROOT
HETATM    1  C1  UNL     1      19.238  -0.423  52.655  1.00  0.00     0.048 C 
HETATM    2  C2  UNL     1      20.631   0.027  52.571  1.00  0.00    -0.058 A 
HETATM    3  C3  UNL     1      21.391   0.688  51.697  1.00  0.00    -0.054 A 
HETATM    4  C8  UNL     1      22.803   1.032  51.809  1.00  0.00     0.067 A 
HETATM    5  C9  UNL     1      23.458   0.635  53.090  1.00  0.00     0.134 A 
HETATM    6  C17 UNL     1      22.584  -0.093  54.030  1.00  0.00     0.001 A 
HETATM    7  C18 UNL     1      21.310  -0.378  53.817  1.00  0.00     0.005 A 
ENDROOT
BRANCH   3   8
HETATM    8  C4  UNL     1      20.632   1.078  50.477  1.00  0.00     0.156 C 
BRANCH   8   9
HETATM    9  N1  UNL     1      20.094   2.401  50.666  1.00  0.00    -0.365 N 
HETATM   10  H6  UNL     1      20.736   3.222  50.618  1.00  0.00     0.162 HD
BRANCH   9  11
HETATM   11  C5  UNL     1      18.844   2.958  50.922  1.00  0.00     0.169 A 
HETATM   12  N2  UNL     1      18.105   3.461  51.957  1.00  0.00    -0.200 NA
HETATM   13  C6  UNL     1      16.941   3.921  51.546  1.00  0.00     0.171 A 
HETATM   14  C7  UNL     1      16.335   3.982  50.236  1.00  0.00     0.111 A 
HETATM   15  S1  UNL     1      17.809   3.178  49.381  1.00  0.00    -0.060 SA
BRANCH  13  16
HETATM   16  O1  UNL     1      16.293   4.403  52.708  1.00  0.00    -0.344 OA
HETATM   17  H7  UNL     1      15.340   4.100  52.912  1.00  0.00     0.219 HD
ENDBRANCH  13  16
ENDBRANCH   9  11
ENDBRANCH   8   9
ENDBRANCH   3   8
BRANCH   5  18
HETATM   18  N3  UNL     1      24.609  -0.193  52.849  1.00  0.00    -0.288 NA
HETATM   19  C10 UNL     1      25.754   0.329  52.667  1.00  0.00     0.015 C 
HETATM   20  C11 UNL     1      26.906  -0.569  52.422  1.00  0.00     0.062 C 
HETATM   21  C15 UNL     1      26.237   1.747  52.641  1.00  0.00     0.054 C 
HETATM   22  C12 UNL     1      27.817  -0.518  53.658  1.00  0.00     0.075 C 
HETATM   23  C13 UNL     1      28.260   0.891  53.797  1.00  0.00     0.091 C 
HETATM   24  F1  UNL     1      29.420   1.309  54.397  1.00  0.00    -0.211 F 
HETATM   25  C14 UNL     1      27.548   1.892  53.341  1.00  0.00     0.021 C 
HETATM   26  C16 UNL     1      26.417   2.197  51.208  1.00  0.00     0.020 C 
ENDBRANCH   5  18
TORSDOF 5
ENDMDL
MODEL 7
REMARK VINA RESULT:      -7.8      5.358      7.568
REMARK  5 active torsions:
REMARK  status: ('A' for Active; 'I' for Inactive)
REMARK    1  A    between atoms: C3_3  and  C4_4 
REMARK    2  A    between atoms: C4_4  and  N1_5 
REMARK    3  A    between atoms: N1_5  and  C5_6 
REMARK    4  A    between atoms: C6_8  and  O1_9 
REMARK    5  A    between atoms: C9_13  and  N3_14 
ROOT
HETATM    1  C1  UNL     1      24.517   5.723  49.252  1.00  0.00     0.048 C 
HETATM    2  C2  UNL     1      25.939   5.641  48.909  1.00  0.00    -0.058 A 
HETATM    3  C3  UNL     1      26.904   4.722  48.963  1.00  0.00    -0.054 A 
HETATM    4  C8  UNL     1      28.301   4.857  48.568  1.00  0.00     0.067 A 
HETATM    5  C9  UNL     1      28.675   6.178  47.982  1.00  0.00     0.134 A 
HETATM    6  C17 UNL     1      27.580   7.167  47.941  1.00  0.00     0.001 A 
HETATM    7  C18 UNL     1      26.343   6.947  48.353  1.00  0.00     0.005 A 
ENDROOT
BRANCH   3   8
HETATM    8  C4  UNL     1      26.417   3.430  49.517  1.00  0.00     0.156 C 
BRANCH   8   9
HETATM    9  N1  UNL     1      26.677   3.403  50.934  1.00  0.00    -0.365 N 
HETATM   10  H6  UNL     1      26.450   4.244  51.508  1.00  0.00     0.162 HD
BRANCH   9  11
HETATM   11  C5  UNL     1      27.196   2.493  51.850  1.00  0.00     0.169 A 
HETATM   12  N2  UNL     1      28.236   2.356  52.728  1.00  0.00    -0.200 NA
HETATM   13  C6  UNL     1      28.161   1.225  53.400  1.00  0.00     0.171 A 
HETATM   14  C7  UNL     1      27.203   0.144  53.367  1.00  0.00     0.111 A 
HETATM   15  S1  UNL     1      26.143   0.959  52.039  1.00  0.00    -0.060 SA
BRANCH  13  16
HETATM   16  O1  UNL     1      29.286   1.219  54.259  1.00  0.00    -0.344 OA
HETATM   17  H7  UNL     1      29.899   2.033  54.285  1.00  0.00     0.219 HD
ENDBRANCH  13  16
ENDBRANCH   9  11
ENDBRANCH   8   9
ENDBRANCH   3   8
BRANCH   5  18
HETATM   18  N3  UNL     1      29.763   6.777  48.708  1.00  0.00    -0.288 NA
HETATM   19  C10 UNL     1      30.968   6.561  48.363  1.00  0.00     0.015 C 
HETATM   20  C11 UNL     1      32.050   7.201  49.144  1.00  0.00     0.062 C 
HETATM   21  C15 UNL     1      31.584   5.746  47.266  1.00  0.00     0.054 C 
HETATM   22  C12 UNL     1      32.693   8.284  48.263  1.00  0.00     0.075 C 
HETATM   23  C13 UNL     1      33.236   7.589  47.071  1.00  0.00     0.091 C 
HETATM   24  F1  UNL     1      34.287   8.021  46.302  1.00  0.00    -0.211 F 
HETATM   25  C14 UNL     1      32.734   6.460  46.635  1.00  0.00     0.021 C 
HETATM   26  C16 UNL     1      32.094   4.438  47.830  1.00  0.00     0.020 C 
ENDBRANCH   5  18
TORSDOF 5
ENDMDL
MODEL 8
REMARK VINA RESULT:      -7.7      4.286      7.841
REMARK  5 active torsions:
REMARK  status: ('A' for Active; 'I' for Inactive)
REMARK    1  A    between atoms: C3_3  and  C4_4 
REMARK    2  A    between atoms: C4_4  and  N1_5 
REMARK    3  A    between atoms: N1_5  and  C5_6 
REMARK    4  A    between atoms: C6_8  and  O1_9 
REMARK    5  A    between atoms: C9_13  and  N3_14 
ROOT
HETATM    1  C1  UNL     1      25.511   6.394  48.568  1.00  0.00     0.048 C 
HETATM    2  C2  UNL     1      25.551   5.208  49.427  1.00  0.00    -0.058 A 
HETATM    3  C3  UNL     1      24.815   4.694  50.415  1.00  0.00    -0.054 A 
HETATM    4  C8  UNL     1      25.046   3.466  51.166  1.00  0.00     0.067 A 
HETATM    5  C9  UNL     1      26.229   2.665  50.734  1.00  0.00     0.134 A 
HETATM    6  C17 UNL     1      27.017   3.267  49.640  1.00  0.00     0.001 A 
HETATM    7  C18 UNL     1      26.730   4.410  49.039  1.00  0.00     0.005 A 
ENDROOT
BRANCH   3   8
HETATM    8  C4  UNL     1      23.637   5.544  50.736  1.00  0.00     0.156 C 
BRANCH   8   9
HETATM    9  N1  UNL     1      22.460   4.947  50.157  1.00  0.00    -0.365 N 
HETATM   10  H6  UNL     1      22.300   5.034  49.130  1.00  0.00     0.162 HD
BRANCH   9  11
HETATM   11  C5  UNL     1      21.366   4.218  50.614  1.00  0.00     0.169 A 
HETATM   12  N2  UNL     1      20.168   4.400  51.248  1.00  0.00    -0.200 NA
HETATM   13  C6  UNL     1      19.501   3.269  51.362  1.00  0.00     0.171 A 
HETATM   14  C7  UNL     1      19.809   1.920  50.946  1.00  0.00     0.111 A 
HETATM   15  S1  UNL     1      21.474   2.397  50.205  1.00  0.00    -0.060 SA
BRANCH  13  16
HETATM   16  O1  UNL     1      18.298   3.604  52.028  1.00  0.00    -0.344 OA
HETATM   17  H7  UNL     1      17.606   2.877  52.207  1.00  0.00     0.219 HD
ENDBRANCH  13  16
ENDBRANCH   9  11
ENDBRANCH   8   9
ENDBRANCH   3   8
BRANCH   5  18
HETATM   18  N3  UNL     1      27.130   2.437  51.832  1.00  0.00    -0.288 NA
HETATM   19  C10 UNL     1      27.058   1.367  52.516  1.00  0.00     0.015 C 
HETATM   20  C11 UNL     1      28.009   1.182  53.636  1.00  0.00     0.062 C 
HETATM   21  C15 UNL     1      26.165   0.166  52.441  1.00  0.00     0.054 C 
HETATM   22  C12 UNL     1      28.996   0.074  53.241  1.00  0.00     0.075 C 
HETATM   23  C13 UNL     1      28.188  -1.151  53.020  1.00  0.00     0.091 C 
HETATM   24  F1  UNL     1      28.636  -2.440  53.154  1.00  0.00    -0.211 F 
HETATM   25  C14 UNL     1      26.928  -1.098  52.663  1.00  0.00     0.021 C 
HETATM   26  C16 UNL     1      25.093   0.262  53.504  1.00  0.00     0.020 C 
ENDBRANCH   5  18
TORSDOF 5
ENDMDL
MODEL 9
REMARK VINA RESULT:      -7.6      4.781      7.623
REMARK  5 active torsions:
REMARK  status: ('A' for Active; 'I' for Inactive)
REMARK    1  A    between atoms: C3_3  and  C4_4 
REMARK    2  A    between atoms: C4_4  and  N1_5 
REMARK    3  A    between atoms: N1_5  and  C5_6 
REMARK    4  A    between atoms: C6_8  and  O1_9 
REMARK    5  A    between atoms: C9_13  and  N3_14 
ROOT
HETATM    1  C1  UNL     1      21.158   4.038  51.822  1.00  0.00     0.048 C 
HETATM    2  C2  UNL     1      22.286   3.113  51.962  1.00  0.00    -0.058 A 
HETATM    3  C3  UNL     1      22.515   1.816  51.754  1.00  0.00    -0.054 A 
HETATM    4  C8  UNL     1      23.748   1.071  51.975  1.00  0.00     0.067 A 
HETATM    5  C9  UNL     1      24.910   1.883  52.445  1.00  0.00     0.134 A 
HETATM    6  C17 UNL     1      24.616   3.313  52.664  1.00  0.00     0.001 A 
HETATM    7  C18 UNL     1      23.443   3.886  52.454  1.00  0.00     0.005 A 
ENDROOT
BRANCH   3   8
HETATM    8  C4  UNL     1      21.309   1.109  51.242  1.00  0.00     0.156 C 
BRANCH   8   9
HETATM    9  N1  UNL     1      20.422   0.844  52.346  1.00  0.00    -0.365 N 
HETATM   10  H6  UNL     1      20.474   1.447  53.195  1.00  0.00     0.162 HD
BRANCH   9  11
HETATM   11  C5  UNL     1      19.418  -0.075  52.639  1.00  0.00     0.169 A 
HETATM   12  N2  UNL     1      19.160  -1.124  53.479  1.00  0.00    -0.200 NA
HETATM   13  C6  UNL     1      17.938  -1.589  53.315  1.00  0.00     0.171 A 
HETATM   14  C7  UNL     1      16.865  -1.194  52.431  1.00  0.00     0.111 A 
HETATM   15  S1  UNL     1      17.862   0.194  51.638  1.00  0.00    -0.060 SA
BRANCH  13  16
HETATM   16  O1  UNL     1      17.812  -2.656  54.236  1.00  0.00    -0.344 OA
HETATM   17  H7  UNL     1      17.032  -2.660  54.893  1.00  0.00     0.219 HD
ENDBRANCH  13  16
ENDBRANCH   9  11
ENDBRANCH   8   9
ENDBRANCH   3   8
BRANCH   5  18
HETATM   18  N3  UNL     1      25.439   1.363  53.677  1.00  0.00    -0.288 NA
HETATM   19  C10 UNL     1      26.303   0.430  53.668  1.00  0.00     0.015 C 
HETATM   20  C11 UNL     1      26.816  -0.069  54.965  1.00  0.00     0.062 C 
HETATM   21  C15 UNL     1      26.966  -0.336  52.563  1.00  0.00     0.054 C 
HETATM   22  C12 UNL     1      28.280   0.378  55.099  1.00  0.00     0.075 C 
HETATM   23  C13 UNL     1      29.012  -0.235  53.964  1.00  0.00     0.091 C 
HETATM   24  F1  UNL     1      30.350  -0.539  53.946  1.00  0.00    -0.211 F 
HETATM   25  C14 UNL     1      28.418  -0.549  52.839  1.00  0.00     0.021 C 
HETATM   26  C16 UNL     1      26.310  -1.692  52.420  1.00  0.00     0.020 C 
ENDBRANCH   5  18
TORSDOF 5
ENDMDL
