MODEL 1
REMARK VINA RESULT:      -6.7      0.000      0.000
REMARK  5 active torsions:
REMARK  status: ('A' for Active; 'I' for Inactive)
REMARK    1  A    between atoms: C4_4  and  N1_5 
REMARK    2  A    between atoms: N1_5  and  C5_6 
REMARK    3  A    between atoms: C9_10  and  C10_11 
REMARK    4  A    between atoms: C10_11  and  N2_12 
REMARK    5  A    between atoms: N2_12  and  C11_13 
ROOT
HETATM    1  C1  UNL     1      29.176   6.493  47.889  1.00  0.00     0.017 C 
HETATM    2  C2  UNL     1      28.069   6.997  47.815  1.00  0.00    -0.088 C 
HETATM    3  C3  UNL     1      26.755   7.583  47.706  1.00  0.00     0.080 C 
HETATM    4  C4  UNL     1      25.924   7.270  48.690  1.00  0.00     0.093 C 
ENDROOT
BRANCH   4   5
HETATM    5  N1  UNL     1      26.613   6.414  49.595  1.00  0.00    -0.376 N 
HETATM    6  H4  UNL     1      27.535   6.621  50.050  1.00  0.00     0.161 HD
BRANCH   5   7
HETATM    7  C5  UNL     1      25.847   5.155  49.821  1.00  0.00     0.206 C 
HETATM    8  C6  UNL     1      26.784   4.047  49.489  1.00  0.00     0.055 C 
HETATM    9  C7  UNL     1      26.337   2.650  49.691  1.00  0.00     0.068 C 
HETATM   10  C8  UNL     1      26.038   2.402  51.146  1.00  0.00     0.052 C 
HETATM   11  C9  UNL     1      26.683   1.515  51.912  1.00  0.00     0.036 C 
HETATM   12  O1  UNL     1      24.999   3.166  51.729  1.00  0.00    -0.309 OA
HETATM   13  C13 UNL     1      23.775   3.086  51.023  1.00  0.00     0.259 C 
HETATM   14  N3  UNL     1      24.254   4.002  50.262  1.00  0.00    -0.230 NA
HETATM   15  C14 UNL     1      23.583   4.547  49.180  1.00  0.00     0.231 C 
HETATM   16  N4  UNL     1      24.651   5.192  49.040  1.00  0.00    -0.257 NA
BRANCH  11  17
HETATM   17  C10 UNL     1      26.716   0.978  53.300  1.00  0.00     0.303 C 
BRANCH  17  18
HETATM   18  N2  UNL     1      27.622  -0.154  53.336  1.00  0.00     0.120 N 
HETATM   19  H13 UNL     1      27.188  -1.006  53.710  1.00  0.00     0.319 HD
BRANCH  18  20
HETATM   20  C11 UNL     1      28.899   0.204  53.879  1.00  0.00     0.398 C 
HETATM   21  C12 UNL     1      29.888  -0.878  53.525  1.00  0.00     0.079 C 
HETATM   22  F1  UNL     1      28.786   0.277  55.241  1.00  0.00    -0.217 F 
ENDBRANCH  18  20
ENDBRANCH  17  18
ENDBRANCH  11  17
ENDBRANCH   5   7
ENDBRANCH   4   5
TORSDOF 5
ENDMDL
MODEL 2
REMARK VINA RESULT:      -6.6      3.204      6.134
REMARK  5 active torsions:
REMARK  status: ('A' for Active; 'I' for Inactive)
REMARK    1  A    between atoms: C4_4  and  N1_5 
REMARK    2  A    between atoms: N1_5  and  C5_6 
REMARK    3  A    between atoms: C9_10  and  C10_11 
REMARK    4  A    between atoms: C10_11  and  N2_12 
REMARK    5  A    between atoms: N2_12  and  C11_13 
ROOT
HETATM    1  C1  UNL     1      20.015  -0.479  53.405  1.00  0.00     0.017 C 
HETATM    2  C2  UNL     1      21.078  -0.773  53.922  1.00  0.00    -0.088 C 
HETATM    3  C3  UNL     1      22.332  -1.143  54.532  1.00  0.00     0.080 C 
HETATM    4  C4  UNL     1      23.409  -0.776  53.856  1.00  0.00     0.093 C 
ENDROOT
BRANCH   4   5
HETATM    5  N1  UNL     1      22.983  -0.095  52.680  1.00  0.00    -0.376 N 
HETATM    6  H4  UNL     1      22.111  -0.305  52.135  1.00  0.00     0.161 HD
BRANCH   5   7
HETATM    7  C5  UNL     1      23.949   0.977  52.307  1.00  0.00     0.206 C 
HETATM    8  C6  UNL     1      24.224   1.727  53.563  1.00  0.00     0.055 C 
HETATM    9  C7  UNL     1      25.220   2.821  53.537  1.00  0.00     0.068 C 
HETATM   10  C8  UNL     1      26.579   2.282  53.172  1.00  0.00     0.052 C 
HETATM   11  C9  UNL     1      27.654   2.333  53.967  1.00  0.00     0.036 C 
HETATM   12  O1  UNL     1      26.713   1.686  51.896  1.00  0.00    -0.309 OA
HETATM   13  C13 UNL     1      26.288   2.520  50.835  1.00  0.00     0.259 C 
HETATM   14  N3  UNL     1      25.103   2.100  51.095  1.00  0.00    -0.230 NA
HETATM   15  C14 UNL     1      23.966   2.497  50.412  1.00  0.00     0.231 C 
HETATM   16  N4  UNL     1      23.392   1.755  51.246  1.00  0.00    -0.257 NA
BRANCH  11  17
HETATM   17  C10 UNL     1      29.092   1.952  54.011  1.00  0.00     0.303 C 
BRANCH  17  18
HETATM   18  N2  UNL     1      29.303   0.838  53.107  1.00  0.00     0.120 N 
HETATM   19  H13 UNL     1      28.729   0.895  52.257  1.00  0.00     0.319 HD
BRANCH  18  20
HETATM   20  C11 UNL     1      29.299  -0.416  53.798  1.00  0.00     0.398 C 
HETATM   21  C12 UNL     1      28.248  -1.301  53.176  1.00  0.00     0.079 C 
HETATM   22  F1  UNL     1      28.971  -0.188  55.108  1.00  0.00    -0.217 F 
ENDBRANCH  18  20
ENDBRANCH  17  18
ENDBRANCH  11  17
ENDBRANCH   5   7
ENDBRANCH   4   5
TORSDOF 5
ENDMDL
MODEL 3
REMARK VINA RESULT:      -6.5      1.960      2.676
REMARK  5 active torsions:
REMARK  status: ('A' for Active; 'I' for Inactive)
REMARK    1  A    between atoms: C4_4  and  N1_5 
REMARK    2  A    between atoms: N1_5  and  C5_6 
REMARK    3  A    between atoms: C9_10  and  C10_11 
REMARK    4  A    between atoms: C10_11  and  N2_12 
REMARK    5  A    between atoms: N2_12  and  C11_13 
ROOT
HETATM    1  C1  UNL     1      27.429   7.377  48.241  1.00  0.00     0.017 C 
HETATM    2  C2  UNL     1      27.504   6.174  48.413  1.00  0.00    -0.088 C 
HETATM    3  C3  UNL     1      27.614   4.750  48.623  1.00  0.00     0.080 C 
HETATM    4  C4  UNL     1      26.791   4.258  49.537  1.00  0.00     0.093 C 
ENDROOT
BRANCH   4   5
HETATM    5  N1  UNL     1      26.014   5.332  50.056  1.00  0.00    -0.376 N 
HETATM    6  H4  UNL     1      26.326   6.331  50.134  1.00  0.00     0.161 HD
BRANCH   5   7
HETATM    7  C5  UNL     1      24.670   4.853  50.490  1.00  0.00     0.206 C 
HETATM    8  C6  UNL     1      24.458   3.557  49.788  1.00  0.00     0.055 C 
HETATM    9  C7  UNL     1      23.230   2.783  50.075  1.00  0.00     0.068 C 
HETATM   10  C8  UNL     1      23.192   2.381  51.527  1.00  0.00     0.052 C 
HETATM   11  C9  UNL     1      23.191   1.116  51.964  1.00  0.00     0.036 C 
HETATM   12  O1  UNL     1      23.154   3.424  52.482  1.00  0.00    -0.309 OA
HETATM   13  C13 UNL     1      22.102   4.346  52.269  1.00  0.00     0.259 C 
HETATM   14  N3  UNL     1      22.888   4.915  51.429  1.00  0.00    -0.230 NA
HETATM   15  C14 UNL     1      22.560   6.041  50.692  1.00  0.00     0.231 C 
HETATM   16  N4  UNL     1      23.702   5.863  50.201  1.00  0.00    -0.257 NA
BRANCH  11  17
HETATM   17  C10 UNL     1      23.163   0.315  53.218  1.00  0.00     0.303 C 
BRANCH  17  18
HETATM   18  N2  UNL     1      24.374  -0.480  53.285  1.00  0.00     0.120 N 
HETATM   19  H13 UNL     1      24.322  -1.234  53.981  1.00  0.00     0.319 HD
BRANCH  18  20
HETATM   20  C11 UNL     1      25.548   0.340  53.317  1.00  0.00     0.398 C 
HETATM   21  C12 UNL     1      26.637  -0.356  52.541  1.00  0.00     0.079 C 
HETATM   22  F1  UNL     1      25.946   0.477  54.619  1.00  0.00    -0.217 F 
ENDBRANCH  18  20
ENDBRANCH  17  18
ENDBRANCH  11  17
ENDBRANCH   5   7
ENDBRANCH   4   5
TORSDOF 5
ENDMDL
MODEL 4
REMARK VINA RESULT:      -6.5      2.883      3.599
REMARK  5 active torsions:
REMARK  status: ('A' for Active; 'I' for Inactive)
REMARK    1  A    between atoms: C4_4  and  N1_5 
REMARK    2  A    between atoms: N1_5  and  C5_6 
REMARK    3  A    between atoms: C9_10  and  C10_11 
REMARK    4  A    between atoms: C10_11  and  N2_12 
REMARK    5  A    between atoms: N2_12  and  C11_13 
ROOT
HETATM    1  C1  UNL     1      24.202   7.840  50.794  1.00  0.00     0.017 C 
HETATM    2  C2  UNL     1      23.114   7.291  50.808  1.00  0.00    -0.088 C 
HETATM    3  C3  UNL     1      21.829   6.636  50.802  1.00  0.00     0.080 C 
HETATM    4  C4  UNL     1      21.739   5.581  51.598  1.00  0.00     0.093 C 
ENDROOT
BRANCH   4   5
HETATM    5  N1  UNL     1      22.995   5.408  52.246  1.00  0.00    -0.376 N 
HETATM    6  H4  UNL     1      23.557   6.167  52.703  1.00  0.00     0.161 HD
BRANCH   5   7
HETATM    7  C5  UNL     1      23.426   3.981  52.196  1.00  0.00     0.206 C 
HETATM    8  C6  UNL     1      24.535   3.930  51.204  1.00  0.00     0.055 C 
HETATM    9  C7  UNL     1      25.237   2.646  50.984  1.00  0.00     0.068 C 
HETATM   10  C8  UNL     1      25.910   2.193  52.254  1.00  0.00     0.052 C 
HETATM   11  C9  UNL     1      27.230   2.028  52.395  1.00  0.00     0.036 C 
HETATM   12  O1  UNL     1      25.074   1.925  53.364  1.00  0.00    -0.309 OA
HETATM   13  C13 UNL     1      24.037   1.005  53.081  1.00  0.00     0.259 C 
HETATM   14  N3  UNL     1      23.388   2.012  52.620  1.00  0.00    -0.230 NA
HETATM   15  C14 UNL     1      22.115   1.939  52.079  1.00  0.00     0.231 C 
HETATM   16  N4  UNL     1      22.295   3.165  51.882  1.00  0.00    -0.257 NA
BRANCH  11  17
HETATM   17  C10 UNL     1      28.255   1.626  53.397  1.00  0.00     0.303 C 
BRANCH  17  18
HETATM   18  N2  UNL     1      27.871   0.348  53.963  1.00  0.00     0.120 N 
HETATM   19  H13 UNL     1      28.190   0.224  54.931  1.00  0.00     0.319 HD
BRANCH  18  20
HETATM   20  C11 UNL     1      28.134  -0.733  53.060  1.00  0.00     0.398 C 
HETATM   21  C12 UNL     1      26.855  -1.506  52.857  1.00  0.00     0.079 C 
HETATM   22  F1  UNL     1      29.067  -1.557  53.630  1.00  0.00    -0.217 F 
ENDBRANCH  18  20
ENDBRANCH  17  18
ENDBRANCH  11  17
ENDBRANCH   5   7
ENDBRANCH   4   5
TORSDOF 5
ENDMDL
MODEL 5
REMARK VINA RESULT:      -6.4      5.083      7.539
REMARK  5 active torsions:
REMARK  status: ('A' for Active; 'I' for Inactive)
REMARK    1  A    between atoms: C4_4  and  N1_5 
REMARK    2  A    between atoms: N1_5  and  C5_6 
REMARK    3  A    between atoms: C9_10  and  C10_11 
REMARK    4  A    between atoms: C10_11  and  N2_12 
REMARK    5  A    between atoms: N2_12  and  C11_13 
ROOT
HETATM    1  C1  UNL     1      27.322   4.578  48.904  1.00  0.00     0.017 C 
HETATM    2  C2  UNL     1      27.165   5.733  48.552  1.00  0.00    -0.088 C 
HETATM    3  C3  UNL     1      26.962   7.104  48.151  1.00  0.00     0.080 C 
HETATM    4  C4  UNL     1      27.988   7.909  48.381  1.00  0.00     0.093 C 
ENDROOT
BRANCH   4   5
HETATM    5  N1  UNL     1      29.026   7.141  48.981  1.00  0.00    -0.376 N 
HETATM    6  H4  UNL     1      28.919   6.516  49.817  1.00  0.00     0.161 HD
BRANCH   5   7
HETATM    7  C5  UNL     1      30.317   7.339  48.261  1.00  0.00     0.206 C 
HETATM    8  C6  UNL     1      31.368   7.357  49.315  1.00  0.00     0.055 C 
HETATM    9  C7  UNL     1      32.787   7.461  48.906  1.00  0.00     0.068 C 
HETATM   10  C8  UNL     1      33.179   6.270  48.070  1.00  0.00     0.052 C 
HETATM   11  C9  UNL     1      34.121   5.384  48.409  1.00  0.00     0.036 C 
HETATM   12  O1  UNL     1      32.495   6.092  46.844  1.00  0.00    -0.309 OA
HETATM   13  C13 UNL     1      32.534   7.231  46.005  1.00  0.00     0.259 C 
HETATM   14  N3  UNL     1      31.539   7.663  46.692  1.00  0.00    -0.230 NA
HETATM   15  C14 UNL     1      30.908   8.876  46.474  1.00  0.00     0.231 C 
HETATM   16  N4  UNL     1      30.230   8.527  47.471  1.00  0.00    -0.257 NA
BRANCH  11  17
HETATM   17  C10 UNL     1      34.787   4.145  47.922  1.00  0.00     0.303 C 
BRANCH  17  18
HETATM   18  N2  UNL     1      34.121   3.708  46.710  1.00  0.00     0.120 N 
HETATM   19  H13 UNL     1      33.604   4.460  46.241  1.00  0.00     0.319 HD
BRANCH  18  20
HETATM   20  C11 UNL     1      33.418   2.474  46.906  1.00  0.00     0.398 C 
HETATM   21  C12 UNL     1      31.966   2.693  46.562  1.00  0.00     0.079 C 
HETATM   22  F1  UNL     1      33.516   2.124  48.226  1.00  0.00    -0.217 F 
ENDBRANCH  18  20
ENDBRANCH  17  18
ENDBRANCH  11  17
ENDBRANCH   5   7
ENDBRANCH   4   5
TORSDOF 5
ENDMDL
MODEL 6
REMARK VINA RESULT:      -6.4      3.546      5.759
REMARK  5 active torsions:
REMARK  status: ('A' for Active; 'I' for Inactive)
REMARK    1  A    between atoms: C4_4  and  N1_5 
REMARK    2  A    between atoms: N1_5  and  C5_6 
REMARK    3  A    between atoms: C9_10  and  C10_11 
REMARK    4  A    between atoms: C10_11  and  N2_12 
REMARK    5  A    between atoms: N2_12  and  C11_13 
ROOT
HETATM    1  C1  UNL     1      18.671  -0.188  51.790  1.00  0.00     0.017 C 
HETATM    2  C2  UNL     1      19.000   0.768  51.109  1.00  0.00    -0.088 C 
HETATM    3  C3  UNL     1      19.381   1.914  50.319  1.00  0.00     0.080 C 
HETATM    4  C4  UNL     1      20.680   2.017  50.081  1.00  0.00     0.093 C 
ENDROOT
BRANCH   4   5
HETATM    5  N1  UNL     1      21.333   0.916  50.704  1.00  0.00    -0.376 N 
HETATM    6  H4  UNL     1      20.988  -0.075  50.712  1.00  0.00     0.161 HD
BRANCH   5   7
HETATM    7  C5  UNL     1      22.598   1.353  51.362  1.00  0.00     0.206 C 
HETATM    8  C6  UNL     1      22.705   0.544  52.607  1.00  0.00     0.055 C 
HETATM    9  C7  UNL     1      23.910   0.692  53.453  1.00  0.00     0.068 C 
HETATM   10  C8  UNL     1      25.140   0.280  52.687  1.00  0.00     0.052 C 
HETATM   11  C9  UNL     1      25.943  -0.734  53.028  1.00  0.00     0.036 C 
HETATM   12  O1  UNL     1      25.457   1.030  51.528  1.00  0.00    -0.309 OA
HETATM   13  C13 UNL     1      25.549   2.422  51.764  1.00  0.00     0.259 C 
HETATM   14  N3  UNL     1      24.272   2.440  51.633  1.00  0.00    -0.230 NA
HETATM   15  C14 UNL     1      23.493   3.580  51.740  1.00  0.00     0.231 C 
HETATM   16  N4  UNL     1      22.553   2.768  51.561  1.00  0.00    -0.257 NA
BRANCH  11  17
HETATM   17  C10 UNL     1      27.177  -1.443  52.593  1.00  0.00     0.303 C 
BRANCH  17  18
HETATM   18  N2  UNL     1      28.094  -1.505  53.715  1.00  0.00     0.120 N 
HETATM   19  H13 UNL     1      27.718  -2.028  54.514  1.00  0.00     0.319 HD
BRANCH  18  20
HETATM   20  C11 UNL     1      28.670  -0.225  54.002  1.00  0.00     0.398 C 
HETATM   21  C12 UNL     1      30.112  -0.242  53.563  1.00  0.00     0.079 C 
HETATM   22  F1  UNL     1      28.616  -0.019  55.354  1.00  0.00    -0.217 F 
ENDBRANCH  18  20
ENDBRANCH  17  18
ENDBRANCH  11  17
ENDBRANCH   5   7
ENDBRANCH   4   5
TORSDOF 5
ENDMDL
MODEL 7
REMARK VINA RESULT:      -6.3      1.798      2.648
REMARK  5 active torsions:
REMARK  status: ('A' for Active; 'I' for Inactive)
REMARK    1  A    between atoms: C4_4  and  N1_5 
REMARK    2  A    between atoms: N1_5  and  C5_6 
REMARK    3  A    between atoms: C9_10  and  C10_11 
REMARK    4  A    between atoms: C10_11  and  N2_12 
REMARK    5  A    between atoms: N2_12  and  C11_13 
ROOT
HETATM    1  C1  UNL     1      24.921   7.662  50.297  1.00  0.00     0.017 C 
HETATM    2  C2  UNL     1      25.634   6.840  49.748  1.00  0.00    -0.088 C 
HETATM    3  C3  UNL     1      26.498   5.879  49.108  1.00  0.00     0.080 C 
HETATM    4  C4  UNL     1      26.361   4.634  49.540  1.00  0.00     0.093 C 
ENDROOT
BRANCH   4   5
HETATM    5  N1  UNL     1      25.358   4.624  50.550  1.00  0.00    -0.376 N 
HETATM    6  H4  UNL     1      24.830   5.463  50.895  1.00  0.00     0.161 HD
BRANCH   5   7
HETATM    7  C5  UNL     1      25.144   3.244  51.072  1.00  0.00     0.206 C 
HETATM    8  C6  UNL     1      26.366   2.479  50.701  1.00  0.00     0.055 C 
HETATM    9  C7  UNL     1      26.493   1.075  51.153  1.00  0.00     0.068 C 
HETATM   10  C8  UNL     1      26.510   1.010  52.658  1.00  0.00     0.052 C 
HETATM   11  C9  UNL     1      27.533   0.550  53.386  1.00  0.00     0.036 C 
HETATM   12  O1  UNL     1      25.355   1.470  53.335  1.00  0.00    -0.309 OA
HETATM   13  C13 UNL     1      24.160   0.852  52.896  1.00  0.00     0.259 C 
HETATM   14  N3  UNL     1      24.160   1.721  51.951  1.00  0.00    -0.230 NA
HETATM   15  C14 UNL     1      23.194   1.799  50.962  1.00  0.00     0.231 C 
HETATM   16  N4  UNL     1      23.922   2.731  50.539  1.00  0.00    -0.257 NA
BRANCH  11  17
HETATM   17  C10 UNL     1      27.952   0.319  54.796  1.00  0.00     0.303 C 
BRANCH  17  18
HETATM   18  N2  UNL     1      28.879  -0.795  54.826  1.00  0.00     0.120 N 
HETATM   19  H13 UNL     1      29.545  -0.744  55.606  1.00  0.00     0.319 HD
BRANCH  18  20
HETATM   20  C11 UNL     1      29.431  -1.063  53.531  1.00  0.00     0.398 C 
HETATM   21  C12 UNL     1      29.054  -2.467  53.133  1.00  0.00     0.079 C 
HETATM   22  F1  UNL     1      30.794  -0.974  53.613  1.00  0.00    -0.217 F 
ENDBRANCH  18  20
ENDBRANCH  17  18
ENDBRANCH  11  17
ENDBRANCH   5   7
ENDBRANCH   4   5
TORSDOF 5
ENDMDL
MODEL 8
REMARK VINA RESULT:      -6.3      3.668      5.031
REMARK  5 active torsions:
REMARK  status: ('A' for Active; 'I' for Inactive)
REMARK    1  A    between atoms: C4_4  and  N1_5 
REMARK    2  A    between atoms: N1_5  and  C5_6 
REMARK    3  A    between atoms: C9_10  and  C10_11 
REMARK    4  A    between atoms: C10_11  and  N2_12 
REMARK    5  A    between atoms: N2_12  and  C11_13 
ROOT
HETATM    1  C1  UNL     1      26.504   4.952  49.071  1.00  0.00     0.017 C 
HETATM    2  C2  UNL     1      26.477   3.899  49.683  1.00  0.00    -0.088 C 
HETATM    3  C3  UNL     1      26.466   2.655  50.415  1.00  0.00     0.080 C 
HETATM    4  C4  UNL     1      25.551   2.580  51.369  1.00  0.00     0.093 C 
ENDROOT
BRANCH   4   5
HETATM    5  N1  UNL     1      24.823   3.803  51.381  1.00  0.00    -0.376 N 
HETATM    6  H4  UNL     1      25.243   4.764  51.428  1.00  0.00     0.161 HD
BRANCH   5   7
HETATM    7  C5  UNL     1      23.355   3.548  51.318  1.00  0.00     0.206 C 
HETATM    8  C6  UNL     1      23.201   2.251  50.605  1.00  0.00     0.055 C 
HETATM    9  C7  UNL     1      21.845   1.678  50.451  1.00  0.00     0.068 C 
HETATM   10  C8  UNL     1      21.244   1.385  51.801  1.00  0.00     0.052 C 
HETATM   11  C9  UNL     1      20.894   0.166  52.227  1.00  0.00     0.036 C 
HETATM   12  O1  UNL     1      21.039   2.486  52.666  1.00  0.00    -0.309 OA
HETATM   13  C13 UNL     1      20.284   3.530  52.082  1.00  0.00     0.259 C 
HETATM   14  N3  UNL     1      21.391   3.924  51.566  1.00  0.00    -0.230 NA
HETATM   15  C14 UNL     1      21.518   5.033  50.744  1.00  0.00     0.231 C 
HETATM   16  N4  UNL     1      22.717   4.663  50.691  1.00  0.00    -0.257 NA
BRANCH  11  17
HETATM   17  C10 UNL     1      20.309  -0.536  53.401  1.00  0.00     0.303 C 
BRANCH  17  18
HETATM   18  N2  UNL     1      21.011  -0.106  54.595  1.00  0.00     0.120 N 
HETATM   19  H13 UNL     1      21.303   0.877  54.558  1.00  0.00     0.319 HD
BRANCH  18  20
HETATM   20  C11 UNL     1      22.008  -1.054  54.995  1.00  0.00     0.398 C 
HETATM   21  C12 UNL     1      23.308  -0.692  54.323  1.00  0.00     0.079 C 
HETATM   22  F1  UNL     1      21.619  -2.297  54.573  1.00  0.00    -0.217 F 
ENDBRANCH  18  20
ENDBRANCH  17  18
ENDBRANCH  11  17
ENDBRANCH   5   7
ENDBRANCH   4   5
TORSDOF 5
ENDMDL
MODEL 9
REMARK VINA RESULT:      -6.3      3.273      7.657
REMARK  5 active torsions:
REMARK  status: ('A' for Active; 'I' for Inactive)
REMARK    1  A    between atoms: C4_4  and  N1_5 
REMARK    2  A    between atoms: N1_5  and  C5_6 
REMARK    3  A    between atoms: C9_10  and  C10_11 
REMARK    4  A    between atoms: C10_11  and  N2_12 
REMARK    5  A    between atoms: N2_12  and  C11_13 
ROOT
HETATM    1  C1  UNL     1      21.254  -0.241  53.304  1.00  0.00     0.017 C 
HETATM    2  C2  UNL     1      21.915  -0.569  54.273  1.00  0.00    -0.088 C 
HETATM    3  C3  UNL     1      22.686  -0.976  55.423  1.00  0.00     0.080 C 
HETATM    4  C4  UNL     1      23.965  -1.216  55.178  1.00  0.00     0.093 C 
ENDROOT
BRANCH   4   5
HETATM    5  N1  UNL     1      24.201  -0.988  53.793  1.00  0.00    -0.376 N 
HETATM    6  H4  UNL     1      23.624  -1.370  53.003  1.00  0.00     0.161 HD
BRANCH   5   7
HETATM    7  C5  UNL     1      25.396  -0.119  53.594  1.00  0.00     0.206 C 
HETATM    8  C6  UNL     1      25.850  -0.371  52.199  1.00  0.00     0.055 C 
HETATM    9  C7  UNL     1      26.988   0.411  51.666  1.00  0.00     0.068 C 
HETATM   10  C8  UNL     1      26.647   1.879  51.641  1.00  0.00     0.052 C 
HETATM   11  C9  UNL     1      26.587   2.624  50.532  1.00  0.00     0.036 C 
HETATM   12  O1  UNL     1      26.376   2.497  52.885  1.00  0.00    -0.309 OA
HETATM   13  C13 UNL     1      27.403   2.316  53.841  1.00  0.00     0.259 C 
HETATM   14  N3  UNL     1      26.850   1.184  54.091  1.00  0.00    -0.230 NA
HETATM   15  C14 UNL     1      27.314   0.280  55.031  1.00  0.00     0.231 C 
HETATM   16  N4  UNL     1      26.359  -0.416  54.607  1.00  0.00    -0.257 NA
BRANCH  11  17
HETATM   17  C10 UNL     1      26.310   4.013  50.073  1.00  0.00     0.303 C 
BRANCH  17  18
HETATM   18  N2  UNL     1      25.224   4.554  50.868  1.00  0.00     0.120 N 
HETATM   19  H13 UNL     1      24.934   3.931  51.630  1.00  0.00     0.319 HD
BRANCH  18  20
HETATM   20  C11 UNL     1      24.180   5.090  50.047  1.00  0.00     0.398 C 
HETATM   21  C12 UNL     1      22.863   4.534  50.527  1.00  0.00     0.079 C 
HETATM   22  F1  UNL     1      24.391   4.685  48.757  1.00  0.00    -0.217 F 
ENDBRANCH  18  20
ENDBRANCH  17  18
ENDBRANCH  11  17
ENDBRANCH   5   7
ENDBRANCH   4   5
TORSDOF 5
ENDMDL
