MODEL 1
REMARK VINA RESULT:      -7.7      0.000      0.000
REMARK  4 active torsions:
REMARK  status: ('A' for Active; 'I' for Inactive)
REMARK    1  A    between atoms: O1_2  and  C2_3 
REMARK    2  A    between atoms: C2_3  and  C3_4 
REMARK    3  A    between atoms: C9_13  and  N3_14 
REMARK    4  A    between atoms: N3_14  and  C10_15 
ROOT
HETATM    1  C3  UNL     1      21.560   1.332  52.386  1.00  0.00     0.073 C 
HETATM    2  C4  UNL     1      20.103   1.815  52.366  1.00  0.00     0.186 C 
HETATM    3  O2  UNL     1      19.217   0.836  51.878  1.00  0.00    -0.362 OA
HETATM    4  C5  UNL     1      18.648  -0.209  52.631  1.00  0.00     0.137 C 
HETATM    5  C6  UNL     1      19.411  -0.904  53.493  1.00  0.00     0.056 C 
HETATM    6  C7  UNL     1      20.848  -0.747  53.807  1.00  0.00     0.070 A 
HETATM    7  N1  UNL     1      21.126  -1.756  54.682  1.00  0.00    -0.241 NA
HETATM    8  C8  UNL     1      22.394  -1.834  55.106  1.00  0.00     0.235 A 
HETATM    9  N2  UNL     1      23.300  -0.958  54.675  1.00  0.00    -0.224 NA
HETATM   10  C9  UNL     1      23.015   0.026  53.817  1.00  0.00     0.138 A 
HETATM   11  C16 UNL     1      21.747   0.206  53.314  1.00  0.00     0.025 A 
ENDROOT
BRANCH  10  12
HETATM   12  N3  UNL     1      24.062   0.889  53.414  1.00  0.00    -0.340 N 
HETATM   13  H12 UNL     1      23.941   1.884  53.127  1.00  0.00     0.167 HD
BRANCH  12  14
HETATM   14  C10 UNL     1      25.436   0.569  53.309  1.00  0.00     0.035 A 
HETATM   15  C11 UNL     1      25.936  -0.662  52.962  1.00  0.00     0.032 A 
HETATM   16  C12 UNL     1      27.275  -0.967  52.882  1.00  0.00     0.046 A 
HETATM   17  C13 UNL     1      28.211  -0.019  53.159  1.00  0.00     0.138 A 
HETATM   18  F1  UNL     1      29.537  -0.267  53.096  1.00  0.00    -0.204 F 
HETATM   19  C14 UNL     1      27.802   1.238  53.514  1.00  0.00     0.074 A 
HETATM   20 CL1  UNL     1      28.968   2.480  53.874  1.00  0.00    -0.081 Cl
HETATM   21  C15 UNL     1      26.463   1.482  53.575  1.00  0.00     0.056 A 
ENDBRANCH  12  14
ENDBRANCH  10  12
BRANCH   1  22
HETATM   22  C2  UNL     1      21.898   0.981  50.969  1.00  0.00     0.178 C 
BRANCH  22  23
HETATM   23  O1  UNL     1      23.075   1.516  50.488  1.00  0.00    -0.395 OA
HETATM   24  C1  UNL     1      23.170   2.895  50.538  1.00  0.00     0.201 C 
ENDBRANCH  22  23
ENDBRANCH   1  22
TORSDOF 4
ENDMDL
MODEL 2
REMARK VINA RESULT:      -7.5      2.203      2.903
REMARK  4 active torsions:
REMARK  status: ('A' for Active; 'I' for Inactive)
REMARK    1  A    between atoms: O1_2  and  C2_3 
REMARK    2  A    between atoms: C2_3  and  C3_4 
REMARK    3  A    between atoms: C9_13  and  N3_14 
REMARK    4  A    between atoms: N3_14  and  C10_15 
ROOT
HETATM    1  C3  UNL     1      23.764   3.259  51.853  1.00  0.00     0.073 C 
HETATM    2  C4  UNL     1      22.754   4.350  52.237  1.00  0.00     0.186 C 
HETATM    3  O2  UNL     1      21.474   4.112  51.700  1.00  0.00    -0.362 OA
HETATM    4  C5  UNL     1      20.486   3.282  52.265  1.00  0.00     0.137 C 
HETATM    5  C6  UNL     1      20.827   2.080  52.762  1.00  0.00     0.056 C 
HETATM    6  C7  UNL     1      22.157   1.435  52.822  1.00  0.00     0.070 A 
HETATM    7  N1  UNL     1      21.921   0.198  53.347  1.00  0.00    -0.241 NA
HETATM    8  C8  UNL     1      22.991  -0.596  53.485  1.00  0.00     0.235 A 
HETATM    9  N2  UNL     1      24.197  -0.165  53.119  1.00  0.00    -0.224 NA
HETATM   10  C9  UNL     1      24.415   1.050  52.605  1.00  0.00     0.138 A 
HETATM   11  C16 UNL     1      23.393   1.952  52.418  1.00  0.00     0.025 A 
ENDROOT
BRANCH  10  12
HETATM   12  N3  UNL     1      25.737   1.395  52.235  1.00  0.00    -0.340 N 
HETATM   13  H12 UNL     1      25.991   2.117  51.528  1.00  0.00     0.167 HD
BRANCH  12  14
HETATM   14  C10 UNL     1      26.935   0.827  52.729  1.00  0.00     0.035 A 
HETATM   15  C11 UNL     1      27.969   1.532  53.292  1.00  0.00     0.032 A 
HETATM   16  C12 UNL     1      29.138   0.970  53.751  1.00  0.00     0.046 A 
HETATM   17  C13 UNL     1      29.333  -0.373  53.663  1.00  0.00     0.138 A 
HETATM   18  F1  UNL     1      30.462  -0.974  54.098  1.00  0.00    -0.204 F 
HETATM   19  C14 UNL     1      28.352  -1.155  53.114  1.00  0.00     0.074 A 
HETATM   20 CL1  UNL     1      28.563  -2.878  52.984  1.00  0.00    -0.081 Cl
HETATM   21  C15 UNL     1      27.216  -0.544  52.677  1.00  0.00     0.056 A 
ENDBRANCH  12  14
ENDBRANCH  10  12
BRANCH   1  22
HETATM   22  C2  UNL     1      23.817   3.253  50.356  1.00  0.00     0.178 C 
BRANCH  22  23
HETATM   23  O1  UNL     1      25.079   3.161  49.805  1.00  0.00    -0.395 OA
HETATM   24  C1  UNL     1      25.764   4.356  49.679  1.00  0.00     0.201 C 
ENDBRANCH  22  23
ENDBRANCH   1  22
TORSDOF 4
ENDMDL
MODEL 3
REMARK VINA RESULT:      -7.5      1.707      3.304
REMARK  4 active torsions:
REMARK  status: ('A' for Active; 'I' for Inactive)
REMARK    1  A    between atoms: O1_2  and  C2_3 
REMARK    2  A    between atoms: C2_3  and  C3_4 
REMARK    3  A    between atoms: C9_13  and  N3_14 
REMARK    4  A    between atoms: N3_14  and  C10_15 
ROOT
HETATM    1  C3  UNL     1      21.478   0.422  52.864  1.00  0.00     0.073 C 
HETATM    2  C4  UNL     1      20.281   0.271  51.914  1.00  0.00     0.186 C 
HETATM    3  O2  UNL     1      19.298   1.256  52.124  1.00  0.00    -0.362 OA
HETATM    4  C5  UNL     1      19.305   2.555  51.581  1.00  0.00     0.137 C 
HETATM    5  C6  UNL     1      20.443   3.270  51.573  1.00  0.00     0.056 C 
HETATM    6  C7  UNL     1      21.785   2.898  52.073  1.00  0.00     0.070 A 
HETATM    7  N1  UNL     1      22.546   4.016  51.893  1.00  0.00    -0.241 NA
HETATM    8  C8  UNL     1      23.822   3.930  52.294  1.00  0.00     0.235 A 
HETATM    9  N2  UNL     1      24.280   2.801  52.832  1.00  0.00    -0.224 NA
HETATM   10  C9  UNL     1      23.523   1.713  53.005  1.00  0.00     0.138 A 
HETATM   11  C16 UNL     1      22.200   1.683  52.630  1.00  0.00     0.025 A 
ENDROOT
BRANCH  10  12
HETATM   12  N3  UNL     1      24.112   0.574  53.605  1.00  0.00    -0.340 N 
HETATM   13  H12 UNL     1      23.632  -0.066  54.272  1.00  0.00     0.167 HD
BRANCH  12  14
HETATM   14  C10 UNL     1      25.437   0.110  53.430  1.00  0.00     0.035 A 
HETATM   15  C11 UNL     1      25.798  -0.994  52.698  1.00  0.00     0.032 A 
HETATM   16  C12 UNL     1      27.089  -1.447  52.552  1.00  0.00     0.046 A 
HETATM   17  C13 UNL     1      28.116  -0.793  53.157  1.00  0.00     0.138 A 
HETATM   18  F1  UNL     1      29.401  -1.197  53.046  1.00  0.00    -0.204 F 
HETATM   19  C14 UNL     1      27.849   0.320  53.909  1.00  0.00     0.074 A 
HETATM   20 CL1  UNL     1      29.136   1.185  54.698  1.00  0.00    -0.081 Cl
HETATM   21  C15 UNL     1      26.552   0.722  54.017  1.00  0.00     0.056 A 
ENDBRANCH  12  14
ENDBRANCH  10  12
BRANCH   1  22
HETATM   22  C2  UNL     1      20.921   0.318  54.251  1.00  0.00     0.178 C 
BRANCH  22  23
HETATM   23  O1  UNL     1      21.584  -0.547  55.095  1.00  0.00    -0.395 OA
HETATM   24  C1  UNL     1      21.777  -1.827  54.609  1.00  0.00     0.201 C 
ENDBRANCH  22  23
ENDBRANCH   1  22
TORSDOF 4
ENDMDL
MODEL 4
REMARK VINA RESULT:      -7.3      2.986      4.399
REMARK  4 active torsions:
REMARK  status: ('A' for Active; 'I' for Inactive)
REMARK    1  A    between atoms: O1_2  and  C2_3 
REMARK    2  A    between atoms: C2_3  and  C3_4 
REMARK    3  A    between atoms: C9_13  and  N3_14 
REMARK    4  A    between atoms: N3_14  and  C10_15 
ROOT
HETATM    1  C3  UNL     1      21.680   1.072  52.118  1.00  0.00     0.073 C 
HETATM    2  C4  UNL     1      20.664   0.946  53.262  1.00  0.00     0.186 C 
HETATM    3  O2  UNL     1      20.498  -0.383  53.692  1.00  0.00    -0.362 OA
HETATM    4  C5  UNL     1      21.318  -1.059  54.617  1.00  0.00     0.137 C 
HETATM    5  C6  UNL     1      22.654  -0.938  54.537  1.00  0.00     0.056 C 
HETATM    6  C7  UNL     1      23.469  -0.163  53.576  1.00  0.00     0.070 A 
HETATM    7  N1  UNL     1      24.761  -0.457  53.896  1.00  0.00    -0.241 NA
HETATM    8  C8  UNL     1      25.702   0.124  53.140  1.00  0.00     0.235 A 
HETATM    9  N2  UNL     1      25.353   0.935  52.143  1.00  0.00    -0.224 NA
HETATM   10  C9  UNL     1      24.082   1.215  51.838  1.00  0.00     0.138 A 
HETATM   11  C16 UNL     1      23.031   0.678  52.546  1.00  0.00     0.025 A 
ENDROOT
BRANCH  10  12
HETATM   12  N3  UNL     1      23.828   2.077  50.745  1.00  0.00    -0.340 N 
HETATM   13  H12 UNL     1      23.183   1.867  49.954  1.00  0.00     0.167 HD
BRANCH  12  14
HETATM   14  C10 UNL     1      24.401   3.351  50.515  1.00  0.00     0.035 A 
HETATM   15  C11 UNL     1      23.882   4.542  50.958  1.00  0.00     0.032 A 
HETATM   16  C12 UNL     1      24.438   5.776  50.711  1.00  0.00     0.046 A 
HETATM   17  C13 UNL     1      25.580   5.878  49.980  1.00  0.00     0.138 A 
HETATM   18  F1  UNL     1      26.166   7.065  49.708  1.00  0.00    -0.204 F 
HETATM   19  C14 UNL     1      26.168   4.740  49.497  1.00  0.00     0.074 A 
HETATM   20 CL1  UNL     1      27.630   4.828  48.558  1.00  0.00    -0.081 Cl
HETATM   21  C15 UNL     1      25.573   3.546  49.774  1.00  0.00     0.056 A 
ENDBRANCH  12  14
ENDBRANCH  10  12
BRANCH   1  22
HETATM   22  C2  UNL     1      21.152   0.224  51.002  1.00  0.00     0.178 C 
BRANCH  22  23
HETATM   23  O1  UNL     1      21.263   0.765  49.738  1.00  0.00    -0.395 OA
HETATM   24  C1  UNL     1      20.434   1.841  49.474  1.00  0.00     0.201 C 
ENDBRANCH  22  23
ENDBRANCH   1  22
TORSDOF 4
ENDMDL
MODEL 5
REMARK VINA RESULT:      -7.3      3.670      5.597
REMARK  4 active torsions:
REMARK  status: ('A' for Active; 'I' for Inactive)
REMARK    1  A    between atoms: O1_2  and  C2_3 
REMARK    2  A    between atoms: C2_3  and  C3_4 
REMARK    3  A    between atoms: C9_13  and  N3_14 
REMARK    4  A    between atoms: N3_14  and  C10_15 
ROOT
HETATM    1  C3  UNL     1      25.936   0.500  53.101  1.00  0.00     0.073 C 
HETATM    2  C4  UNL     1      26.068  -0.826  53.863  1.00  0.00     0.186 C 
HETATM    3  O2  UNL     1      25.281  -0.859  55.029  1.00  0.00    -0.362 OA
HETATM    4  C5  UNL     1      23.914  -1.194  55.091  1.00  0.00     0.137 C 
HETATM    5  C6  UNL     1      23.064  -0.702  54.173  1.00  0.00     0.056 C 
HETATM    6  C7  UNL     1      23.338   0.193  53.028  1.00  0.00     0.070 A 
HETATM    7  N1  UNL     1      22.114   0.441  52.479  1.00  0.00    -0.241 NA
HETATM    8  C8  UNL     1      22.101   1.258  51.417  1.00  0.00     0.235 A 
HETATM    9  N2  UNL     1      23.237   1.777  50.956  1.00  0.00    -0.224 NA
HETATM   10  C9  UNL     1      24.430   1.527  51.504  1.00  0.00     0.138 A 
HETATM   11  C16 UNL     1      24.569   0.703  52.597  1.00  0.00     0.025 A 
ENDROOT
BRANCH  10  12
HETATM   12  N3  UNL     1      25.571   2.148  50.942  1.00  0.00    -0.340 N 
HETATM   13  H12 UNL     1      26.542   1.774  50.993  1.00  0.00     0.167 HD
BRANCH  12  14
HETATM   14  C10 UNL     1      25.611   3.373  50.235  1.00  0.00     0.035 A 
HETATM   15  C11 UNL     1      24.537   4.204  50.032  1.00  0.00     0.032 A 
HETATM   16  C12 UNL     1      24.585   5.384  49.326  1.00  0.00     0.046 A 
HETATM   17  C13 UNL     1      25.753   5.802  48.769  1.00  0.00     0.138 A 
HETATM   18  F1  UNL     1      25.853   6.951  48.066  1.00  0.00    -0.204 F 
HETATM   19  C14 UNL     1      26.877   5.035  48.922  1.00  0.00     0.074 A 
HETATM   20 CL1  UNL     1      28.391   5.535  48.225  1.00  0.00    -0.081 Cl
HETATM   21  C15 UNL     1      26.770   3.877  49.631  1.00  0.00     0.056 A 
ENDBRANCH  12  14
ENDBRANCH  10  12
BRANCH   1  22
HETATM   22  C2  UNL     1      26.370   1.570  54.055  1.00  0.00     0.178 C 
BRANCH  22  23
HETATM   23  O1  UNL     1      27.711   1.573  54.377  1.00  0.00    -0.395 OA
HETATM   24  C1  UNL     1      28.516   2.364  53.577  1.00  0.00     0.201 C 
ENDBRANCH  22  23
ENDBRANCH   1  22
TORSDOF 4
ENDMDL
MODEL 6
REMARK VINA RESULT:      -7.1      3.945      6.553
REMARK  4 active torsions:
REMARK  status: ('A' for Active; 'I' for Inactive)
REMARK    1  A    between atoms: O1_2  and  C2_3 
REMARK    2  A    between atoms: C2_3  and  C3_4 
REMARK    3  A    between atoms: C9_13  and  N3_14 
REMARK    4  A    between atoms: N3_14  and  C10_15 
ROOT
HETATM    1  C3  UNL     1      25.254   1.215  52.173  1.00  0.00     0.073 C 
HETATM    2  C4  UNL     1      26.742   1.168  51.798  1.00  0.00     0.186 C 
HETATM    3  O2  UNL     1      27.571   1.671  52.818  1.00  0.00    -0.362 OA
HETATM    4  C5  UNL     1      28.038   0.947  53.933  1.00  0.00     0.137 C 
HETATM    5  C6  UNL     1      27.198   0.141  54.605  1.00  0.00     0.056 C 
HETATM    6  C7  UNL     1      25.766  -0.136  54.356  1.00  0.00     0.070 A 
HETATM    7  N1  UNL     1      25.387  -0.956  55.378  1.00  0.00    -0.241 NA
HETATM    8  C8  UNL     1      24.103  -1.337  55.381  1.00  0.00     0.235 A 
HETATM    9  N2  UNL     1      23.277  -0.917  54.424  1.00  0.00    -0.224 NA
HETATM   10  C9  UNL     1      23.661  -0.112  53.428  1.00  0.00     0.138 A 
HETATM   11  C16 UNL     1      24.955   0.343  53.320  1.00  0.00     0.025 A 
ENDROOT
BRANCH  10  12
HETATM   12  N3  UNL     1      22.693   0.285  52.475  1.00  0.00    -0.340 N 
HETATM   13  H12 UNL     1      22.891   0.848  51.620  1.00  0.00     0.167 HD
BRANCH  12  14
HETATM   14  C10 UNL     1      21.305   0.015  52.509  1.00  0.00     0.035 A 
HETATM   15  C11 UNL     1      20.647  -0.613  53.537  1.00  0.00     0.032 A 
HETATM   16  C12 UNL     1      19.298  -0.887  53.550  1.00  0.00     0.046 A 
HETATM   17  C13 UNL     1      18.518  -0.534  52.494  1.00  0.00     0.138 A 
HETATM   18  F1  UNL     1      17.190  -0.781  52.456  1.00  0.00    -0.204 F 
HETATM   19  C14 UNL     1      19.091   0.098  51.423  1.00  0.00     0.074 A 
HETATM   20 CL1  UNL     1      18.126   0.568  50.052  1.00  0.00    -0.081 Cl
HETATM   21  C15 UNL     1      20.430   0.345  51.466  1.00  0.00     0.056 A 
ENDBRANCH  12  14
ENDBRANCH  10  12
BRANCH   1  22
HETATM   22  C2  UNL     1      24.940   2.655  52.440  1.00  0.00     0.178 C 
BRANCH  22  23
HETATM   23  O1  UNL     1      23.790   3.134  51.846  1.00  0.00    -0.395 OA
HETATM   24  C1  UNL     1      23.436   4.426  52.188  1.00  0.00     0.201 C 
ENDBRANCH  22  23
ENDBRANCH   1  22
TORSDOF 4
ENDMDL
MODEL 7
REMARK VINA RESULT:      -7.1      4.017      6.991
REMARK  4 active torsions:
REMARK  status: ('A' for Active; 'I' for Inactive)
REMARK    1  A    between atoms: O1_2  and  C2_3 
REMARK    2  A    between atoms: C2_3  and  C3_4 
REMARK    3  A    between atoms: C9_13  and  N3_14 
REMARK    4  A    between atoms: N3_14  and  C10_15 
ROOT
HETATM    1  C3  UNL     1      25.270   0.561  54.214  1.00  0.00     0.073 C 
HETATM    2  C4  UNL     1      26.401   0.256  55.205  1.00  0.00     0.186 C 
HETATM    3  O2  UNL     1      27.445  -0.486  54.621  1.00  0.00    -0.362 OA
HETATM    4  C5  UNL     1      28.516   0.046  53.875  1.00  0.00     0.137 C 
HETATM    5  C6  UNL     1      28.283   1.002  52.960  1.00  0.00     0.056 C 
HETATM    6  C7  UNL     1      27.003   1.637  52.574  1.00  0.00     0.070 A 
HETATM    7  N1  UNL     1      27.325   2.476  51.548  1.00  0.00    -0.241 NA
HETATM    8  C8  UNL     1      26.310   3.163  51.009  1.00  0.00     0.235 A 
HETATM    9  N2  UNL     1      25.072   3.007  51.476  1.00  0.00    -0.224 NA
HETATM   10  C9  UNL     1      24.769   2.180  52.482  1.00  0.00     0.138 A 
HETATM   11  C16 UNL     1      25.729   1.424  53.114  1.00  0.00     0.025 A 
ENDROOT
BRANCH  10  12
HETATM   12  N3  UNL     1      23.416   2.081  52.885  1.00  0.00    -0.340 N 
HETATM   13  H12 UNL     1      23.083   2.102  53.872  1.00  0.00     0.167 HD
BRANCH  12  14
HETATM   14  C10 UNL     1      22.288   1.921  52.046  1.00  0.00     0.035 A 
HETATM   15  C11 UNL     1      22.160   0.967  51.067  1.00  0.00     0.032 A 
HETATM   16  C12 UNL     1      21.066   0.834  50.244  1.00  0.00     0.046 A 
HETATM   17  C13 UNL     1      20.010   1.682  50.367  1.00  0.00     0.138 A 
HETATM   18  F1  UNL     1      18.912   1.595  49.584  1.00  0.00    -0.204 F 
HETATM   19  C14 UNL     1      20.051   2.666  51.318  1.00  0.00     0.074 A 
HETATM   20 CL1  UNL     1      18.720   3.771  51.507  1.00  0.00    -0.081 Cl
HETATM   21  C15 UNL     1      21.160   2.749  52.105  1.00  0.00     0.056 A 
ENDBRANCH  12  14
ENDBRANCH  10  12
BRANCH   1  22
HETATM   22  C2  UNL     1      24.766  -0.767  53.739  1.00  0.00     0.178 C 
BRANCH  22  23
HETATM   23  O1  UNL     1      23.394  -0.902  53.695  1.00  0.00    -0.395 OA
HETATM   24  C1  UNL     1      22.778  -1.153  54.908  1.00  0.00     0.201 C 
ENDBRANCH  22  23
ENDBRANCH   1  22
TORSDOF 4
ENDMDL
MODEL 8
REMARK VINA RESULT:      -7.0      2.208      3.958
REMARK  4 active torsions:
REMARK  status: ('A' for Active; 'I' for Inactive)
REMARK    1  A    between atoms: O1_2  and  C2_3 
REMARK    2  A    between atoms: C2_3  and  C3_4 
REMARK    3  A    between atoms: C9_13  and  N3_14 
REMARK    4  A    between atoms: N3_14  and  C10_15 
ROOT
HETATM    1  C3  UNL     1      22.070   1.017  51.088  1.00  0.00     0.073 C 
HETATM    2  C4  UNL     1      21.571   0.934  49.639  1.00  0.00     0.186 C 
HETATM    3  O2  UNL     1      20.375   1.649  49.438  1.00  0.00    -0.362 OA
HETATM    4  C5  UNL     1      20.275   3.030  49.179  1.00  0.00     0.137 C 
HETATM    5  C6  UNL     1      21.025   3.898  49.881  1.00  0.00     0.056 C 
HETATM    6  C7  UNL     1      22.006   3.631  50.955  1.00  0.00     0.070 A 
HETATM    7  N1  UNL     1      22.411   4.865  51.372  1.00  0.00    -0.241 NA
HETATM    8  C8  UNL     1      23.305   4.884  52.371  1.00  0.00     0.235 A 
HETATM    9  N2  UNL     1      23.746   3.744  52.897  1.00  0.00    -0.224 NA
HETATM   10  C9  UNL     1      23.341   2.540  52.480  1.00  0.00     0.138 A 
HETATM   11  C16 UNL     1      22.427   2.395  51.461  1.00  0.00     0.025 A 
ENDROOT
BRANCH  10  12
HETATM   12  N3  UNL     1      23.864   1.394  53.125  1.00  0.00    -0.340 N 
HETATM   13  H12 UNL     1      23.305   0.713  53.682  1.00  0.00     0.167 HD
BRANCH  12  14
HETATM   14  C10 UNL     1      25.215   0.975  53.152  1.00  0.00     0.035 A 
HETATM   15  C11 UNL     1      26.290   1.789  53.412  1.00  0.00     0.032 A 
HETATM   16  C12 UNL     1      27.602   1.374  53.416  1.00  0.00     0.046 A 
HETATM   17  C13 UNL     1      27.910   0.077  53.147  1.00  0.00     0.138 A 
HETATM   18  F1  UNL     1      29.180  -0.382  53.136  1.00  0.00    -0.204 F 
HETATM   19  C14 UNL     1      26.899  -0.806  52.875  1.00  0.00     0.074 A 
HETATM   20 CL1  UNL     1      27.252  -2.475  52.527  1.00  0.00    -0.081 Cl
HETATM   21  C15 UNL     1      25.620  -0.339  52.887  1.00  0.00     0.056 A 
ENDBRANCH  12  14
ENDBRANCH  10  12
BRANCH   1  22
HETATM   22  C2  UNL     1      20.973   0.451  51.936  1.00  0.00     0.178 C 
BRANCH  22  23
HETATM   23  O1  UNL     1      21.382  -0.343  52.988  1.00  0.00    -0.395 OA
HETATM   24  C1  UNL     1      20.732  -0.125  54.189  1.00  0.00     0.201 C 
ENDBRANCH  22  23
ENDBRANCH   1  22
TORSDOF 4
ENDMDL
MODEL 9
REMARK VINA RESULT:      -7.0      3.058      4.856
REMARK  4 active torsions:
REMARK  status: ('A' for Active; 'I' for Inactive)
REMARK    1  A    between atoms: O1_2  and  C2_3 
REMARK    2  A    between atoms: C2_3  and  C3_4 
REMARK    3  A    between atoms: C9_13  and  N3_14 
REMARK    4  A    between atoms: N3_14  and  C10_15 
ROOT
HETATM    1  C3  UNL     1      18.113  -0.236  51.491  1.00  0.00     0.073 C 
HETATM    2  C4  UNL     1      17.017  -0.092  50.426  1.00  0.00     0.186 C 
HETATM    3  O2  UNL     1      15.965   0.744  50.844  1.00  0.00    -0.362 OA
HETATM    4  C5  UNL     1      15.947   2.150  50.759  1.00  0.00     0.137 C 
HETATM    5  C6  UNL     1      17.040   2.854  51.103  1.00  0.00     0.056 C 
HETATM    6  C7  UNL     1      18.350   2.369  51.590  1.00  0.00     0.070 A 
HETATM    7  N1  UNL     1      19.060   3.501  51.865  1.00  0.00    -0.241 NA
HETATM    8  C8  UNL     1      20.297   3.317  52.345  1.00  0.00     0.235 A 
HETATM    9  N2  UNL     1      20.768   2.085  52.530  1.00  0.00    -0.224 NA
HETATM   10  C9  UNL     1      20.062   0.983  52.257  1.00  0.00     0.138 A 
HETATM   11  C16 UNL     1      18.781   1.048  51.758  1.00  0.00     0.025 A 
ENDROOT
BRANCH  10  12
HETATM   12  N3  UNL     1      20.657  -0.276  52.509  1.00  0.00    -0.340 N 
HETATM   13  H12 UNL     1      20.323  -1.184  52.122  1.00  0.00     0.167 HD
BRANCH  12  14
HETATM   14  C10 UNL     1      21.781  -0.537  53.327  1.00  0.00     0.035 A 
HETATM   15  C11 UNL     1      21.730  -1.056  54.597  1.00  0.00     0.032 A 
HETATM   16  C12 UNL     1      22.830  -1.287  55.391  1.00  0.00     0.046 A 
HETATM   17  C13 UNL     1      24.078  -0.997  54.934  1.00  0.00     0.138 A 
HETATM   18  F1  UNL     1      25.189  -1.204  55.674  1.00  0.00    -0.204 F 
HETATM   19  C14 UNL     1      24.223  -0.475  53.677  1.00  0.00     0.074 A 
HETATM   20 CL1  UNL     1      25.803  -0.091  53.055  1.00  0.00    -0.081 Cl
HETATM   21  C15 UNL     1      23.099  -0.268  52.936  1.00  0.00     0.056 A 
ENDBRANCH  12  14
ENDBRANCH  10  12
BRANCH   1  22
HETATM   22  C2  UNL     1      17.441  -0.806  52.702  1.00  0.00     0.178 C 
BRANCH  22  23
HETATM   23  O1  UNL     1      18.201  -1.682  53.449  1.00  0.00    -0.395 OA
HETATM   24  C1  UNL     1      17.664  -2.945  53.617  1.00  0.00     0.201 C 
ENDBRANCH  22  23
ENDBRANCH   1  22
TORSDOF 4
ENDMDL
