MODEL 1
REMARK VINA RESULT:      -8.7      0.000      0.000
REMARK  4 active torsions:
REMARK  status: ('A' for Active; 'I' for Inactive)
REMARK    1  A    between atoms: N1_3  and  C3_4 
REMARK    2  A    between atoms: C4_5  and  N2_6 
REMARK    3  A    between atoms: C4_5  and  C5_7 
REMARK    4  A    between atoms: C5_7  and  N3_8 
ROOT
HETATM    1  N3  UNL     1      24.478   0.419  52.485  1.00  0.00    -0.387 N 
HETATM    2  C6  UNL     1      23.253   0.868  52.080  1.00  0.00     0.034 A 
HETATM    3  C7  UNL     1      22.110   1.161  51.380  1.00  0.00     0.140 A 
HETATM    4  O1  UNL     1      22.472   1.833  50.141  1.00  0.00    -0.368 OA
HETATM    5  C8  UNL     1      22.973   3.102  50.961  1.00  0.00     0.171 C 
HETATM    6  C9  UNL     1      22.063   2.823  52.240  1.00  0.00     0.044 C 
HETATM    7  C10 UNL     1      22.439   1.543  52.996  1.00  0.00     0.100 A 
HETATM    8  C11 UNL     1      21.292   0.465  53.100  1.00  0.00    -0.035 A 
HETATM    9  C12 UNL     1      20.610  -0.357  53.975  1.00  0.00     0.009 A 
HETATM   10  C13 UNL     1      19.325  -0.722  53.524  1.00  0.00     0.013 A 
HETATM   11  C14 UNL     1      18.822  -0.270  52.291  1.00  0.00    -0.025 A 
HETATM   12  C15 UNL     1      17.586  -0.624  51.818  1.00  0.00     0.012 A 
HETATM   13  C16 UNL     1      17.164  -0.154  50.566  1.00  0.00     0.001 A 
HETATM   14  C17 UNL     1      17.981   0.672  49.787  1.00  0.00     0.001 A 
HETATM   15  C18 UNL     1      19.230   1.071  50.190  1.00  0.00     0.013 A 
HETATM   16  C19 UNL     1      19.529   0.553  51.419  1.00  0.00    -0.016 A 
HETATM   17  C20 UNL     1      20.778   0.851  51.949  1.00  0.00     0.001 A 
HETATM   18  H10 UNL     1      25.409   0.617  52.170  1.00  0.00     0.159 HD
ENDROOT
BRANCH   1  19
HETATM   19  C5  UNL     1      24.453  -0.531  53.597  1.00  0.00     0.177 C 
BRANCH  19  20
HETATM   20  C4  UNL     1      25.554  -0.434  54.531  1.00  0.00     0.038 C 
HETATM   21  C3  UNL     1      26.696   0.204  54.414  1.00  0.00     0.142 C 
BRANCH  21  22
HETATM   22  N1  UNL     1      27.949   0.599  54.892  1.00  0.00    -0.276 NA
HETATM   23  C2  UNL     1      29.083   0.188  54.454  1.00  0.00     0.085 C 
HETATM   24  C1  UNL     1      30.009  -0.609  53.574  1.00  0.00     0.057 C 
ENDBRANCH  21  22
BRANCH  20  25
HETATM   25  N2  UNL     1      25.372  -1.144  55.749  1.00  0.00    -0.400 N 
HETATM   26  H6  UNL     1      25.895  -1.448  56.603  1.00  0.00     0.156 HD
HETATM   27  H7  UNL     1      24.388  -1.498  55.859  1.00  0.00     0.156 HD
ENDBRANCH  20  25
ENDBRANCH  19  20
ENDBRANCH   1  19
TORSDOF 4
ENDMDL
MODEL 2
REMARK VINA RESULT:      -8.5      3.011      6.170
REMARK  4 active torsions:
REMARK  status: ('A' for Active; 'I' for Inactive)
REMARK    1  A    between atoms: N1_3  and  C3_4 
REMARK    2  A    between atoms: C4_5  and  N2_6 
REMARK    3  A    between atoms: C4_5  and  C5_7 
REMARK    4  A    between atoms: C5_7  and  N3_8 
ROOT
HETATM    1  N3  UNL     1      24.578   4.380  51.512  1.00  0.00    -0.387 N 
HETATM    2  C6  UNL     1      24.646   3.128  52.052  1.00  0.00     0.034 A 
HETATM    3  C7  UNL     1      24.678   2.042  52.890  1.00  0.00     0.140 A 
HETATM    4  O1  UNL     1      25.728   2.237  53.878  1.00  0.00    -0.368 OA
HETATM    5  C8  UNL     1      26.837   2.108  52.744  1.00  0.00     0.171 C 
HETATM    6  C9  UNL     1      25.933   1.254  51.747  1.00  0.00     0.044 C 
HETATM    7  C10 UNL     1      24.725   2.022  51.197  1.00  0.00     0.100 A 
HETATM    8  C11 UNL     1      23.319   1.389  51.532  1.00  0.00    -0.035 A 
HETATM    9  C12 UNL     1      22.113   1.000  50.986  1.00  0.00     0.009 A 
HETATM   10  C13 UNL     1      21.440   0.018  51.742  1.00  0.00     0.013 A 
HETATM   11  C14 UNL     1      21.981  -0.491  52.936  1.00  0.00    -0.025 A 
HETATM   12  C15 UNL     1      21.341  -1.430  53.701  1.00  0.00     0.012 A 
HETATM   13  C16 UNL     1      21.932  -1.870  54.894  1.00  0.00     0.001 A 
HETATM   14  C17 UNL     1      23.166  -1.368  55.322  1.00  0.00     0.001 A 
HETATM   15  C18 UNL     1      23.869  -0.427  54.613  1.00  0.00     0.013 A 
HETATM   16  C19 UNL     1      23.197  -0.079  53.475  1.00  0.00    -0.016 A 
HETATM   17  C20 UNL     1      23.777   0.889  52.663  1.00  0.00     0.001 A 
HETATM   18  H10 UNL     1      25.170   5.185  51.595  1.00  0.00     0.159 HD
ENDROOT
BRANCH   1  19
HETATM   19  C5  UNL     1      23.432   4.616  50.634  1.00  0.00     0.177 C 
BRANCH  19  20
HETATM   20  C4  UNL     1      22.188   4.940  51.299  1.00  0.00     0.038 C 
HETATM   21  C3  UNL     1      21.142   4.182  51.530  1.00  0.00     0.142 C 
BRANCH  21  22
HETATM   22  N1  UNL     1      19.856   3.964  52.035  1.00  0.00    -0.276 NA
HETATM   23  C2  UNL     1      19.002   3.123  51.578  1.00  0.00     0.085 C 
HETATM   24  C1  UNL     1      18.490   2.049  50.657  1.00  0.00     0.057 C 
ENDBRANCH  21  22
BRANCH  20  25
HETATM   25  N2  UNL     1      22.085   6.281  51.760  1.00  0.00    -0.400 N 
HETATM   26  H6  UNL     1      22.406   6.905  52.536  1.00  0.00     0.156 HD
HETATM   27  H7  UNL     1      21.488   6.873  51.128  1.00  0.00     0.156 HD
ENDBRANCH  20  25
ENDBRANCH  19  20
ENDBRANCH   1  19
TORSDOF 4
ENDMDL
MODEL 3
REMARK VINA RESULT:      -8.5      3.455      5.279
REMARK  4 active torsions:
REMARK  status: ('A' for Active; 'I' for Inactive)
REMARK    1  A    between atoms: N1_3  and  C3_4 
REMARK    2  A    between atoms: C4_5  and  N2_6 
REMARK    3  A    between atoms: C4_5  and  C5_7 
REMARK    4  A    between atoms: C5_7  and  N3_8 
ROOT
HETATM    1  N3  UNL     1      23.773   3.687  49.549  1.00  0.00    -0.387 N 
HETATM    2  C6  UNL     1      22.964   3.200  50.536  1.00  0.00     0.034 A 
HETATM    3  C7  UNL     1      22.000   2.551  51.264  1.00  0.00     0.140 A 
HETATM    4  O1  UNL     1      20.692   2.885  50.721  1.00  0.00    -0.368 OA
HETATM    5  C8  UNL     1      20.857   4.388  51.218  1.00  0.00     0.171 C 
HETATM    6  C9  UNL     1      21.895   4.050  52.379  1.00  0.00     0.044 C 
HETATM    7  C10 UNL     1      23.244   3.528  51.868  1.00  0.00     0.100 A 
HETATM    8  C11 UNL     1      23.637   2.085  52.367  1.00  0.00    -0.035 A 
HETATM    9  C12 UNL     1      24.648   1.340  52.941  1.00  0.00     0.009 A 
HETATM   10  C13 UNL     1      24.191   0.187  53.611  1.00  0.00     0.013 A 
HETATM   11  C14 UNL     1      22.824  -0.139  53.667  1.00  0.00    -0.025 A 
HETATM   12  C15 UNL     1      22.353  -1.264  54.292  1.00  0.00     0.012 A 
HETATM   13  C16 UNL     1      20.978  -1.536  54.282  1.00  0.00     0.001 A 
HETATM   14  C17 UNL     1      20.072  -0.681  53.644  1.00  0.00     0.001 A 
HETATM   15  C18 UNL     1      20.465   0.463  52.996  1.00  0.00     0.013 A 
HETATM   16  C19 UNL     1      21.820   0.621  53.074  1.00  0.00    -0.016 A 
HETATM   17  C20 UNL     1      22.370   1.727  52.438  1.00  0.00     0.001 A 
HETATM   18  H10 UNL     1      23.594   4.274  48.756  1.00  0.00     0.159 HD
ENDROOT
BRANCH   1  19
HETATM   19  C5  UNL     1      25.179   3.296  49.650  1.00  0.00     0.177 C 
BRANCH  19  20
HETATM   20  C4  UNL     1      26.140   4.374  49.555  1.00  0.00     0.038 C 
HETATM   21  C3  UNL     1      27.299   4.410  48.941  1.00  0.00     0.142 C 
BRANCH  21  22
HETATM   22  N1  UNL     1      28.482   5.052  48.561  1.00  0.00    -0.276 NA
HETATM   23  C2  UNL     1      28.565   6.213  48.021  1.00  0.00     0.085 C 
HETATM   24  C1  UNL     1      28.042   7.508  47.462  1.00  0.00     0.057 C 
ENDBRANCH  21  22
BRANCH  20  25
HETATM   25  N2  UNL     1      25.773   5.566  50.239  1.00  0.00    -0.400 N 
HETATM   26  H6  UNL     1      25.968   6.095  51.121  1.00  0.00     0.156 HD
HETATM   27  H7  UNL     1      25.066   6.129  49.703  1.00  0.00     0.156 HD
ENDBRANCH  20  25
ENDBRANCH  19  20
ENDBRANCH   1  19
TORSDOF 4
ENDMDL
MODEL 4
REMARK VINA RESULT:      -8.4      3.530      6.200
REMARK  4 active torsions:
REMARK  status: ('A' for Active; 'I' for Inactive)
REMARK    1  A    between atoms: N1_3  and  C3_4 
REMARK    2  A    between atoms: C4_5  and  N2_6 
REMARK    3  A    between atoms: C4_5  and  C5_7 
REMARK    4  A    between atoms: C5_7  and  N3_8 
ROOT
HETATM    1  N3  UNL     1      23.751   1.935  53.082  1.00  0.00    -0.387 N 
HETATM    2  C6  UNL     1      23.715   3.006  52.235  1.00  0.00     0.034 A 
HETATM    3  C7  UNL     1      23.740   4.257  51.672  1.00  0.00     0.140 A 
HETATM    4  O1  UNL     1      22.778   5.105  52.358  1.00  0.00    -0.368 OA
HETATM    5  C8  UNL     1      21.578   4.243  51.765  1.00  0.00     0.171 C 
HETATM    6  C9  UNL     1      22.388   3.708  50.501  1.00  0.00     0.044 C 
HETATM    7  C10 UNL     1      23.554   2.781  50.863  1.00  0.00     0.100 A 
HETATM    8  C11 UNL     1      24.976   3.279  50.395  1.00  0.00    -0.035 A 
HETATM    9  C12 UNL     1      26.130   2.900  49.737  1.00  0.00     0.009 A 
HETATM   10  C13 UNL     1      26.852   3.983  49.194  1.00  0.00     0.013 A 
HETATM   11  C14 UNL     1      26.406   5.309  49.331  1.00  0.00    -0.025 A 
HETATM   12  C15 UNL     1      27.097   6.382  48.832  1.00  0.00     0.012 A 
HETATM   13  C16 UNL     1      26.601   7.678  49.032  1.00  0.00     0.001 A 
HETATM   14  C17 UNL     1      25.412   7.901  49.734  1.00  0.00     0.001 A 
HETATM   15  C18 UNL     1      24.663   6.881  50.264  1.00  0.00     0.013 A 
HETATM   16  C19 UNL     1      25.243   5.671  50.006  1.00  0.00    -0.016 A 
HETATM   17  C20 UNL     1      24.608   4.540  50.506  1.00  0.00     0.001 A 
HETATM   18  H10 UNL     1      23.176   1.669  53.860  1.00  0.00     0.159 HD
ENDROOT
BRANCH   1  19
HETATM   19  C5  UNL     1      24.824   0.975  52.824  1.00  0.00     0.177 C 
BRANCH  19  20
HETATM   20  C4  UNL     1      26.020   1.141  53.621  1.00  0.00     0.038 C 
HETATM   21  C3  UNL     1      26.784   0.232  54.182  1.00  0.00     0.142 C 
BRANCH  21  22
HETATM   22  N1  UNL     1      27.885  -0.159  54.950  1.00  0.00    -0.276 NA
HETATM   23  C2  UNL     1      29.065  -0.396  54.505  1.00  0.00     0.085 C 
HETATM   24  C1  UNL     1      30.139  -0.517  53.458  1.00  0.00     0.057 C 
ENDBRANCH  21  22
BRANCH  20  25
HETATM   25  N2  UNL     1      26.418   2.489  53.832  1.00  0.00    -0.400 N 
HETATM   26  H6  UNL     1      26.673   3.155  54.599  1.00  0.00     0.156 HD
HETATM   27  H7  UNL     1      26.489   3.028  52.933  1.00  0.00     0.156 HD
ENDBRANCH  20  25
ENDBRANCH  19  20
ENDBRANCH   1  19
TORSDOF 4
ENDMDL
MODEL 5
REMARK VINA RESULT:      -8.4      3.145      6.686
REMARK  4 active torsions:
REMARK  status: ('A' for Active; 'I' for Inactive)
REMARK    1  A    between atoms: N1_3  and  C3_4 
REMARK    2  A    between atoms: C4_5  and  N2_6 
REMARK    3  A    between atoms: C4_5  and  C5_7 
REMARK    4  A    between atoms: C5_7  and  N3_8 
ROOT
HETATM    1  N3  UNL     1      19.450  -0.118  52.217  1.00  0.00    -0.387 N 
HETATM    2  C6  UNL     1      20.715  -0.191  52.728  1.00  0.00     0.034 A 
HETATM    3  C7  UNL     1      22.017  -0.517  53.010  1.00  0.00     0.140 A 
HETATM    4  O1  UNL     1      22.094  -1.936  53.322  1.00  0.00    -0.368 OA
HETATM    5  C8  UNL     1      21.269  -1.698  54.662  1.00  0.00     0.171 C 
HETATM    6  C9  UNL     1      21.668  -0.163  54.814  1.00  0.00     0.044 C 
HETATM    7  C10 UNL     1      21.108   0.733  53.703  1.00  0.00     0.100 A 
HETATM    8  C11 UNL     1      22.192   1.498  52.849  1.00  0.00    -0.035 A 
HETATM    9  C12 UNL     1      22.551   2.736  52.353  1.00  0.00     0.009 A 
HETATM   10  C13 UNL     1      23.929   2.857  52.078  1.00  0.00     0.013 A 
HETATM   11  C14 UNL     1      24.820   1.792  52.302  1.00  0.00    -0.025 A 
HETATM   12  C15 UNL     1      26.160   1.874  52.025  1.00  0.00     0.012 A 
HETATM   13  C16 UNL     1      26.982   0.760  52.250  1.00  0.00     0.001 A 
HETATM   14  C17 UNL     1      26.462  -0.437  52.752  1.00  0.00     0.001 A 
HETATM   15  C18 UNL     1      25.133  -0.599  53.054  1.00  0.00     0.013 A 
HETATM   16  C19 UNL     1      24.437   0.548  52.795  1.00  0.00    -0.016 A 
HETATM   17  C20 UNL     1      23.067   0.528  53.029  1.00  0.00     0.001 A 
HETATM   18  H10 UNL     1      18.687  -0.769  52.204  1.00  0.00     0.159 HD
ENDROOT
BRANCH   1  19
HETATM   19  C5  UNL     1      19.118   1.146  51.560  1.00  0.00     0.177 C 
BRANCH  19  20
HETATM   20  C4  UNL     1      19.379   1.203  50.138  1.00  0.00     0.038 C 
HETATM   21  C3  UNL     1      20.517   1.354  49.502  1.00  0.00     0.142 C 
BRANCH  21  22
HETATM   22  N1  UNL     1      21.279   1.474  48.336  1.00  0.00    -0.276 NA
HETATM   23  C2  UNL     1      22.322   2.206  48.192  1.00  0.00     0.085 C 
HETATM   24  C1  UNL     1      23.387   3.179  48.622  1.00  0.00     0.057 C 
ENDBRANCH  21  22
BRANCH  20  25
HETATM   25  N2  UNL     1      18.228   1.085  49.312  1.00  0.00    -0.400 N 
HETATM   26  H6  UNL     1      17.191   0.952  49.369  1.00  0.00     0.156 HD
HETATM   27  H7  UNL     1      18.465   1.149  48.290  1.00  0.00     0.156 HD
ENDBRANCH  20  25
ENDBRANCH  19  20
ENDBRANCH   1  19
TORSDOF 4
ENDMDL
MODEL 6
REMARK VINA RESULT:      -8.4      3.408      6.487
REMARK  4 active torsions:
REMARK  status: ('A' for Active; 'I' for Inactive)
REMARK    1  A    between atoms: N1_3  and  C3_4 
REMARK    2  A    between atoms: C4_5  and  N2_6 
REMARK    3  A    between atoms: C4_5  and  C5_7 
REMARK    4  A    between atoms: C5_7  and  N3_8 
ROOT
HETATM    1  N3  UNL     1      25.284   4.119  51.568  1.00  0.00    -0.387 N 
HETATM    2  C6  UNL     1      25.137   2.860  52.078  1.00  0.00     0.034 A 
HETATM    3  C7  UNL     1      24.981   1.764  52.889  1.00  0.00     0.140 A 
HETATM    4  O1  UNL     1      26.042   1.757  53.884  1.00  0.00    -0.368 OA
HETATM    5  C8  UNL     1      27.121   1.471  52.750  1.00  0.00     0.171 C 
HETATM    6  C9  UNL     1      26.093   0.804  51.730  1.00  0.00     0.044 C 
HETATM    7  C10 UNL     1      25.035   1.777  51.196  1.00  0.00     0.100 A 
HETATM    8  C11 UNL     1      23.541   1.382  51.512  1.00  0.00    -0.035 A 
HETATM    9  C12 UNL     1      22.290   1.214  50.952  1.00  0.00     0.009 A 
HETATM   10  C13 UNL     1      21.457   0.341  51.682  1.00  0.00     0.013 A 
HETATM   11  C14 UNL     1      21.897  -0.280  52.864  1.00  0.00    -0.025 A 
HETATM   12  C15 UNL     1      21.103  -1.116  53.605  1.00  0.00     0.012 A 
HETATM   13  C16 UNL     1      21.604  -1.677  54.788  1.00  0.00     0.001 A 
HETATM   14  C17 UNL     1      22.902  -1.401  55.231  1.00  0.00     0.001 A 
HETATM   15  C18 UNL     1      23.757  -0.574  54.547  1.00  0.00     0.013 A 
HETATM   16  C19 UNL     1      23.161  -0.091  53.417  1.00  0.00    -0.016 A 
HETATM   17  C20 UNL     1      23.900   0.785  52.631  1.00  0.00     0.001 A 
HETATM   18  H10 UNL     1      26.002   4.811  51.672  1.00  0.00     0.159 HD
ENDROOT
BRANCH   1  19
HETATM   19  C5  UNL     1      24.199   4.565  50.694  1.00  0.00     0.177 C 
BRANCH  19  20
HETATM   20  C4  UNL     1      23.539   5.791  51.087  1.00  0.00     0.038 C 
HETATM   21  C3  UNL     1      22.357   6.249  50.749  1.00  0.00     0.142 C 
BRANCH  21  22
HETATM   22  N1  UNL     1      21.341   7.209  50.792  1.00  0.00    -0.276 NA
HETATM   23  C2  UNL     1      21.258   8.248  50.044  1.00  0.00     0.085 C 
HETATM   24  C1  UNL     1      21.691   9.199  48.961  1.00  0.00     0.057 C 
ENDBRANCH  21  22
BRANCH  20  25
HETATM   25  N2  UNL     1      24.291   6.623  51.962  1.00  0.00    -0.400 N 
HETATM   26  H6  UNL     1      24.175   7.416  52.635  1.00  0.00     0.156 HD
HETATM   27  H7  UNL     1      25.315   6.388  51.950  1.00  0.00     0.156 HD
ENDBRANCH  20  25
ENDBRANCH  19  20
ENDBRANCH   1  19
TORSDOF 4
ENDMDL
MODEL 7
REMARK VINA RESULT:      -8.1      5.034      7.982
REMARK  4 active torsions:
REMARK  status: ('A' for Active; 'I' for Inactive)
REMARK    1  A    between atoms: N1_3  and  C3_4 
REMARK    2  A    between atoms: C4_5  and  N2_6 
REMARK    3  A    between atoms: C4_5  and  C5_7 
REMARK    4  A    between atoms: C5_7  and  N3_8 
ROOT
HETATM    1  N3  UNL     1      25.035   3.383  51.454  1.00  0.00    -0.387 N 
HETATM    2  C6  UNL     1      25.001   4.541  50.730  1.00  0.00     0.034 A 
HETATM    3  C7  UNL     1      24.977   5.849  50.316  1.00  0.00     0.140 A 
HETATM    4  O1  UNL     1      23.866   6.531  50.961  1.00  0.00    -0.368 OA
HETATM    5  C8  UNL     1      22.829   5.656  50.128  1.00  0.00     0.171 C 
HETATM    6  C9  UNL     1      23.830   5.341  48.928  1.00  0.00     0.044 C 
HETATM    7  C10 UNL     1      25.025   4.471  49.333  1.00  0.00     0.100 A 
HETATM    8  C11 UNL     1      26.440   5.130  49.108  1.00  0.00    -0.035 A 
HETATM    9  C12 UNL     1      27.694   4.924  48.566  1.00  0.00     0.009 A 
HETATM   10  C13 UNL     1      28.373   6.116  48.241  1.00  0.00     0.013 A 
HETATM   11  C14 UNL     1      27.793   7.378  48.464  1.00  0.00    -0.025 A 
HETATM   12  C15 UNL     1      28.436   8.553  48.178  1.00  0.00     0.012 A 
HETATM   13  C16 UNL     1      27.803   9.773  48.453  1.00  0.00     0.001 A 
HETATM   14  C17 UNL     1      26.524   9.817  49.017  1.00  0.00     0.001 A 
HETATM   15  C18 UNL     1      25.814   8.686  49.332  1.00  0.00     0.013 A 
HETATM   16  C19 UNL     1      26.530   7.565  49.020  1.00  0.00    -0.016 A 
HETATM   17  C20 UNL     1      25.948   6.336  49.308  1.00  0.00     0.001 A 
HETATM   18  H10 UNL     1      24.399   2.982  52.117  1.00  0.00     0.159 HD
ENDROOT
BRANCH   1  19
HETATM   19  C5  UNL     1      26.214   2.547  51.232  1.00  0.00     0.177 C 
BRANCH  19  20
HETATM   20  C4  UNL     1      26.552   1.639  52.307  1.00  0.00     0.038 C 
HETATM   21  C3  UNL     1      27.475   1.747  53.234  1.00  0.00     0.142 C 
BRANCH  21  22
HETATM   22  N1  UNL     1      28.170   1.276  54.352  1.00  0.00    -0.276 NA
HETATM   23  C2  UNL     1      28.992   0.291  54.365  1.00  0.00     0.085 C 
HETATM   24  C1  UNL     1      29.780  -0.848  53.777  1.00  0.00     0.057 C 
ENDBRANCH  21  22
BRANCH  20  25
HETATM   25  N2  UNL     1      25.772   0.451  52.356  1.00  0.00    -0.400 N 
HETATM   26  H6  UNL     1      25.630  -0.454  51.851  1.00  0.00     0.156 HD
HETATM   27  H7  UNL     1      25.098   0.453  53.163  1.00  0.00     0.156 HD
ENDBRANCH  20  25
ENDBRANCH  19  20
ENDBRANCH   1  19
TORSDOF 4
ENDMDL
MODEL 8
REMARK VINA RESULT:      -8.0      2.901      5.100
REMARK  4 active torsions:
REMARK  status: ('A' for Active; 'I' for Inactive)
REMARK    1  A    between atoms: N1_3  and  C3_4 
REMARK    2  A    between atoms: C4_5  and  N2_6 
REMARK    3  A    between atoms: C4_5  and  C5_7 
REMARK    4  A    between atoms: C5_7  and  N3_8 
ROOT
HETATM    1  N3  UNL     1      23.763   2.059  53.438  1.00  0.00    -0.387 N 
HETATM    2  C6  UNL     1      22.742   1.170  53.264  1.00  0.00     0.034 A 
HETATM    3  C7  UNL     1      21.571   0.458  53.342  1.00  0.00     0.140 A 
HETATM    4  O1  UNL     1      21.389  -0.005  54.709  1.00  0.00    -0.368 OA
HETATM    5  C8  UNL     1      22.635  -0.983  54.558  1.00  0.00     0.171 C 
HETATM    6  C9  UNL     1      22.544  -1.097  52.970  1.00  0.00     0.044 C 
HETATM    7  C10 UNL     1      22.835   0.220  52.240  1.00  0.00     0.100 A 
HETATM    8  C11 UNL     1      21.659   0.760  51.338  1.00  0.00    -0.035 A 
HETATM    9  C12 UNL     1      21.347   1.239  50.082  1.00  0.00     0.009 A 
HETATM   10  C13 UNL     1      19.990   1.075  49.734  1.00  0.00     0.013 A 
HETATM   11  C14 UNL     1      19.073   0.473  50.613  1.00  0.00    -0.025 A 
HETATM   12  C15 UNL     1      17.745   0.318  50.311  1.00  0.00     0.012 A 
HETATM   13  C16 UNL     1      16.886  -0.268  51.251  1.00  0.00     0.001 A 
HETATM   14  C17 UNL     1      17.356  -0.699  52.496  1.00  0.00     0.001 A 
HETATM   15  C18 UNL     1      18.669  -0.579  52.874  1.00  0.00     0.013 A 
HETATM   16  C19 UNL     1      19.406   0.003  51.881  1.00  0.00    -0.016 A 
HETATM   17  C20 UNL     1      20.757   0.214  52.130  1.00  0.00     0.001 A 
HETATM   18  H10 UNL     1      24.372   2.246  54.213  1.00  0.00     0.159 HD
ENDROOT
BRANCH   1  19
HETATM   19  C5  UNL     1      24.047   2.912  52.285  1.00  0.00     0.177 C 
BRANCH  19  20
HETATM   20  C4  UNL     1      23.366   4.189  52.264  1.00  0.00     0.038 C 
HETATM   21  C3  UNL     1      22.316   4.566  51.572  1.00  0.00     0.142 C 
BRANCH  21  22
HETATM   22  N1  UNL     1      21.360   5.510  51.185  1.00  0.00    -0.276 NA
HETATM   23  C2  UNL     1      21.604   6.701  50.774  1.00  0.00     0.085 C 
HETATM   24  C1  UNL     1      22.469   7.875  50.402  1.00  0.00     0.057 C 
ENDBRANCH  21  22
BRANCH  20  25
HETATM   25  N2  UNL     1      23.926   5.181  53.115  1.00  0.00    -0.400 N 
HETATM   26  H6  UNL     1      24.688   5.898  53.142  1.00  0.00     0.156 HD
HETATM   27  H7  UNL     1      23.428   5.239  54.039  1.00  0.00     0.156 HD
ENDBRANCH  20  25
ENDBRANCH  19  20
ENDBRANCH   1  19
TORSDOF 4
ENDMDL
MODEL 9
REMARK VINA RESULT:      -7.9      3.025      4.558
REMARK  4 active torsions:
REMARK  status: ('A' for Active; 'I' for Inactive)
REMARK    1  A    between atoms: N1_3  and  C3_4 
REMARK    2  A    between atoms: C4_5  and  N2_6 
REMARK    3  A    between atoms: C4_5  and  C5_7 
REMARK    4  A    between atoms: C5_7  and  N3_8 
ROOT
HETATM    1  N3  UNL     1      23.025   2.691  52.765  1.00  0.00    -0.387 N 
HETATM    2  C6  UNL     1      22.203   1.600  52.801  1.00  0.00     0.034 A 
HETATM    3  C7  UNL     1      21.259   0.658  53.122  1.00  0.00     0.140 A 
HETATM    4  O1  UNL     1      21.493   0.196  54.481  1.00  0.00    -0.368 OA
HETATM    5  C8  UNL     1      22.851  -0.498  54.025  1.00  0.00     0.171 C 
HETATM    6  C9  UNL     1      22.429  -0.662  52.496  1.00  0.00     0.044 C 
HETATM    7  C10 UNL     1      22.260   0.671  51.756  1.00  0.00     0.100 A 
HETATM    8  C11 UNL     1      20.823   0.928  51.159  1.00  0.00    -0.035 A 
HETATM    9  C12 UNL     1      20.140   1.304  50.020  1.00  0.00     0.009 A 
HETATM   10  C13 UNL     1      18.807   0.847  49.983  1.00  0.00     0.013 A 
HETATM   11  C14 UNL     1      18.261   0.083  51.030  1.00  0.00    -0.025 A 
HETATM   12  C15 UNL     1      16.964  -0.357  51.032  1.00  0.00     0.012 A 
HETATM   13  C16 UNL     1      16.484  -1.092  52.125  1.00  0.00     0.001 A 
HETATM   14  C17 UNL     1      17.304  -1.387  53.219  1.00  0.00     0.001 A 
HETATM   15  C18 UNL     1      18.613  -0.982  53.293  1.00  0.00     0.013 A 
HETATM   16  C19 UNL     1      18.965  -0.279  52.176  1.00  0.00    -0.016 A 
HETATM   17  C20 UNL     1      20.260   0.221  52.119  1.00  0.00     0.001 A 
HETATM   18  H10 UNL     1      23.740   3.019  53.386  1.00  0.00     0.159 HD
ENDROOT
BRANCH   1  19
HETATM   19  C5  UNL     1      22.852   3.560  51.601  1.00  0.00     0.177 C 
BRANCH  19  20
HETATM   20  C4  UNL     1      23.732   4.706  51.536  1.00  0.00     0.038 C 
HETATM   21  C3  UNL     1      24.439   5.162  50.529  1.00  0.00     0.142 C 
BRANCH  21  22
HETATM   22  N1  UNL     1      25.333   6.069  49.952  1.00  0.00    -0.276 NA
HETATM   23  C2  UNL     1      26.397   5.764  49.302  1.00  0.00     0.085 C 
HETATM   24  C1  UNL     1      27.418   4.841  48.695  1.00  0.00     0.057 C 
ENDBRANCH  21  22
BRANCH  20  25
HETATM   25  N2  UNL     1      23.853   5.439  52.749  1.00  0.00    -0.400 N 
HETATM   26  H6  UNL     1      23.490   6.297  53.225  1.00  0.00     0.156 HD
HETATM   27  H7  UNL     1      24.534   4.993  53.415  1.00  0.00     0.156 HD
ENDBRANCH  20  25
ENDBRANCH  19  20
ENDBRANCH   1  19
TORSDOF 4
ENDMDL
