MODEL 1
REMARK VINA RESULT:      -9.0      0.000      0.000
REMARK  2 active torsions:
REMARK  status: ('A' for Active; 'I' for Inactive)
REMARK    1  A    between atoms: C3_3  and  C5_5 
REMARK    2  A    between atoms: C6_6  and  C7_7 
ROOT
HETATM    1  C7  UNL     1      22.888  -0.459  53.708  1.00  0.00     0.004 C 
HETATM    2  C8  UNL     1      24.095  -0.051  53.421  1.00  0.00    -0.021 C 
HETATM    3  C9  UNL     1      24.190   1.031  52.377  1.00  0.00     0.187 C 
HETATM    4  N1  UNL     1      24.826   2.083  52.980  1.00  0.00    -0.283 NA
HETATM    5  C10 UNL     1      25.228   3.067  52.233  1.00  0.00     0.085 C 
HETATM    6  C11 UNL     1      26.142   2.653  51.362  1.00  0.00     0.107 C 
HETATM    7  C12 UNL     1      26.571   1.246  51.582  1.00  0.00     0.246 C 
HETATM    8  O1  UNL     1      26.557   0.064  51.148  1.00  0.00    -0.268 OA
HETATM    9  N2  UNL     1      27.350   1.147  52.812  1.00  0.00    -0.336 N 
HETATM   10  C13 UNL     1      27.746   2.363  53.437  1.00  0.00     0.131 C 
HETATM   11  C14 UNL     1      29.194   2.434  53.829  1.00  0.00     0.047 C 
HETATM   12  C15 UNL     1      29.919   1.159  53.665  1.00  0.00    -0.027 C 
HETATM   13  C16 UNL     1      29.273   0.031  53.536  1.00  0.00     0.000 C 
HETATM   14  C17 UNL     1      27.761   0.005  53.552  1.00  0.00     0.053 C 
HETATM   15  C18 UNL     1      27.384   0.120  55.010  1.00  0.00     0.039 C 
HETATM   16  C19 UNL     1      25.893   0.137  55.127  1.00  0.00     0.051 C 
HETATM   17  C20 UNL     1      25.132  -0.785  54.244  1.00  0.00     0.129 C 
HETATM   18  F1  UNL     1      24.410  -1.601  55.148  1.00  0.00    -0.238 F 
HETATM   19  C21 UNL     1      25.917  -1.736  53.420  1.00  0.00     0.051 C 
HETATM   20  C22 UNL     1      27.322  -1.340  53.104  1.00  0.00     0.039 C 
ENDROOT
BRANCH   1  21
HETATM   21  C6  UNL     1      21.502  -0.236  53.364  1.00  0.00    -0.016 C 
HETATM   22  C5  UNL     1      20.496   0.063  52.599  1.00  0.00     0.048 C 
BRANCH  22  23
HETATM   23  C3  UNL     1      19.934   0.456  51.334  1.00  0.00    -0.079 C 
HETATM   24  C2  UNL     1      18.708  -0.073  51.551  1.00  0.00    -0.028 C 
HETATM   25  C1  UNL     1      17.927  -0.814  52.559  1.00  0.00     0.036 C 
HETATM   26  C4  UNL     1      20.100   1.132  50.001  1.00  0.00     0.044 C 
ENDBRANCH  22  23
ENDBRANCH   1  21
TORSDOF 2
ENDMDL
MODEL 2
REMARK VINA RESULT:      -8.8      3.112      7.176
REMARK  2 active torsions:
REMARK  status: ('A' for Active; 'I' for Inactive)
REMARK    1  A    between atoms: C3_3  and  C5_5 
REMARK    2  A    between atoms: C6_6  and  C7_7 
ROOT
HETATM    1  C7  UNL     1      25.016   0.813  52.114  1.00  0.00     0.004 C 
HETATM    2  C8  UNL     1      24.525   1.892  51.565  1.00  0.00    -0.021 C 
HETATM    3  C9  UNL     1      25.519   2.980  51.255  1.00  0.00     0.187 C 
HETATM    4  N1  UNL     1      25.428   3.201  49.906  1.00  0.00    -0.283 NA
HETATM    5  C10 UNL     1      26.026   4.244  49.414  1.00  0.00     0.085 C 
HETATM    6  C11 UNL     1      25.510   5.361  49.914  1.00  0.00     0.107 C 
HETATM    7  C12 UNL     1      24.306   5.130  50.754  1.00  0.00     0.246 C 
HETATM    8  O1  UNL     1      23.815   5.150  51.914  1.00  0.00    -0.268 OA
HETATM    9  N2  UNL     1      23.187   4.703  49.919  1.00  0.00    -0.336 N 
HETATM   10  C13 UNL     1      23.349   4.795  48.507  1.00  0.00     0.131 C 
HETATM   11  C14 UNL     1      22.211   5.448  47.778  1.00  0.00     0.047 C 
HETATM   12  C15 UNL     1      21.035   5.718  48.628  1.00  0.00    -0.027 C 
HETATM   13  C16 UNL     1      20.892   5.125  49.784  1.00  0.00     0.000 C 
HETATM   14  C17 UNL     1      21.931   4.144  50.279  1.00  0.00     0.053 C 
HETATM   15  C18 UNL     1      21.651   2.866  49.524  1.00  0.00     0.039 C 
HETATM   16  C19 UNL     1      22.659   1.835  49.925  1.00  0.00     0.051 C 
HETATM   17  C20 UNL     1      23.030   1.771  51.362  1.00  0.00     0.129 C 
HETATM   18  F1  UNL     1      22.688   0.451  51.741  1.00  0.00    -0.238 F 
HETATM   19  C21 UNL     1      22.275   2.641  52.296  1.00  0.00     0.051 C 
HETATM   20  C22 UNL     1      21.650   3.863  51.710  1.00  0.00     0.039 C 
ENDROOT
BRANCH   1  21
HETATM   21  C6  UNL     1      26.261   0.237  52.569  1.00  0.00    -0.016 C 
HETATM   22  C5  UNL     1      27.460   0.228  53.070  1.00  0.00     0.048 C 
BRANCH  22  23
HETATM   23  C3  UNL     1      28.610   0.892  53.624  1.00  0.00    -0.079 C 
HETATM   24  C2  UNL     1      29.403  -0.203  53.660  1.00  0.00    -0.028 C 
HETATM   25  C1  UNL     1      29.409  -1.642  53.339  1.00  0.00     0.036 C 
HETATM   26  C4  UNL     1      29.253   2.152  54.136  1.00  0.00     0.044 C 
ENDBRANCH  22  23
ENDBRANCH   1  21
TORSDOF 2
ENDMDL
MODEL 3
REMARK VINA RESULT:      -8.7      2.294      7.033
REMARK  2 active torsions:
REMARK  status: ('A' for Active; 'I' for Inactive)
REMARK    1  A    between atoms: C3_3  and  C5_5 
REMARK    2  A    between atoms: C6_6  and  C7_7 
ROOT
HETATM    1  C7  UNL     1      24.460   0.027  53.071  1.00  0.00     0.004 C 
HETATM    2  C8  UNL     1      23.692   0.903  52.479  1.00  0.00    -0.021 C 
HETATM    3  C9  UNL     1      24.375   2.158  52.005  1.00  0.00     0.187 C 
HETATM    4  N1  UNL     1      24.155   2.221  50.654  1.00  0.00    -0.283 NA
HETATM    5  C10 UNL     1      24.454   3.323  50.035  1.00  0.00     0.085 C 
HETATM    6  C11 UNL     1      23.714   4.331  50.484  1.00  0.00     0.107 C 
HETATM    7  C12 UNL     1      22.652   3.906  51.434  1.00  0.00     0.246 C 
HETATM    8  O1  UNL     1      22.241   3.921  52.624  1.00  0.00    -0.268 OA
HETATM    9  N2  UNL     1      21.623   3.149  50.727  1.00  0.00    -0.336 N 
HETATM   10  C13 UNL     1      21.675   3.141  49.304  1.00  0.00     0.131 C 
HETATM   11  C14 UNL     1      20.372   3.435  48.619  1.00  0.00     0.047 C 
HETATM   12  C15 UNL     1      19.218   3.503  49.536  1.00  0.00    -0.027 C 
HETATM   13  C16 UNL     1      19.289   3.007  50.744  1.00  0.00     0.000 C 
HETATM   14  C17 UNL     1      20.561   2.349  51.230  1.00  0.00     0.053 C 
HETATM   15  C18 UNL     1      20.554   0.975  50.604  1.00  0.00     0.039 C 
HETATM   16  C19 UNL     1      21.802   0.252  51.003  1.00  0.00     0.051 C 
HETATM   17  C20 UNL     1      22.261   0.416  52.407  1.00  0.00     0.129 C 
HETATM   18  F1  UNL     1      22.269  -0.905  52.916  1.00  0.00    -0.238 F 
HETATM   19  C21 UNL     1      21.375   1.170  53.326  1.00  0.00     0.051 C 
HETATM   20  C22 UNL     1      20.441   2.150  52.696  1.00  0.00     0.039 C 
ENDROOT
BRANCH   1  21
HETATM   21  C6  UNL     1      25.831  -0.195  53.470  1.00  0.00    -0.016 C 
HETATM   22  C5  UNL     1      27.080   0.104  53.666  1.00  0.00     0.048 C 
BRANCH  22  23
HETATM   23  C3  UNL     1      28.190   1.019  53.623  1.00  0.00    -0.079 C 
HETATM   24  C2  UNL     1      29.152   0.074  53.519  1.00  0.00    -0.028 C 
HETATM   25  C1  UNL     1      29.338  -1.387  53.449  1.00  0.00     0.036 C 
HETATM   26  C4  UNL     1      28.698   2.435  53.644  1.00  0.00     0.044 C 
ENDBRANCH  22  23
ENDBRANCH   1  21
TORSDOF 2
ENDMDL
MODEL 4
REMARK VINA RESULT:      -8.6      2.826      7.472
REMARK  2 active torsions:
REMARK  status: ('A' for Active; 'I' for Inactive)
REMARK    1  A    between atoms: C3_3  and  C5_5 
REMARK    2  A    between atoms: C6_6  and  C7_7 
ROOT
HETATM    1  C7  UNL     1      25.690   2.373  51.754  1.00  0.00     0.004 C 
HETATM    2  C8  UNL     1      24.411   2.357  51.486  1.00  0.00    -0.021 C 
HETATM    3  C9  UNL     1      23.664   1.127  51.930  1.00  0.00     0.187 C 
HETATM    4  N1  UNL     1      22.680   1.567  52.775  1.00  0.00    -0.283 NA
HETATM    5  C10 UNL     1      21.755   0.728  53.129  1.00  0.00     0.085 C 
HETATM    6  C11 UNL     1      21.055   0.326  52.073  1.00  0.00     0.107 C 
HETATM    7  C12 UNL     1      21.401   1.055  50.824  1.00  0.00     0.246 C 
HETATM    8  O1  UNL     1      21.935   0.991  49.685  1.00  0.00    -0.268 OA
HETATM    9  N2  UNL     1      20.938   2.437  50.907  1.00  0.00    -0.336 N 
HETATM   10  C13 UNL     1      20.084   2.779  51.993  1.00  0.00     0.131 C 
HETATM   11  C14 UNL     1      18.852   3.549  51.614  1.00  0.00     0.047 C 
HETATM   12  C15 UNL     1      18.829   3.979  50.202  1.00  0.00    -0.027 C 
HETATM   13  C16 UNL     1      19.921   3.989  49.485  1.00  0.00     0.000 C 
HETATM   14  C17 UNL     1      21.240   3.558  50.087  1.00  0.00     0.053 C 
HETATM   15  C18 UNL     1      21.699   4.741  50.906  1.00  0.00     0.039 C 
HETATM   16  C19 UNL     1      22.993   4.396  51.575  1.00  0.00     0.051 C 
HETATM   17  C20 UNL     1      23.983   3.625  50.779  1.00  0.00     0.129 C 
HETATM   18  F1  UNL     1      25.124   4.465  50.756  1.00  0.00    -0.238 F 
HETATM   19  C21 UNL     1      23.664   3.381  49.352  1.00  0.00     0.051 C 
HETATM   20  C22 UNL     1      22.218   3.401  48.981  1.00  0.00     0.039 C 
ENDROOT
BRANCH   1  21
HETATM   21  C6  UNL     1      26.731   1.581  52.369  1.00  0.00    -0.016 C 
HETATM   22  C5  UNL     1      27.357   0.498  52.718  1.00  0.00     0.048 C 
BRANCH  22  23
HETATM   23  C3  UNL     1      27.495  -0.933  52.757  1.00  0.00    -0.079 C 
HETATM   24  C2  UNL     1      28.753  -0.943  53.255  1.00  0.00    -0.028 C 
HETATM   25  C1  UNL     1      29.833  -0.040  53.693  1.00  0.00     0.036 C 
HETATM   26  C4  UNL     1      26.907  -2.295  52.508  1.00  0.00     0.044 C 
ENDBRANCH  22  23
ENDBRANCH   1  21
TORSDOF 2
ENDMDL
MODEL 5
REMARK VINA RESULT:      -8.4      4.048      8.002
REMARK  2 active torsions:
REMARK  status: ('A' for Active; 'I' for Inactive)
REMARK    1  A    between atoms: C3_3  and  C5_5 
REMARK    2  A    between atoms: C6_6  and  C7_7 
ROOT
HETATM    1  C7  UNL     1      25.914   3.754  50.150  1.00  0.00     0.004 C 
HETATM    2  C8  UNL     1      24.631   3.518  50.223  1.00  0.00    -0.021 C 
HETATM    3  C9  UNL     1      23.839   3.814  48.977  1.00  0.00     0.187 C 
HETATM    4  N1  UNL     1      23.237   2.636  48.623  1.00  0.00    -0.283 NA
HETATM    5  C10 UNL     1      22.320   2.667  47.704  1.00  0.00     0.085 C 
HETATM    6  C11 UNL     1      21.284   3.401  48.097  1.00  0.00     0.107 C 
HETATM    7  C12 UNL     1      21.378   3.841  49.514  1.00  0.00     0.246 C 
HETATM    8  O1  UNL     1      21.537   4.807  50.305  1.00  0.00    -0.268 OA
HETATM    9  N2  UNL     1      21.212   2.696  50.405  1.00  0.00    -0.336 N 
HETATM   10  C13 UNL     1      20.784   1.469  49.824  1.00  0.00     0.131 C 
HETATM   11  C14 UNL     1      19.653   0.788  50.538  1.00  0.00     0.047 C 
HETATM   12  C15 UNL     1      19.298   1.414  51.826  1.00  0.00    -0.027 C 
HETATM   13  C16 UNL     1      20.119   2.240  52.420  1.00  0.00     0.000 C 
HETATM   14  C17 UNL     1      21.457   2.573  51.800  1.00  0.00     0.053 C 
HETATM   15  C18 UNL     1      22.337   1.385  52.109  1.00  0.00     0.039 C 
HETATM   16  C19 UNL     1      23.686   1.608  51.500  1.00  0.00     0.051 C 
HETATM   17  C20 UNL     1      24.250   2.980  51.585  1.00  0.00     0.129 C 
HETATM   18  F1  UNL     1      25.464   2.803  52.291  1.00  0.00    -0.238 F 
HETATM   19  C21 UNL     1      23.492   3.977  52.379  1.00  0.00     0.051 C 
HETATM   20  C22 UNL     1      22.028   3.728  52.537  1.00  0.00     0.039 C 
ENDROOT
BRANCH   1  21
HETATM   21  C6  UNL     1      26.930   4.232  49.241  1.00  0.00    -0.016 C 
HETATM   22  C5  UNL     1      27.589   5.105  48.538  1.00  0.00     0.048 C 
BRANCH  22  23
HETATM   23  C3  UNL     1      27.825   6.447  48.078  1.00  0.00    -0.079 C 
HETATM   24  C2  UNL     1      29.154   6.297  47.874  1.00  0.00    -0.028 C 
HETATM   25  C1  UNL     1      30.237   5.302  47.978  1.00  0.00     0.036 C 
HETATM   26  C4  UNL     1      27.290   7.816  47.755  1.00  0.00     0.044 C 
ENDBRANCH  22  23
ENDBRANCH   1  21
TORSDOF 2
ENDMDL
MODEL 6
REMARK VINA RESULT:      -8.3      8.027     10.374
REMARK  2 active torsions:
REMARK  status: ('A' for Active; 'I' for Inactive)
REMARK    1  A    between atoms: C3_3  and  C5_5 
REMARK    2  A    between atoms: C6_6  and  C7_7 
ROOT
HETATM    1  C7  UNL     1      28.258   5.963  48.239  1.00  0.00     0.004 C 
HETATM    2  C8  UNL     1      29.403   6.584  48.140  1.00  0.00    -0.021 C 
HETATM    3  C9  UNL     1      30.588   5.870  48.735  1.00  0.00     0.187 C 
HETATM    4  N1  UNL     1      31.483   5.707  47.711  1.00  0.00    -0.283 NA
HETATM    5  C10 UNL     1      32.685   5.311  48.004  1.00  0.00     0.085 C 
HETATM    6  C11 UNL     1      33.301   6.205  48.771  1.00  0.00     0.107 C 
HETATM    7  C12 UNL     1      32.528   7.463  48.946  1.00  0.00     0.246 C 
HETATM    8  O1  UNL     1      31.874   8.192  49.738  1.00  0.00    -0.268 OA
HETATM    9  N2  UNL     1      32.495   8.208  47.691  1.00  0.00    -0.336 N 
HETATM   10  C13 UNL     1      33.342   7.760  46.639  1.00  0.00     0.131 C 
HETATM   11  C14 UNL     1      34.156   8.834  45.977  1.00  0.00     0.047 C 
HETATM   12  C15 UNL     1      33.803  10.201  46.409  1.00  0.00    -0.027 C 
HETATM   13  C16 UNL     1      32.673  10.441  47.021  1.00  0.00     0.000 C 
HETATM   14  C17 UNL     1      31.698   9.319  47.302  1.00  0.00     0.053 C 
HETATM   15  C18 UNL     1      30.999   9.071  45.987  1.00  0.00     0.039 C 
HETATM   16  C19 UNL     1      30.029   7.945  46.158  1.00  0.00     0.051 C 
HETATM   17  C20 UNL     1      29.249   7.907  47.422  1.00  0.00     0.129 C 
HETATM   18  F1  UNL     1      27.901   7.964  46.989  1.00  0.00    -0.238 F 
HETATM   19  C21 UNL     1      29.398   9.057  48.346  1.00  0.00     0.051 C 
HETATM   20  C22 UNL     1      30.670   9.833  48.241  1.00  0.00     0.039 C 
ENDROOT
BRANCH   1  21
HETATM   21  C6  UNL     1      27.666   4.747  48.748  1.00  0.00    -0.016 C 
HETATM   22  C5  UNL     1      26.718   3.972  49.183  1.00  0.00     0.048 C 
BRANCH  22  23
HETATM   23  C3  UNL     1      25.345   3.716  49.530  1.00  0.00    -0.079 C 
HETATM   24  C2  UNL     1      25.612   2.942  50.607  1.00  0.00    -0.028 C 
HETATM   25  C1  UNL     1      26.734   2.388  51.387  1.00  0.00     0.036 C 
HETATM   26  C4  UNL     1      23.882   3.913  49.245  1.00  0.00     0.044 C 
ENDBRANCH  22  23
ENDBRANCH   1  21
TORSDOF 2
ENDMDL
MODEL 7
REMARK VINA RESULT:      -8.2      7.990     10.120
REMARK  2 active torsions:
REMARK  status: ('A' for Active; 'I' for Inactive)
REMARK    1  A    between atoms: C3_3  and  C5_5 
REMARK    2  A    between atoms: C6_6  and  C7_7 
ROOT
HETATM    1  C7  UNL     1      28.603   5.481  48.471  1.00  0.00     0.004 C 
HETATM    2  C8  UNL     1      29.005   6.686  48.168  1.00  0.00    -0.021 C 
HETATM    3  C9  UNL     1      27.918   7.709  47.973  1.00  0.00     0.187 C 
HETATM    4  N1  UNL     1      28.167   8.704  48.881  1.00  0.00    -0.283 NA
HETATM    5  C10 UNL     1      27.500   9.813  48.775  1.00  0.00     0.085 C 
HETATM    6  C11 UNL     1      27.771  10.416  47.622  1.00  0.00     0.107 C 
HETATM    7  C12 UNL     1      28.864   9.760  46.856  1.00  0.00     0.246 C 
HETATM    8  O1  UNL     1      29.175   9.090  45.837  1.00  0.00    -0.268 OA
HETATM    9  N2  UNL     1      30.140   9.959  47.536  1.00  0.00    -0.336 N 
HETATM   10  C13 UNL     1      30.170  10.881  48.620  1.00  0.00     0.131 C 
HETATM   11  C14 UNL     1      31.293  11.876  48.578  1.00  0.00     0.047 C 
HETATM   12  C15 UNL     1      32.283  11.613  47.516  1.00  0.00    -0.027 C 
HETATM   13  C16 UNL     1      32.345  10.446  46.930  1.00  0.00     0.000 C 
HETATM   14  C17 UNL     1      31.400   9.335  47.328  1.00  0.00     0.053 C 
HETATM   15  C18 UNL     1      31.968   8.783  48.614  1.00  0.00     0.039 C 
HETATM   16  C19 UNL     1      31.075   7.689  49.110  1.00  0.00     0.051 C 
HETATM   17  C20 UNL     1      30.515   6.758  48.096  1.00  0.00     0.129 C 
HETATM   18  F1  UNL     1      30.989   5.488  48.506  1.00  0.00    -0.238 F 
HETATM   19  C21 UNL     1      30.994   6.908  46.701  1.00  0.00     0.051 C 
HETATM   20  C22 UNL     1      31.512   8.255  46.316  1.00  0.00     0.039 C 
ENDROOT
BRANCH   1  21
HETATM   21  C6  UNL     1      27.403   4.709  48.704  1.00  0.00    -0.016 C 
HETATM   22  C5  UNL     1      26.616   3.887  49.331  1.00  0.00     0.048 C 
BRANCH  22  23
HETATM   23  C3  UNL     1      26.314   3.001  50.423  1.00  0.00    -0.079 C 
HETATM   24  C2  UNL     1      24.977   2.974  50.220  1.00  0.00    -0.028 C 
HETATM   25  C1  UNL     1      23.928   3.512  49.335  1.00  0.00     0.036 C 
HETATM   26  C4  UNL     1      26.791   2.172  51.585  1.00  0.00     0.044 C 
ENDBRANCH  22  23
ENDBRANCH   1  21
TORSDOF 2
ENDMDL
MODEL 8
REMARK VINA RESULT:      -8.2      4.728      8.755
REMARK  2 active torsions:
REMARK  status: ('A' for Active; 'I' for Inactive)
REMARK    1  A    between atoms: C3_3  and  C5_5 
REMARK    2  A    between atoms: C6_6  and  C7_7 
ROOT
HETATM    1  C7  UNL     1      26.927   4.717  48.960  1.00  0.00     0.004 C 
HETATM    2  C8  UNL     1      25.754   4.821  49.524  1.00  0.00    -0.021 C 
HETATM    3  C9  UNL     1      25.247   6.224  49.730  1.00  0.00     0.187 C 
HETATM    4  N1  UNL     1      24.057   6.299  49.056  1.00  0.00    -0.283 NA
HETATM    5  C10 UNL     1      23.305   7.339  49.253  1.00  0.00     0.085 C 
HETATM    6  C11 UNL     1      22.911   7.402  50.520  1.00  0.00     0.107 C 
HETATM    7  C12 UNL     1      23.289   6.203  51.315  1.00  0.00     0.246 C 
HETATM    8  O1  UNL     1      24.011   5.740  52.237  1.00  0.00    -0.268 OA
HETATM    9  N2  UNL     1      22.511   5.047  50.878  1.00  0.00    -0.336 N 
HETATM   10  C13 UNL     1      21.426   5.285  49.988  1.00  0.00     0.131 C 
HETATM   11  C14 UNL     1      20.134   4.623  50.370  1.00  0.00     0.047 C 
HETATM   12  C15 UNL     1      20.255   3.690  51.507  1.00  0.00    -0.027 C 
HETATM   13  C16 UNL     1      21.423   3.239  51.883  1.00  0.00     0.000 C 
HETATM   14  C17 UNL     1      22.681   3.665  51.160  1.00  0.00     0.053 C 
HETATM   15  C18 UNL     1      22.705   2.837  49.898  1.00  0.00     0.039 C 
HETATM   16  C19 UNL     1      23.907   3.215  49.091  1.00  0.00     0.051 C 
HETATM   17  C20 UNL     1      25.172   3.458  49.832  1.00  0.00     0.129 C 
HETATM   18  F1  UNL     1      26.073   2.513  49.283  1.00  0.00    -0.238 F 
HETATM   19  C21 UNL     1      25.170   3.176  51.288  1.00  0.00     0.051 C 
HETATM   20  C22 UNL     1      23.844   3.232  51.975  1.00  0.00     0.039 C 
ENDROOT
BRANCH   1  21
HETATM   21  C6  UNL     1      28.002   5.519  48.418  1.00  0.00    -0.016 C 
HETATM   22  C5  UNL     1      29.216   5.792  48.047  1.00  0.00     0.048 C 
BRANCH  22  23
HETATM   23  C3  UNL     1      30.601   5.444  47.877  1.00  0.00    -0.079 C 
HETATM   24  C2  UNL     1      31.102   6.600  48.368  1.00  0.00    -0.028 C 
HETATM   25  C1  UNL     1      30.684   7.896  48.934  1.00  0.00     0.036 C 
HETATM   26  C4  UNL     1      31.638   4.449  47.431  1.00  0.00     0.044 C 
ENDBRANCH  22  23
ENDBRANCH   1  21
TORSDOF 2
ENDMDL
MODEL 9
REMARK VINA RESULT:      -7.9      4.444      8.106
REMARK  2 active torsions:
REMARK  status: ('A' for Active; 'I' for Inactive)
REMARK    1  A    between atoms: C3_3  and  C5_5 
REMARK    2  A    between atoms: C6_6  and  C7_7 
ROOT
HETATM    1  C7  UNL     1      24.525   4.006  50.174  1.00  0.00     0.004 C 
HETATM    2  C8  UNL     1      23.312   3.611  50.457  1.00  0.00    -0.021 C 
HETATM    3  C9  UNL     1      22.230   4.643  50.281  1.00  0.00     0.187 C 
HETATM    4  N1  UNL     1      21.346   4.113  49.378  1.00  0.00    -0.283 NA
HETATM    5  C10 UNL     1      20.205   4.710  49.214  1.00  0.00     0.085 C 
HETATM    6  C11 UNL     1      19.497   4.691  50.338  1.00  0.00     0.107 C 
HETATM    7  C12 UNL     1      20.115   3.865  51.409  1.00  0.00     0.246 C 
HETATM    8  O1  UNL     1      20.689   3.858  52.530  1.00  0.00    -0.268 OA
HETATM    9  N2  UNL     1      20.042   2.450  51.055  1.00  0.00    -0.336 N 
HETATM   10  C13 UNL     1      19.240   2.095  49.934  1.00  0.00     0.131 C 
HETATM   11  C14 UNL     1      18.294   0.952  50.167  1.00  0.00     0.047 C 
HETATM   12  C15 UNL     1      18.486   0.273  51.462  1.00  0.00    -0.027 C 
HETATM   13  C16 UNL     1      19.587   0.434  52.148  1.00  0.00     0.000 C 
HETATM   14  C17 UNL     1      20.694   1.324  51.627  1.00  0.00     0.053 C 
HETATM   15  C18 UNL     1      21.400   0.496  50.580  1.00  0.00     0.039 C 
HETATM   16  C19 UNL     1      22.500   1.312  49.977  1.00  0.00     0.051 C 
HETATM   17  C20 UNL     1      23.297   2.163  50.898  1.00  0.00     0.129 C 
HETATM   18  F1  UNL     1      24.621   1.689  50.736  1.00  0.00    -0.238 F 
HETATM   19  C21 UNL     1      23.023   2.032  52.350  1.00  0.00     0.051 C 
HETATM   20  C22 UNL     1      21.666   1.536  52.729  1.00  0.00     0.039 C 
ENDROOT
BRANCH   1  21
HETATM   21  C6  UNL     1      25.266   5.160  49.718  1.00  0.00    -0.016 C 
HETATM   22  C5  UNL     1      26.250   5.806  49.170  1.00  0.00     0.048 C 
BRANCH  22  23
HETATM   23  C3  UNL     1      27.529   5.853  48.511  1.00  0.00    -0.079 C 
HETATM   24  C2  UNL     1      27.310   7.016  47.857  1.00  0.00    -0.028 C 
HETATM   25  C1  UNL     1      26.294   8.068  47.670  1.00  0.00     0.036 C 
HETATM   26  C4  UNL     1      28.874   5.230  48.255  1.00  0.00     0.044 C 
ENDBRANCH  22  23
ENDBRANCH   1  21
TORSDOF 2
ENDMDL
