MODEL 1
REMARK VINA RESULT:      -7.3      0.000      0.000
REMARK  4 active torsions:
REMARK  status: ('A' for Active; 'I' for Inactive)
REMARK    1  A    between atoms: O1_2  and  C2_3 
REMARK    2  A    between atoms: C6_9  and  N3_10 
REMARK    3  A    between atoms: N3_10  and  C7_11 
REMARK    4  A    between atoms: C14_18  and  O2_19 
ROOT
HETATM    1  C2  UNL     1      25.580   0.260  53.931  1.00  0.00     0.103 A 
HETATM    2  C3  UNL     1      24.427   0.216  53.189  1.00  0.00     0.072 A 
HETATM    3  C4  UNL     1      24.301   1.168  52.203  1.00  0.00     0.075 A 
HETATM    4  N1  UNL     1      23.170   1.137  51.466  1.00  0.00    -0.241 NA
HETATM    5  C5  UNL     1      23.045   2.071  50.494  1.00  0.00     0.235 A 
HETATM    6  N2  UNL     1      24.008   3.010  50.258  1.00  0.00    -0.224 NA
HETATM    7  C6  UNL     1      25.129   3.070  50.962  1.00  0.00     0.138 A 
HETATM    8  C12 UNL     1      25.269   2.122  51.955  1.00  0.00     0.041 A 
HETATM    9  C13 UNL     1      26.398   2.112  52.730  1.00  0.00     0.057 A 
HETATM   10  C14 UNL     1      26.605   1.188  53.745  1.00  0.00     0.102 A 
ENDROOT
BRANCH   7  11
HETATM   11  N3  UNL     1      26.095   4.060  50.679  1.00  0.00    -0.363 N 
HETATM   12  H6  UNL     1      26.754   4.524  51.302  1.00  0.00     0.162 HD
BRANCH  11  13
HETATM   13  C7  UNL     1      26.170   4.491  49.280  1.00  0.00     0.129 A 
HETATM   14  C8  UNL     1      25.879   5.966  49.268  1.00  0.00     0.002 A 
HETATM   15  C9  UNL     1      26.931   6.625  48.803  1.00  0.00    -0.002 A 
HETATM   16  C10 UNL     1      28.012   5.704  48.461  1.00  0.00    -0.002 A 
HETATM   17  C11 UNL     1      27.541   4.481  48.748  1.00  0.00     0.002 A 
ENDBRANCH  11  13
ENDBRANCH   7  11
BRANCH  10  18
HETATM   18  O2  UNL     1      27.714   1.132  54.551  1.00  0.00    -0.353 OA
HETATM   19  C15 UNL     1      28.954   0.681  54.107  1.00  0.00     0.210 C 
ENDBRANCH  10  18
BRANCH   1  20
HETATM   20  O1  UNL     1      25.742  -0.682  54.932  1.00  0.00    -0.353 OA
HETATM   21  C1  UNL     1      24.723  -1.147  55.758  1.00  0.00     0.210 C 
ENDBRANCH   1  20
TORSDOF 4
ENDMDL
MODEL 2
REMARK VINA RESULT:      -7.2      3.696      5.725
REMARK  4 active torsions:
REMARK  status: ('A' for Active; 'I' for Inactive)
REMARK    1  A    between atoms: O1_2  and  C2_3 
REMARK    2  A    between atoms: C6_9  and  N3_10 
REMARK    3  A    between atoms: N3_10  and  C7_11 
REMARK    4  A    between atoms: C14_18  and  O2_19 
ROOT
HETATM    1  C2  UNL     1      21.626   0.716  52.254  1.00  0.00     0.103 A 
HETATM    2  C3  UNL     1      21.448  -0.025  53.395  1.00  0.00     0.072 A 
HETATM    3  C4  UNL     1      22.593  -0.440  54.036  1.00  0.00     0.075 A 
HETATM    4  N1  UNL     1      22.431  -1.171  55.160  1.00  0.00    -0.241 NA
HETATM    5  C5  UNL     1      23.556  -1.579  55.793  1.00  0.00     0.235 A 
HETATM    6  N2  UNL     1      24.804  -1.276  55.330  1.00  0.00    -0.224 NA
HETATM    7  C6  UNL     1      24.999  -0.562  54.231  1.00  0.00     0.138 A 
HETATM    8  C12 UNL     1      23.860  -0.139  53.576  1.00  0.00     0.041 A 
HETATM    9  C13 UNL     1      23.971   0.604  52.432  1.00  0.00     0.057 A 
HETATM   10  C14 UNL     1      22.869   1.063  51.724  1.00  0.00     0.102 A 
ENDROOT
BRANCH   7  11
HETATM   11  N3  UNL     1      26.309  -0.274  53.792  1.00  0.00    -0.363 N 
HETATM   12  H6  UNL     1      26.845  -0.681  53.027  1.00  0.00     0.162 HD
BRANCH  11  13
HETATM   13  C7  UNL     1      27.015   0.767  54.545  1.00  0.00     0.129 A 
HETATM   14  C8  UNL     1      28.439   0.304  54.689  1.00  0.00     0.002 A 
HETATM   15  C9  UNL     1      29.251   1.161  54.088  1.00  0.00    -0.002 A 
HETATM   16  C10 UNL     1      28.497   2.260  53.491  1.00  0.00    -0.002 A 
HETATM   17  C11 UNL     1      27.210   2.003  53.771  1.00  0.00     0.002 A 
ENDBRANCH  11  13
ENDBRANCH   7  11
BRANCH  10  18
HETATM   18  O2  UNL     1      22.921   1.810  50.573  1.00  0.00    -0.353 OA
HETATM   19  C15 UNL     1      23.348   3.136  50.546  1.00  0.00     0.210 C 
ENDBRANCH  10  18
BRANCH   1  20
HETATM   20  O1  UNL     1      20.497   1.151  51.581  1.00  0.00    -0.353 OA
HETATM   21  C1  UNL     1      19.705   2.226  51.972  1.00  0.00     0.210 C 
ENDBRANCH   1  20
TORSDOF 4
ENDMDL
MODEL 3
REMARK VINA RESULT:      -7.0      2.432      3.606
REMARK  4 active torsions:
REMARK  status: ('A' for Active; 'I' for Inactive)
REMARK    1  A    between atoms: O1_2  and  C2_3 
REMARK    2  A    between atoms: C6_9  and  N3_10 
REMARK    3  A    between atoms: N3_10  and  C7_11 
REMARK    4  A    between atoms: C14_18  and  O2_19 
ROOT
HETATM    1  C2  UNL     1      22.504   0.198  53.262  1.00  0.00     0.103 A 
HETATM    2  C3  UNL     1      23.718  -0.441  53.306  1.00  0.00     0.072 A 
HETATM    3  C4  UNL     1      24.795   0.266  52.820  1.00  0.00     0.075 A 
HETATM    4  N1  UNL     1      25.996  -0.350  52.856  1.00  0.00    -0.241 NA
HETATM    5  C5  UNL     1      27.056   0.343  52.379  1.00  0.00     0.235 A 
HETATM    6  N2  UNL     1      26.934   1.609  51.881  1.00  0.00    -0.224 NA
HETATM    7  C6  UNL     1      25.773   2.243  51.831  1.00  0.00     0.138 A 
HETATM    8  C12 UNL     1      24.684   1.546  52.314  1.00  0.00     0.041 A 
HETATM    9  C13 UNL     1      23.444   2.129  52.299  1.00  0.00     0.057 A 
HETATM   10  C14 UNL     1      22.307   1.487  52.769  1.00  0.00     0.102 A 
ENDROOT
BRANCH   7  11
HETATM   11  N3  UNL     1      25.698   3.552  51.307  1.00  0.00    -0.363 N 
HETATM   12  H6  UNL     1      25.647   4.446  51.791  1.00  0.00     0.162 HD
BRANCH  11  13
HETATM   13  C7  UNL     1      25.692   3.649  49.844  1.00  0.00     0.129 A 
HETATM   14  C8  UNL     1      24.769   4.783  49.492  1.00  0.00     0.002 A 
HETATM   15  C9  UNL     1      25.446   5.730  48.860  1.00  0.00    -0.002 A 
HETATM   16  C10 UNL     1      26.851   5.358  48.718  1.00  0.00    -0.002 A 
HETATM   17  C11 UNL     1      26.960   4.153  49.296  1.00  0.00     0.002 A 
ENDBRANCH  11  13
ENDBRANCH   7  11
BRANCH  10  18
HETATM   18  O2  UNL     1      21.042   2.021  52.778  1.00  0.00    -0.353 OA
HETATM   19  C15 UNL     1      20.756   3.304  52.317  1.00  0.00     0.210 C 
ENDBRANCH  10  18
BRANCH   1  20
HETATM   20  O1  UNL     1      21.398  -0.483  53.743  1.00  0.00    -0.353 OA
HETATM   21  C1  UNL     1      21.448  -1.660  54.481  1.00  0.00     0.210 C 
ENDBRANCH   1  20
TORSDOF 4
ENDMDL
MODEL 4
REMARK VINA RESULT:      -7.0      1.832      2.169
REMARK  4 active torsions:
REMARK  status: ('A' for Active; 'I' for Inactive)
REMARK    1  A    between atoms: O1_2  and  C2_3 
REMARK    2  A    between atoms: C6_9  and  N3_10 
REMARK    3  A    between atoms: N3_10  and  C7_11 
REMARK    4  A    between atoms: C14_18  and  O2_19 
ROOT
HETATM    1  C2  UNL     1      23.230   0.216  53.207  1.00  0.00     0.103 A 
HETATM    2  C3  UNL     1      22.138   1.025  53.015  1.00  0.00     0.072 A 
HETATM    3  C4  UNL     1      22.381   2.249  52.433  1.00  0.00     0.075 A 
HETATM    4  N1  UNL     1      21.316   3.055  52.239  1.00  0.00    -0.241 NA
HETATM    5  C5  UNL     1      21.553   4.258  51.666  1.00  0.00     0.235 A 
HETATM    6  N2  UNL     1      22.807   4.654  51.297  1.00  0.00    -0.224 NA
HETATM    7  C6  UNL     1      23.874   3.890  51.473  1.00  0.00     0.138 A 
HETATM    8  C12 UNL     1      23.645   2.659  52.056  1.00  0.00     0.041 A 
HETATM    9  C13 UNL     1      24.693   1.806  52.274  1.00  0.00     0.057 A 
HETATM   10  C14 UNL     1      24.536   0.555  52.854  1.00  0.00     0.102 A 
ENDROOT
BRANCH   7  11
HETATM   11  N3  UNL     1      25.149   4.344  51.073  1.00  0.00    -0.363 N 
HETATM   12  H6  UNL     1      25.921   4.696  51.636  1.00  0.00     0.162 HD
BRANCH  11  13
HETATM   13  C7  UNL     1      25.412   4.307  49.631  1.00  0.00     0.129 A 
HETATM   14  C8  UNL     1      25.581   5.734  49.187  1.00  0.00     0.002 A 
HETATM   15  C9  UNL     1      26.801   5.909  48.703  1.00  0.00    -0.002 A 
HETATM   16  C10 UNL     1      27.568   4.667  48.762  1.00  0.00    -0.002 A 
HETATM   17  C11 UNL     1      26.738   3.762  49.303  1.00  0.00     0.002 A 
ENDBRANCH  11  13
ENDBRANCH   7  11
BRANCH  10  18
HETATM   18  O2  UNL     1      25.548  -0.339  53.097  1.00  0.00    -0.353 OA
HETATM   19  C15 UNL     1      26.649  -0.487  52.255  1.00  0.00     0.210 C 
ENDBRANCH  10  18
BRANCH   1  20
HETATM   20  O1  UNL     1      23.023  -1.022  53.790  1.00  0.00    -0.353 OA
HETATM   21  C1  UNL     1      22.010  -1.315  54.697  1.00  0.00     0.210 C 
ENDBRANCH   1  20
TORSDOF 4
ENDMDL
MODEL 5
REMARK VINA RESULT:      -6.9      1.838      4.804
REMARK  4 active torsions:
REMARK  status: ('A' for Active; 'I' for Inactive)
REMARK    1  A    between atoms: O1_2  and  C2_3 
REMARK    2  A    between atoms: C6_9  and  N3_10 
REMARK    3  A    between atoms: N3_10  and  C7_11 
REMARK    4  A    between atoms: C14_18  and  O2_19 
ROOT
HETATM    1  C2  UNL     1      27.152   0.109  53.719  1.00  0.00     0.103 A 
HETATM    2  C3  UNL     1      27.558   1.007  52.765  1.00  0.00     0.072 A 
HETATM    3  C4  UNL     1      26.559   1.654  52.074  1.00  0.00     0.075 A 
HETATM    4  N1  UNL     1      26.945   2.540  51.131  1.00  0.00    -0.241 NA
HETATM    5  C5  UNL     1      25.964   3.179  50.451  1.00  0.00     0.235 A 
HETATM    6  N2  UNL     1      24.640   2.949  50.694  1.00  0.00    -0.224 NA
HETATM    7  C6  UNL     1      24.226   2.087  51.611  1.00  0.00     0.138 A 
HETATM    8  C12 UNL     1      25.217   1.430  52.312  1.00  0.00     0.041 A 
HETATM    9  C13 UNL     1      24.877   0.521  53.279  1.00  0.00     0.057 A 
HETATM   10  C14 UNL     1      25.820  -0.175  54.022  1.00  0.00     0.102 A 
ENDROOT
BRANCH   7  11
HETATM   11  N3  UNL     1      22.846   1.884  51.827  1.00  0.00    -0.363 N 
HETATM   12  H6  UNL     1      22.210   2.355  52.467  1.00  0.00     0.162 HD
BRANCH  11  13
HETATM   13  C7  UNL     1      22.224   0.839  51.008  1.00  0.00     0.129 A 
HETATM   14  C8  UNL     1      21.125   0.237  51.840  1.00  0.00     0.002 A 
HETATM   15  C9  UNL     1      19.958   0.429  51.244  1.00  0.00    -0.002 A 
HETATM   16  C10 UNL     1      20.128   1.155  49.989  1.00  0.00    -0.002 A 
HETATM   17  C11 UNL     1      21.446   1.377  49.882  1.00  0.00     0.002 A 
ENDBRANCH  11  13
ENDBRANCH   7  11
BRANCH  10  18
HETATM   18  O2  UNL     1      25.537  -1.095  55.000  1.00  0.00    -0.353 OA
HETATM   19  C15 UNL     1      24.261  -1.269  55.532  1.00  0.00     0.210 C 
ENDBRANCH  10  18
BRANCH   1  20
HETATM   20  O1  UNL     1      28.129  -0.562  54.435  1.00  0.00    -0.353 OA
HETATM   21  C1  UNL     1      29.437  -0.758  54.003  1.00  0.00     0.210 C 
ENDBRANCH   1  20
TORSDOF 4
ENDMDL
MODEL 6
REMARK VINA RESULT:      -6.9      2.461      5.379
REMARK  4 active torsions:
REMARK  status: ('A' for Active; 'I' for Inactive)
REMARK    1  A    between atoms: O1_2  and  C2_3 
REMARK    2  A    between atoms: C6_9  and  N3_10 
REMARK    3  A    between atoms: N3_10  and  C7_11 
REMARK    4  A    between atoms: C14_18  and  O2_19 
ROOT
HETATM    1  C2  UNL     1      27.284   0.753  53.327  1.00  0.00     0.103 A 
HETATM    2  C3  UNL     1      26.767  -0.134  54.237  1.00  0.00     0.072 A 
HETATM    3  C4  UNL     1      25.398  -0.273  54.242  1.00  0.00     0.075 A 
HETATM    4  N1  UNL     1      24.876  -1.142  55.133  1.00  0.00    -0.241 NA
HETATM    5  C5  UNL     1      23.529  -1.281  55.139  1.00  0.00     0.235 A 
HETATM    6  N2  UNL     1      22.721  -0.580  54.290  1.00  0.00    -0.224 NA
HETATM    7  C6  UNL     1      23.198   0.281  53.404  1.00  0.00     0.138 A 
HETATM    8  C12 UNL     1      24.571   0.430  53.388  1.00  0.00     0.041 A 
HETATM    9  C13 UNL     1      25.148   1.301  52.502  1.00  0.00     0.057 A 
HETATM   10  C14 UNL     1      26.520   1.501  52.431  1.00  0.00     0.102 A 
ENDROOT
BRANCH   7  11
HETATM   11  N3  UNL     1      22.322   0.981  52.547  1.00  0.00    -0.363 N 
HETATM   12  H6  UNL     1      22.124   1.978  52.491  1.00  0.00     0.162 HD
BRANCH  11  13
HETATM   13  C7  UNL     1      21.580   0.156  51.589  1.00  0.00     0.129 A 
HETATM   14  C8  UNL     1      20.123   0.303  51.933  1.00  0.00     0.002 A 
HETATM   15  C9  UNL     1      19.476   0.845  50.912  1.00  0.00    -0.002 A 
HETATM   16  C10 UNL     1      20.387   1.116  49.803  1.00  0.00    -0.002 A 
HETATM   17  C11 UNL     1      21.593   0.708  50.225  1.00  0.00     0.002 A 
ENDBRANCH  11  13
ENDBRANCH   7  11
BRANCH  10  18
HETATM   18  O2  UNL     1      27.152   2.359  51.566  1.00  0.00    -0.353 OA
HETATM   19  C15 UNL     1      26.493   3.008  50.524  1.00  0.00     0.210 C 
ENDBRANCH  10  18
BRANCH   1  20
HETATM   20  O1  UNL     1      28.658   0.919  53.293  1.00  0.00    -0.353 OA
HETATM   21  C1  UNL     1      29.582  -0.008  53.764  1.00  0.00     0.210 C 
ENDBRANCH   1  20
TORSDOF 4
ENDMDL
MODEL 7
REMARK VINA RESULT:      -6.8      2.246      6.106
REMARK  4 active torsions:
REMARK  status: ('A' for Active; 'I' for Inactive)
REMARK    1  A    between atoms: O1_2  and  C2_3 
REMARK    2  A    between atoms: C6_9  and  N3_10 
REMARK    3  A    between atoms: N3_10  and  C7_11 
REMARK    4  A    between atoms: C14_18  and  O2_19 
ROOT
HETATM    1  C2  UNL     1      26.191   3.333  50.036  1.00  0.00     0.103 A 
HETATM    2  C3  UNL     1      25.014   3.500  49.350  1.00  0.00     0.072 A 
HETATM    3  C4  UNL     1      23.879   3.018  49.962  1.00  0.00     0.075 A 
HETATM    4  N1  UNL     1      22.714   3.176  49.299  1.00  0.00    -0.241 NA
HETATM    5  C5  UNL     1      21.597   2.703  49.899  1.00  0.00     0.235 A 
HETATM    6  N2  UNL     1      21.628   2.093  51.120  1.00  0.00    -0.224 NA
HETATM    7  C6  UNL     1      22.753   1.922  51.799  1.00  0.00     0.138 A 
HETATM    8  C12 UNL     1      23.900   2.399  51.197  1.00  0.00     0.041 A 
HETATM    9  C13 UNL     1      25.106   2.264  51.831  1.00  0.00     0.057 A 
HETATM   10  C14 UNL     1      26.297   2.721  51.285  1.00  0.00     0.102 A 
ENDROOT
BRANCH   7  11
HETATM   11  N3  UNL     1      22.734   1.284  53.059  1.00  0.00    -0.363 N 
HETATM   12  H6  UNL     1      22.755   1.687  53.993  1.00  0.00     0.162 HD
BRANCH  11  13
HETATM   13  C7  UNL     1      22.677  -0.180  53.027  1.00  0.00     0.129 A 
HETATM   14  C8  UNL     1      23.508  -0.669  54.181  1.00  0.00     0.002 A 
HETATM   15  C9  UNL     1      22.745  -1.349  55.024  1.00  0.00    -0.002 A 
HETATM   16  C10 UNL     1      21.363  -1.395  54.554  1.00  0.00    -0.002 A 
HETATM   17  C11 UNL     1      21.357  -0.711  53.400  1.00  0.00     0.002 A 
ENDBRANCH  11  13
ENDBRANCH   7  11
BRANCH  10  18
HETATM   18  O2  UNL     1      27.532   2.611  51.874  1.00  0.00    -0.353 OA
HETATM   19  C15 UNL     1      27.737   1.977  53.097  1.00  0.00     0.210 C 
ENDBRANCH  10  18
BRANCH   1  20
HETATM   20  O1  UNL     1      27.353   3.805  49.452  1.00  0.00    -0.353 OA
HETATM   21  C1  UNL     1      27.445   4.964  48.687  1.00  0.00     0.210 C 
ENDBRANCH   1  20
TORSDOF 4
ENDMDL
MODEL 8
REMARK VINA RESULT:      -6.7      3.708      6.198
REMARK  4 active torsions:
REMARK  status: ('A' for Active; 'I' for Inactive)
REMARK    1  A    between atoms: O1_2  and  C2_3 
REMARK    2  A    between atoms: C6_9  and  N3_10 
REMARK    3  A    between atoms: N3_10  and  C7_11 
REMARK    4  A    between atoms: C14_18  and  O2_19 
ROOT
HETATM    1  C2  UNL     1      21.041   3.108  52.137  1.00  0.00     0.103 A 
HETATM    2  C3  UNL     1      20.538   2.034  52.828  1.00  0.00     0.072 A 
HETATM    3  C4  UNL     1      21.445   1.062  53.184  1.00  0.00     0.075 A 
HETATM    4  N1  UNL     1      20.963  -0.001  53.864  1.00  0.00    -0.241 NA
HETATM    5  C5  UNL     1      21.853  -0.958  54.216  1.00  0.00     0.235 A 
HETATM    6  N2  UNL     1      23.180  -0.870  53.906  1.00  0.00    -0.224 NA
HETATM    7  C6  UNL     1      23.686   0.158  53.241  1.00  0.00     0.138 A 
HETATM    8  C12 UNL     1      22.789   1.141  52.876  1.00  0.00     0.041 A 
HETATM    9  C13 UNL     1      23.228   2.239  52.186  1.00  0.00     0.057 A 
HETATM   10  C14 UNL     1      22.382   3.265  51.788  1.00  0.00     0.102 A 
ENDROOT
BRANCH   7  11
HETATM   11  N3  UNL     1      25.065   0.204  52.944  1.00  0.00    -0.363 N 
HETATM   12  H6  UNL     1      25.561   0.737  52.232  1.00  0.00     0.162 HD
BRANCH  11  13
HETATM   13  C7  UNL     1      25.922  -0.639  53.783  1.00  0.00     0.129 A 
HETATM   14  C8  UNL     1      27.042  -1.125  52.904  1.00  0.00     0.002 A 
HETATM   15  C9  UNL     1      28.200  -0.683  53.371  1.00  0.00    -0.002 A 
HETATM   16  C10 UNL     1      28.004   0.121  54.574  1.00  0.00    -0.002 A 
HETATM   17  C11 UNL     1      26.679   0.128  54.785  1.00  0.00     0.002 A 
ENDBRANCH  11  13
ENDBRANCH   7  11
BRANCH  10  18
HETATM   18  O2  UNL     1      22.767   4.385  51.095  1.00  0.00    -0.353 OA
HETATM   19  C15 UNL     1      23.564   5.385  51.649  1.00  0.00     0.210 C 
ENDBRANCH  10  18
BRANCH   1  20
HETATM   20  O1  UNL     1      20.159   4.107  51.762  1.00  0.00    -0.353 OA
HETATM   21  C1  UNL     1      19.196   3.983  50.766  1.00  0.00     0.210 C 
ENDBRANCH   1  20
TORSDOF 4
ENDMDL
MODEL 9
REMARK VINA RESULT:      -6.7      2.949      5.738
REMARK  4 active torsions:
REMARK  status: ('A' for Active; 'I' for Inactive)
REMARK    1  A    between atoms: O1_2  and  C2_3 
REMARK    2  A    between atoms: C6_9  and  N3_10 
REMARK    3  A    between atoms: N3_10  and  C7_11 
REMARK    4  A    between atoms: C14_18  and  O2_19 
ROOT
HETATM    1  C2  UNL     1      22.768   3.333  51.356  1.00  0.00     0.103 A 
HETATM    2  C3  UNL     1      22.092   2.465  52.177  1.00  0.00     0.072 A 
HETATM    3  C4  UNL     1      22.819   1.406  52.673  1.00  0.00     0.075 A 
HETATM    4  N1  UNL     1      22.166   0.545  53.482  1.00  0.00    -0.241 NA
HETATM    5  C5  UNL     1      22.879  -0.497  53.972  1.00  0.00     0.235 A 
HETATM    6  N2  UNL     1      24.198  -0.682  53.671  1.00  0.00    -0.224 NA
HETATM    7  C6  UNL     1      24.869   0.143  52.882  1.00  0.00     0.138 A 
HETATM    8  C12 UNL     1      24.153   1.210  52.376  1.00  0.00     0.041 A 
HETATM    9  C13 UNL     1      24.770   2.112  51.551  1.00  0.00     0.057 A 
HETATM   10  C14 UNL     1      24.112   3.206  51.008  1.00  0.00     0.102 A 
ENDROOT
BRANCH   7  11
HETATM   11  N3  UNL     1      26.233  -0.090  52.601  1.00  0.00    -0.363 N 
HETATM   12  H6  UNL     1      26.751   0.036  51.734  1.00  0.00     0.162 HD
BRANCH  11  13
HETATM   13  C7  UNL     1      27.033  -0.592  53.722  1.00  0.00     0.129 A 
HETATM   14  C8  UNL     1      28.328  -1.088  53.139  1.00  0.00     0.002 A 
HETATM   15  C9  UNL     1      29.338  -0.388  53.635  1.00  0.00    -0.002 A 
HETATM   16  C10 UNL     1      28.859   0.623  54.574  1.00  0.00    -0.002 A 
HETATM   17  C11 UNL     1      27.525   0.479  54.602  1.00  0.00     0.002 A 
ENDBRANCH  11  13
ENDBRANCH   7  11
BRANCH  10  18
HETATM   18  O2  UNL     1      24.679   4.139  50.177  1.00  0.00    -0.353 OA
HETATM   19  C15 UNL     1      26.030   4.131  49.835  1.00  0.00     0.210 C 
ENDBRANCH  10  18
BRANCH   1  20
HETATM   20  O1  UNL     1      22.069   4.410  50.838  1.00  0.00    -0.353 OA
HETATM   21  C1  UNL     1      20.711   4.644  51.032  1.00  0.00     0.210 C 
ENDBRANCH   1  20
TORSDOF 4
ENDMDL
