MODEL 1
REMARK VINA RESULT:      -8.0      0.000      0.000
REMARK  5 active torsions:
REMARK  status: ('A' for Active; 'I' for Inactive)
REMARK    1  A    between atoms: O1_2  and  C2_3 
REMARK    2  A    between atoms: C5_6  and  C6_7 
REMARK    3  A    between atoms: C6_7  and  N1_8 
REMARK    4  A    between atoms: N1_8  and  C7_9 
REMARK    5  A    between atoms: C11_14  and  C12_15 
ROOT
HETATM    1  C7  UNL     1      22.960  -0.050  53.203  1.00  0.00     0.042 A 
HETATM    2  C8  UNL     1      21.641  -0.194  53.569  1.00  0.00     0.049 A 
HETATM    3  C9  UNL     1      21.241  -0.883  54.681  1.00  0.00     0.118 A 
HETATM    4  N2  UNL     1      22.203  -1.443  55.441  1.00  0.00    -0.272 NA
HETATM    5  C10 UNL     1      23.489  -1.299  55.077  1.00  0.00     0.130 A 
HETATM    6  C11 UNL     1      23.948  -0.604  53.950  1.00  0.00     0.018 A 
ENDROOT
BRANCH   1   7
HETATM    7  N1  UNL     1      23.315   0.690  52.050  1.00  0.00    -0.385 N 
HETATM    8  H8  UNL     1      23.529   0.303  51.111  1.00  0.00     0.160 HD
BRANCH   7   9
HETATM    9  C6  UNL     1      23.409   2.124  52.138  1.00  0.00     0.158 C 
BRANCH   9  10
HETATM   10  C5  UNL     1      24.446   2.708  51.249  1.00  0.00    -0.040 A 
HETATM   11  C4  UNL     1      24.121   3.536  50.193  1.00  0.00     0.011 A 
HETATM   12  C3  UNL     1      25.127   4.050  49.399  1.00  0.00     0.037 A 
HETATM   13  C2  UNL     1      26.454   3.729  49.670  1.00  0.00     0.068 A 
HETATM   14  C19 UNL     1      26.757   2.894  50.738  1.00  0.00     0.037 A 
HETATM   15  C18 UNL     1      25.759   2.371  51.543  1.00  0.00     0.011 A 
BRANCH  13  16
HETATM   16  O1  UNL     1      27.528   4.179  48.953  1.00  0.00    -0.356 OA
HETATM   17  C1  UNL     1      27.734   5.484  48.488  1.00  0.00     0.210 C 
ENDBRANCH  13  16
ENDBRANCH   9  10
ENDBRANCH   7   9
ENDBRANCH   1   7
BRANCH   6  18
HETATM   18  C12 UNL     1      25.376  -0.561  53.694  1.00  0.00    -0.022 A 
HETATM   19  C13 UNL     1      26.161  -1.173  52.739  1.00  0.00     0.012 A 
HETATM   20  C14 UNL     1      27.519  -0.944  52.714  1.00  0.00     0.001 A 
HETATM   21  C15 UNL     1      28.146  -0.119  53.611  1.00  0.00     0.000 A 
HETATM   22  C16 UNL     1      27.387   0.499  54.567  1.00  0.00     0.001 A 
HETATM   23  C17 UNL     1      26.014   0.283  54.611  1.00  0.00     0.012 A 
ENDBRANCH   6  18
TORSDOF 5
ENDMDL
MODEL 2
REMARK VINA RESULT:      -8.0      2.944      6.223
REMARK  5 active torsions:
REMARK  status: ('A' for Active; 'I' for Inactive)
REMARK    1  A    between atoms: O1_2  and  C2_3 
REMARK    2  A    between atoms: C5_6  and  C6_7 
REMARK    3  A    between atoms: C6_7  and  N1_8 
REMARK    4  A    between atoms: N1_8  and  C7_9 
REMARK    5  A    between atoms: C11_14  and  C12_15 
ROOT
HETATM    1  C7  UNL     1      26.886   0.344  53.676  1.00  0.00     0.042 A 
HETATM    2  C8  UNL     1      27.992  -0.078  54.379  1.00  0.00     0.049 A 
HETATM    3  C9  UNL     1      29.058   0.733  54.659  1.00  0.00     0.118 A 
HETATM    4  N2  UNL     1      29.003   2.003  54.215  1.00  0.00    -0.272 NA
HETATM    5  C10 UNL     1      27.920   2.408  53.528  1.00  0.00     0.130 A 
HETATM    6  C11 UNL     1      26.805   1.618  53.217  1.00  0.00     0.018 A 
ENDROOT
BRANCH   1   7
HETATM    7  N1  UNL     1      25.805  -0.535  53.431  1.00  0.00    -0.385 N 
HETATM    8  H8  UNL     1      25.600  -1.028  52.540  1.00  0.00     0.160 HD
BRANCH   7   9
HETATM    9  C6  UNL     1      24.863  -0.800  54.487  1.00  0.00     0.158 C 
BRANCH   9  10
HETATM   10  C5  UNL     1      23.444  -0.678  54.064  1.00  0.00    -0.040 A 
HETATM   11  C4  UNL     1      23.091  -0.174  52.829  1.00  0.00     0.011 A 
HETATM   12  C3  UNL     1      21.756  -0.083  52.489  1.00  0.00     0.037 A 
HETATM   13  C2  UNL     1      20.783  -0.499  53.393  1.00  0.00     0.068 A 
HETATM   14  C19 UNL     1      21.162  -1.004  54.630  1.00  0.00     0.037 A 
HETATM   15  C18 UNL     1      22.496  -1.101  54.985  1.00  0.00     0.011 A 
BRANCH  13  16
HETATM   16  O1  UNL     1      19.435  -0.456  53.164  1.00  0.00    -0.356 OA
HETATM   17  C1  UNL     1      18.803  -0.106  51.964  1.00  0.00     0.210 C 
ENDBRANCH  13  16
ENDBRANCH   9  10
ENDBRANCH   7   9
ENDBRANCH   1   7
BRANCH   6  18
HETATM   18  C12 UNL     1      25.726   2.211  52.449  1.00  0.00    -0.022 A 
HETATM   19  C13 UNL     1      25.444   2.210  51.099  1.00  0.00     0.012 A 
HETATM   20  C14 UNL     1      24.322   2.855  50.629  1.00  0.00     0.001 A 
HETATM   21  C15 UNL     1      23.448   3.514  51.454  1.00  0.00     0.000 A 
HETATM   22  C16 UNL     1      23.708   3.529  52.798  1.00  0.00     0.001 A 
HETATM   23  C17 UNL     1      24.834   2.884  53.294  1.00  0.00     0.012 A 
ENDBRANCH   6  18
TORSDOF 5
ENDMDL
MODEL 3
REMARK VINA RESULT:      -7.9      2.651      5.132
REMARK  5 active torsions:
REMARK  status: ('A' for Active; 'I' for Inactive)
REMARK    1  A    between atoms: O1_2  and  C2_3 
REMARK    2  A    between atoms: C5_6  and  C6_7 
REMARK    3  A    between atoms: C6_7  and  N1_8 
REMARK    4  A    between atoms: N1_8  and  C7_9 
REMARK    5  A    between atoms: C11_14  and  C12_15 
ROOT
HETATM    1  C7  UNL     1      22.773   2.323  50.795  1.00  0.00     0.042 A 
HETATM    2  C8  UNL     1      22.689   2.837  49.521  1.00  0.00     0.049 A 
HETATM    3  C9  UNL     1      21.994   2.230  48.511  1.00  0.00     0.118 A 
HETATM    4  N2  UNL     1      21.369   1.072  48.799  1.00  0.00    -0.272 NA
HETATM    5  C10 UNL     1      21.455   0.576  50.046  1.00  0.00     0.130 A 
HETATM    6  C11 UNL     1      22.153   1.158  51.112  1.00  0.00     0.018 A 
ENDROOT
BRANCH   1   7
HETATM    7  N1  UNL     1      23.493   3.004  51.805  1.00  0.00    -0.385 N 
HETATM    8  H8  UNL     1      23.096   3.431  52.664  1.00  0.00     0.160 HD
BRANCH   7   9
HETATM    9  C6  UNL     1      24.919   3.152  51.671  1.00  0.00     0.158 C 
BRANCH   9  10
HETATM   10  C5  UNL     1      25.696   2.083  52.350  1.00  0.00    -0.040 A 
HETATM   11  C4  UNL     1      25.839   2.043  53.722  1.00  0.00     0.011 A 
HETATM   12  C3  UNL     1      26.572   1.025  54.299  1.00  0.00     0.037 A 
HETATM   13  C2  UNL     1      27.157   0.053  53.494  1.00  0.00     0.068 A 
HETATM   14  C19 UNL     1      26.999   0.113  52.115  1.00  0.00     0.037 A 
HETATM   15  C18 UNL     1      26.267   1.128  51.522  1.00  0.00     0.011 A 
BRANCH  13  16
HETATM   16  O1  UNL     1      27.902  -0.998  53.954  1.00  0.00    -0.356 OA
HETATM   17  C1  UNL     1      29.190  -1.355  53.535  1.00  0.00     0.210 C 
ENDBRANCH  13  16
ENDBRANCH   9  10
ENDBRANCH   7   9
ENDBRANCH   1   7
BRANCH   6  18
HETATM   18  C12 UNL     1      22.158   0.477  52.393  1.00  0.00    -0.022 A 
HETATM   19  C13 UNL     1      23.080  -0.357  52.991  1.00  0.00     0.012 A 
HETATM   20  C14 UNL     1      22.834  -0.867  54.247  1.00  0.00     0.001 A 
HETATM   21  C15 UNL     1      21.694  -0.580  54.952  1.00  0.00     0.000 A 
HETATM   22  C16 UNL     1      20.766   0.246  54.378  1.00  0.00     0.001 A 
HETATM   23  C17 UNL     1      20.993   0.772  53.112  1.00  0.00     0.012 A 
ENDBRANCH   6  18
TORSDOF 5
ENDMDL
MODEL 4
REMARK VINA RESULT:      -7.2      1.794      3.069
REMARK  5 active torsions:
REMARK  status: ('A' for Active; 'I' for Inactive)
REMARK    1  A    between atoms: O1_2  and  C2_3 
REMARK    2  A    between atoms: C5_6  and  C6_7 
REMARK    3  A    between atoms: C6_7  and  N1_8 
REMARK    4  A    between atoms: N1_8  and  C7_9 
REMARK    5  A    between atoms: C11_14  and  C12_15 
ROOT
HETATM    1  C7  UNL     1      25.299   1.750  52.354  1.00  0.00     0.042 A 
HETATM    2  C8  UNL     1      23.938   1.901  52.217  1.00  0.00     0.049 A 
HETATM    3  C9  UNL     1      23.029   1.019  52.735  1.00  0.00     0.118 A 
HETATM    4  N2  UNL     1      23.512  -0.044  53.408  1.00  0.00    -0.272 NA
HETATM    5  C10 UNL     1      24.843  -0.185  53.538  1.00  0.00     0.130 A 
HETATM    6  C11 UNL     1      25.812   0.688  53.027  1.00  0.00     0.018 A 
ENDROOT
BRANCH   1   7
HETATM    7  N1  UNL     1      26.192   2.704  51.811  1.00  0.00    -0.385 N 
HETATM    8  H8  UNL     1      26.676   3.461  52.331  1.00  0.00     0.160 HD
BRANCH   7   9
HETATM    9  C6  UNL     1      26.487   2.666  50.402  1.00  0.00     0.158 C 
BRANCH   9  10
HETATM   10  C5  UNL     1      26.400   3.994  49.740  1.00  0.00    -0.040 A 
HETATM   11  C4  UNL     1      27.436   4.502  48.984  1.00  0.00     0.011 A 
HETATM   12  C3  UNL     1      27.300   5.742  48.392  1.00  0.00     0.037 A 
HETATM   13  C2  UNL     1      26.123   6.465  48.565  1.00  0.00     0.068 A 
HETATM   14  C19 UNL     1      25.094   5.933  49.330  1.00  0.00     0.037 A 
HETATM   15  C18 UNL     1      25.216   4.691  49.930  1.00  0.00     0.011 A 
BRANCH  13  16
HETATM   16  O1  UNL     1      25.878   7.698  48.027  1.00  0.00    -0.356 OA
HETATM   17  C1  UNL     1      26.174   8.936  48.611  1.00  0.00     0.210 C 
ENDBRANCH  13  16
ENDBRANCH   9  10
ENDBRANCH   7   9
ENDBRANCH   1   7
BRANCH   6  18
HETATM   18  C12 UNL     1      27.212   0.375  53.243  1.00  0.00    -0.022 A 
HETATM   19  C13 UNL     1      28.276   1.146  53.661  1.00  0.00     0.012 A 
HETATM   20  C14 UNL     1      29.525   0.581  53.797  1.00  0.00     0.001 A 
HETATM   21  C15 UNL     1      29.771  -0.741  53.533  1.00  0.00     0.000 A 
HETATM   22  C16 UNL     1      28.730  -1.525  53.117  1.00  0.00     0.001 A 
HETATM   23  C17 UNL     1      27.461  -0.977  52.973  1.00  0.00     0.012 A 
ENDBRANCH   6  18
TORSDOF 5
ENDMDL
MODEL 5
REMARK VINA RESULT:      -7.1      2.890      6.329
REMARK  5 active torsions:
REMARK  status: ('A' for Active; 'I' for Inactive)
REMARK    1  A    between atoms: O1_2  and  C2_3 
REMARK    2  A    between atoms: C5_6  and  C6_7 
REMARK    3  A    between atoms: C6_7  and  N1_8 
REMARK    4  A    between atoms: N1_8  and  C7_9 
REMARK    5  A    between atoms: C11_14  and  C12_15 
ROOT
HETATM    1  C7  UNL     1      23.915   3.896  50.812  1.00  0.00     0.042 A 
HETATM    2  C8  UNL     1      22.605   3.552  51.057  1.00  0.00     0.049 A 
HETATM    3  C9  UNL     1      21.606   3.693  50.132  1.00  0.00     0.118 A 
HETATM    4  N2  UNL     1      21.943   4.197  48.930  1.00  0.00    -0.272 NA
HETATM    5  C10 UNL     1      23.225   4.531  48.697  1.00  0.00     0.130 A 
HETATM    6  C11 UNL     1      24.282   4.406  49.609  1.00  0.00     0.018 A 
ENDROOT
BRANCH   1   7
HETATM    7  N1  UNL     1      24.910   3.712  51.801  1.00  0.00    -0.385 N 
HETATM    8  H8  UNL     1      25.868   4.109  51.793  1.00  0.00     0.160 HD
BRANCH   7   9
HETATM    9  C6  UNL     1      24.614   2.894  52.949  1.00  0.00     0.158 C 
BRANCH   9  10
HETATM   10  C5  UNL     1      25.530   1.735  53.106  1.00  0.00    -0.040 A 
HETATM   11  C4  UNL     1      25.103   0.435  52.923  1.00  0.00     0.011 A 
HETATM   12  C3  UNL     1      25.999  -0.603  53.083  1.00  0.00     0.037 A 
HETATM   13  C2  UNL     1      27.320  -0.329  53.426  1.00  0.00     0.068 A 
HETATM   14  C19 UNL     1      27.727   0.986  53.605  1.00  0.00     0.037 A 
HETATM   15  C18 UNL     1      26.840   2.038  53.449  1.00  0.00     0.011 A 
BRANCH  13  16
HETATM   16  O1  UNL     1      28.291  -1.275  53.609  1.00  0.00    -0.356 OA
HETATM   17  C1  UNL     1      29.675  -1.065  53.584  1.00  0.00     0.210 C 
ENDBRANCH  13  16
ENDBRANCH   9  10
ENDBRANCH   7   9
ENDBRANCH   1   7
BRANCH   6  18
HETATM   18  C12 UNL     1      25.607   4.832  49.199  1.00  0.00    -0.022 A 
HETATM   19  C13 UNL     1      26.805   4.156  49.102  1.00  0.00     0.012 A 
HETATM   20  C14 UNL     1      27.933   4.814  48.663  1.00  0.00     0.001 A 
HETATM   21  C15 UNL     1      27.926   6.138  48.308  1.00  0.00     0.000 A 
HETATM   22  C16 UNL     1      26.748   6.828  48.396  1.00  0.00     0.001 A 
HETATM   23  C17 UNL     1      25.597   6.185  48.836  1.00  0.00     0.012 A 
ENDBRANCH   6  18
TORSDOF 5
ENDMDL
MODEL 6
REMARK VINA RESULT:      -7.1      2.998      5.617
REMARK  5 active torsions:
REMARK  status: ('A' for Active; 'I' for Inactive)
REMARK    1  A    between atoms: O1_2  and  C2_3 
REMARK    2  A    between atoms: C5_6  and  C6_7 
REMARK    3  A    between atoms: C6_7  and  N1_8 
REMARK    4  A    between atoms: N1_8  and  C7_9 
REMARK    5  A    between atoms: C11_14  and  C12_15 
ROOT
HETATM    1  C7  UNL     1      24.692   0.192  53.174  1.00  0.00     0.042 A 
HETATM    2  C8  UNL     1      25.541  -0.867  53.400  1.00  0.00     0.049 A 
HETATM    3  C9  UNL     1      26.838  -0.897  52.965  1.00  0.00     0.118 A 
HETATM    4  N2  UNL     1      27.286   0.174  52.282  1.00  0.00    -0.272 NA
HETATM    5  C10 UNL     1      26.451   1.206  52.065  1.00  0.00     0.130 A 
HETATM    6  C11 UNL     1      25.118   1.283  52.488  1.00  0.00     0.018 A 
ENDROOT
BRANCH   1   7
HETATM    7  N1  UNL     1      23.365   0.175  53.663  1.00  0.00    -0.385 N 
HETATM    8  H8  UNL     1      23.027   0.605  54.545  1.00  0.00     0.160 HD
BRANCH   7   9
HETATM    9  C6  UNL     1      22.346  -0.501  52.902  1.00  0.00     0.158 C 
BRANCH   9  10
HETATM   10  C5  UNL     1      21.442   0.423  52.167  1.00  0.00    -0.040 A 
HETATM   11  C4  UNL     1      21.205   0.290  50.815  1.00  0.00     0.011 A 
HETATM   12  C3  UNL     1      20.356   1.178  50.184  1.00  0.00     0.037 A 
HETATM   13  C2  UNL     1      19.750   2.194  50.917  1.00  0.00     0.068 A 
HETATM   14  C19 UNL     1      20.003   2.307  52.278  1.00  0.00     0.037 A 
HETATM   15  C18 UNL     1      20.853   1.425  52.923  1.00  0.00     0.011 A 
BRANCH  13  16
HETATM   16  O1  UNL     1      18.894   3.127  50.399  1.00  0.00    -0.356 OA
HETATM   17  C1  UNL     1      19.102   4.510  50.344  1.00  0.00     0.210 C 
ENDBRANCH  13  16
ENDBRANCH   9  10
ENDBRANCH   7   9
ENDBRANCH   1   7
BRANCH   6  18
HETATM   18  C12 UNL     1      24.350   2.467  52.151  1.00  0.00    -0.022 A 
HETATM   19  C13 UNL     1      23.915   3.533  52.912  1.00  0.00     0.012 A 
HETATM   20  C14 UNL     1      23.198   4.551  52.323  1.00  0.00     0.001 A 
HETATM   21  C15 UNL     1      22.888   4.562  50.988  1.00  0.00     0.000 A 
HETATM   22  C16 UNL     1      23.309   3.515  50.215  1.00  0.00     0.001 A 
HETATM   23  C17 UNL     1      24.034   2.476  50.787  1.00  0.00     0.012 A 
ENDBRANCH   6  18
TORSDOF 5
ENDMDL
MODEL 7
REMARK VINA RESULT:      -6.9      2.816      4.771
REMARK  5 active torsions:
REMARK  status: ('A' for Active; 'I' for Inactive)
REMARK    1  A    between atoms: O1_2  and  C2_3 
REMARK    2  A    between atoms: C5_6  and  C6_7 
REMARK    3  A    between atoms: C6_7  and  N1_8 
REMARK    4  A    between atoms: N1_8  and  C7_9 
REMARK    5  A    between atoms: C11_14  and  C12_15 
ROOT
HETATM    1  C7  UNL     1      19.736   2.415  51.714  1.00  0.00     0.042 A 
HETATM    2  C8  UNL     1      18.870   2.865  50.743  1.00  0.00     0.049 A 
HETATM    3  C9  UNL     1      18.108   2.031  49.972  1.00  0.00     0.118 A 
HETATM    4  N2  UNL     1      18.227   0.707  50.188  1.00  0.00    -0.272 NA
HETATM    5  C10 UNL     1      19.076   0.274  51.138  1.00  0.00     0.130 A 
HETATM    6  C11 UNL     1      19.876   1.087  51.952  1.00  0.00     0.018 A 
ENDROOT
BRANCH   1   7
HETATM    7  N1  UNL     1      20.487   3.326  52.493  1.00  0.00    -0.385 N 
HETATM    8  H8  UNL     1      20.344   3.542  53.498  1.00  0.00     0.160 HD
BRANCH   7   9
HETATM    9  C6  UNL     1      21.564   4.057  51.875  1.00  0.00     0.158 C 
BRANCH   9  10
HETATM   10  C5  UNL     1      22.871   3.353  51.934  1.00  0.00    -0.040 A 
HETATM   11  C4  UNL     1      23.541   3.154  53.124  1.00  0.00     0.011 A 
HETATM   12  C3  UNL     1      24.753   2.492  53.118  1.00  0.00     0.037 A 
HETATM   13  C2  UNL     1      25.286   2.036  51.916  1.00  0.00     0.068 A 
HETATM   14  C19 UNL     1      24.593   2.247  50.731  1.00  0.00     0.037 A 
HETATM   15  C18 UNL     1      23.377   2.908  50.721  1.00  0.00     0.011 A 
BRANCH  13  16
HETATM   16  O1  UNL     1      26.474   1.370  51.791  1.00  0.00    -0.356 OA
HETATM   17  C1  UNL     1      26.688   0.000  51.988  1.00  0.00     0.210 C 
ENDBRANCH  13  16
ENDBRANCH   9  10
ENDBRANCH   7   9
ENDBRANCH   1   7
BRANCH   6  18
HETATM   18  C12 UNL     1      20.753   0.452  52.919  1.00  0.00    -0.022 A 
HETATM   19  C13 UNL     1      20.656   0.289  54.285  1.00  0.00     0.012 A 
HETATM   20  C14 UNL     1      21.646  -0.379  54.970  1.00  0.00     0.001 A 
HETATM   21  C15 UNL     1      22.750  -0.904  54.350  1.00  0.00     0.000 A 
HETATM   22  C16 UNL     1      22.867  -0.753  52.995  1.00  0.00     0.001 A 
HETATM   23  C17 UNL     1      21.880  -0.083  52.283  1.00  0.00     0.012 A 
ENDBRANCH   6  18
TORSDOF 5
ENDMDL
MODEL 8
REMARK VINA RESULT:      -6.8      2.997      7.149
REMARK  5 active torsions:
REMARK  status: ('A' for Active; 'I' for Inactive)
REMARK    1  A    between atoms: O1_2  and  C2_3 
REMARK    2  A    between atoms: C5_6  and  C6_7 
REMARK    3  A    between atoms: C6_7  and  N1_8 
REMARK    4  A    between atoms: N1_8  and  C7_9 
REMARK    5  A    between atoms: C11_14  and  C12_15 
ROOT
HETATM    1  C7  UNL     1      25.152   4.279  50.266  1.00  0.00     0.042 A 
HETATM    2  C8  UNL     1      23.838   3.987  50.554  1.00  0.00     0.049 A 
HETATM    3  C9  UNL     1      22.782   4.501  49.852  1.00  0.00     0.118 A 
HETATM    4  N2  UNL     1      23.065   5.334  48.832  1.00  0.00    -0.272 NA
HETATM    5  C10 UNL     1      24.351   5.616  48.556  1.00  0.00     0.130 A 
HETATM    6  C11 UNL     1      25.465   5.116  49.244  1.00  0.00     0.018 A 
ENDROOT
BRANCH   1   7
HETATM    7  N1  UNL     1      26.204   3.704  51.017  1.00  0.00    -0.385 N 
HETATM    8  H8  UNL     1      26.782   4.181  51.734  1.00  0.00     0.160 HD
BRANCH   7   9
HETATM    9  C6  UNL     1      26.550   2.323  50.795  1.00  0.00     0.158 C 
BRANCH   9  10
HETATM   10  C5  UNL     1      26.360   1.463  51.992  1.00  0.00    -0.040 A 
HETATM   11  C4  UNL     1      27.427   0.917  52.676  1.00  0.00     0.011 A 
HETATM   12  C3  UNL     1      27.191   0.125  53.782  1.00  0.00     0.037 A 
HETATM   13  C2  UNL     1      25.883  -0.114  54.194  1.00  0.00     0.068 A 
HETATM   14  C19 UNL     1      24.825   0.447  53.491  1.00  0.00     0.037 A 
HETATM   15  C18 UNL     1      25.047   1.243  52.380  1.00  0.00     0.011 A 
BRANCH  13  16
HETATM   16  O1  UNL     1      25.532  -0.880  55.272  1.00  0.00    -0.356 OA
HETATM   17  C1  UNL     1      24.245  -1.330  55.592  1.00  0.00     0.210 C 
ENDBRANCH  13  16
ENDBRANCH   9  10
ENDBRANCH   7   9
ENDBRANCH   1   7
BRANCH   6  18
HETATM   18  C12 UNL     1      26.788   5.539  48.825  1.00  0.00    -0.022 A 
HETATM   19  C13 UNL     1      27.928   4.828  48.513  1.00  0.00     0.012 A 
HETATM   20  C14 UNL     1      29.069   5.494  48.123  1.00  0.00     0.001 A 
HETATM   21  C15 UNL     1      29.132   6.860  48.025  1.00  0.00     0.000 A 
HETATM   22  C16 UNL     1      28.012   7.585  48.330  1.00  0.00     0.001 A 
HETATM   23  C17 UNL     1      26.849   6.935  48.725  1.00  0.00     0.012 A 
ENDBRANCH   6  18
TORSDOF 5
ENDMDL
MODEL 9
REMARK VINA RESULT:      -6.8      2.679      4.944
REMARK  5 active torsions:
REMARK  status: ('A' for Active; 'I' for Inactive)
REMARK    1  A    between atoms: O1_2  and  C2_3 
REMARK    2  A    between atoms: C5_6  and  C6_7 
REMARK    3  A    between atoms: C6_7  and  N1_8 
REMARK    4  A    between atoms: N1_8  and  C7_9 
REMARK    5  A    between atoms: C11_14  and  C12_15 
ROOT
HETATM    1  C7  UNL     1      25.911   1.074  53.211  1.00  0.00     0.042 A 
HETATM    2  C8  UNL     1      27.285   1.093  53.128  1.00  0.00     0.049 A 
HETATM    3  C9  UNL     1      28.055  -0.038  53.153  1.00  0.00     0.118 A 
HETATM    4  N2  UNL     1      27.416  -1.218  53.267  1.00  0.00    -0.272 NA
HETATM    5  C10 UNL     1      26.073  -1.229  53.348  1.00  0.00     0.130 A 
HETATM    6  C11 UNL     1      25.243  -0.101  53.327  1.00  0.00     0.018 A 
ENDROOT
BRANCH   1   7
HETATM    7  N1  UNL     1      25.166   2.276  53.162  1.00  0.00    -0.385 N 
HETATM    8  H8  UNL     1      24.692   2.740  53.960  1.00  0.00     0.160 HD
BRANCH   7   9
HETATM    9  C6  UNL     1      25.016   2.958  51.902  1.00  0.00     0.158 C 
BRANCH   9  10
HETATM   10  C5  UNL     1      23.605   3.065  51.447  1.00  0.00    -0.040 A 
HETATM   11  C4  UNL     1      23.199   2.605  50.212  1.00  0.00     0.011 A 
HETATM   12  C3  UNL     1      21.874   2.731  49.842  1.00  0.00     0.037 A 
HETATM   13  C2  UNL     1      20.966   3.319  50.717  1.00  0.00     0.068 A 
HETATM   14  C19 UNL     1      21.398   3.774  51.956  1.00  0.00     0.037 A 
HETATM   15  C18 UNL     1      22.723   3.655  52.340  1.00  0.00     0.011 A 
BRANCH  13  16
HETATM   16  O1  UNL     1      19.634   3.496  50.458  1.00  0.00    -0.356 OA
HETATM   17  C1  UNL     1      18.585   3.394  51.380  1.00  0.00     0.210 C 
ENDBRANCH  13  16
ENDBRANCH   9  10
ENDBRANCH   7   9
ENDBRANCH   1   7
BRANCH   6  18
HETATM   18  C12 UNL     1      23.809  -0.291  53.443  1.00  0.00    -0.022 A 
HETATM   19  C13 UNL     1      22.773  -0.056  52.564  1.00  0.00     0.012 A 
HETATM   20  C14 UNL     1      21.478  -0.345  52.934  1.00  0.00     0.001 A 
HETATM   21  C15 UNL     1      21.158  -0.869  54.159  1.00  0.00     0.000 A 
HETATM   22  C16 UNL     1      22.170  -1.111  55.047  1.00  0.00     0.001 A 
HETATM   23  C17 UNL     1      23.485  -0.828  54.696  1.00  0.00     0.012 A 
ENDBRANCH   6  18
TORSDOF 5
ENDMDL
