MODEL 1
REMARK VINA RESULT:      -8.5      0.000      0.000
REMARK  8 active torsions:
REMARK  status: ('A' for Active; 'I' for Inactive)
REMARK    1  A    between atoms: O1_2  and  C2_3 
REMARK    2  A    between atoms: C6_9  and  N3_10 
REMARK    3  A    between atoms: N3_10  and  C7_11 
REMARK    4  A    between atoms: C15_21  and  O2_22 
REMARK    5  A    between atoms: O2_22  and  C16_23 
REMARK    6  A    between atoms: C16_23  and  C17_24 
REMARK    7  A    between atoms: C17_24  and  C18_25 
REMARK    8  A    between atoms: C18_25  and  N4_26 
ROOT
HETATM    1  C2  UNL     1      19.976  -0.050  52.500  1.00  0.00     0.103 A 
HETATM    2  C3  UNL     1      20.318  -0.685  53.673  1.00  0.00     0.072 A 
HETATM    3  C4  UNL     1      21.619  -0.783  54.035  1.00  0.00     0.075 A 
HETATM    4  N1  UNL     1      21.910  -1.421  55.205  1.00  0.00    -0.241 NA
HETATM    5  C5  UNL     1      23.198  -1.534  55.592  1.00  0.00     0.236 A 
HETATM    6  N2  UNL     1      24.192  -1.036  54.857  1.00  0.00    -0.224 NA
HETATM    7  C6  UNL     1      23.992  -0.406  53.714  1.00  0.00     0.142 A 
HETATM    8  C13 UNL     1      22.692  -0.285  53.310  1.00  0.00     0.042 A 
HETATM    9  C14 UNL     1      22.286   0.335  52.153  1.00  0.00     0.057 A 
HETATM   10  C15 UNL     1      20.983   0.472  51.722  1.00  0.00     0.103 A 
ENDROOT
BRANCH   7  11
HETATM   11  N3  UNL     1      25.014   0.131  52.926  1.00  0.00    -0.340 N 
HETATM   12  H6  UNL     1      24.829   0.700  52.076  1.00  0.00     0.167 HD
BRANCH  11  13
HETATM   13  C7  UNL     1      26.412   0.013  53.115  1.00  0.00     0.035 A 
HETATM   14  C8  UNL     1      27.102  -1.141  52.924  1.00  0.00     0.032 A 
HETATM   15  C9  UNL     1      28.452  -1.313  53.105  1.00  0.00     0.046 A 
HETATM   16  C10 UNL     1      29.226  -0.233  53.520  1.00  0.00     0.138 A 
HETATM   17  F1  UNL     1      30.549  -0.281  53.730  1.00  0.00    -0.204 F 
HETATM   18  C11 UNL     1      28.581   0.965  53.729  1.00  0.00     0.074 A 
HETATM   19 CL1  UNL     1      29.493   2.358  54.251  1.00  0.00    -0.081 Cl
HETATM   20  C12 UNL     1      27.230   1.058  53.528  1.00  0.00     0.056 A 
ENDBRANCH  11  13
ENDBRANCH   7  11
BRANCH  10  21
HETATM   21  O2  UNL     1      20.637   1.103  50.554  1.00  0.00    -0.348 OA
BRANCH  21  22
HETATM   22  C16 UNL     1      21.347   1.028  49.339  1.00  0.00     0.177 C 
BRANCH  22  23
HETATM   23  C17 UNL     1      21.823   2.427  49.025  1.00  0.00     0.046 C 
BRANCH  23  24
HETATM   24  C18 UNL     1      23.267   2.640  49.322  1.00  0.00     0.119 C 
BRANCH  24  25
HETATM   25  N4  UNL     1      23.408   3.603  50.360  1.00  0.00    -0.408 N 
HETATM   26  C19 UNL     1      24.456   3.408  51.297  1.00  0.00     0.143 C 
HETATM   27  C20 UNL     1      23.843   3.493  52.681  1.00  0.00     0.187 C 
HETATM   28  O3  UNL     1      23.300   4.745  52.930  1.00  0.00    -0.388 OA
HETATM   29  C21 UNL     1      22.415   5.169  51.958  1.00  0.00     0.187 C 
HETATM   30  C22 UNL     1      22.199   4.167  50.856  1.00  0.00     0.143 C 
ENDBRANCH  24  25
ENDBRANCH  23  24
ENDBRANCH  22  23
ENDBRANCH  21  22
ENDBRANCH  10  21
BRANCH   1  31
HETATM   31  O1  UNL     1      18.657   0.071  52.095  1.00  0.00    -0.353 OA
HETATM   32  C1  UNL     1      17.711  -0.861  52.533  1.00  0.00     0.210 C 
ENDBRANCH   1  31
TORSDOF 8
ENDMDL
MODEL 2
REMARK VINA RESULT:      -8.2      2.008      2.619
REMARK  8 active torsions:
REMARK  status: ('A' for Active; 'I' for Inactive)
REMARK    1  A    between atoms: O1_2  and  C2_3 
REMARK    2  A    between atoms: C6_9  and  N3_10 
REMARK    3  A    between atoms: N3_10  and  C7_11 
REMARK    4  A    between atoms: C15_21  and  O2_22 
REMARK    5  A    between atoms: O2_22  and  C16_23 
REMARK    6  A    between atoms: C16_23  and  C17_24 
REMARK    7  A    between atoms: C17_24  and  C18_25 
REMARK    8  A    between atoms: C18_25  and  N4_26 
ROOT
HETATM    1  C2  UNL     1      20.382   2.558  52.499  1.00  0.00     0.103 A 
HETATM    2  C3  UNL     1      20.391   1.451  53.318  1.00  0.00     0.072 A 
HETATM    3  C4  UNL     1      21.533   0.742  53.484  1.00  0.00     0.075 A 
HETATM    4  N1  UNL     1      21.494  -0.347  54.306  1.00  0.00    -0.241 NA
HETATM    5  C5  UNL     1      22.617  -1.073  54.491  1.00  0.00     0.236 A 
HETATM    6  N2  UNL     1      23.762  -0.751  53.890  1.00  0.00    -0.224 NA
HETATM    7  C6  UNL     1      23.879   0.287  53.081  1.00  0.00     0.142 A 
HETATM    8  C13 UNL     1      22.750   1.031  52.885  1.00  0.00     0.042 A 
HETATM    9  C14 UNL     1      22.675   2.143  52.081  1.00  0.00     0.057 A 
HETATM   10  C15 UNL     1      21.550   2.912  51.866  1.00  0.00     0.103 A 
ENDROOT
BRANCH   7  11
HETATM   11  N3  UNL     1      25.068   0.651  52.443  1.00  0.00    -0.340 N 
HETATM   12  H6  UNL     1      25.088   1.235  51.583  1.00  0.00     0.167 HD
BRANCH  11  13
HETATM   13  C7  UNL     1      26.393   0.320  52.814  1.00  0.00     0.035 A 
HETATM   14  C8  UNL     1      26.937  -0.912  52.637  1.00  0.00     0.032 A 
HETATM   15  C9  UNL     1      28.209  -1.289  52.990  1.00  0.00     0.046 A 
HETATM   16  C10 UNL     1      29.056  -0.359  53.586  1.00  0.00     0.138 A 
HETATM   17  F1  UNL     1      30.313  -0.612  53.974  1.00  0.00    -0.204 F 
HETATM   18  C11 UNL     1      28.559   0.909  53.791  1.00  0.00     0.074 A 
HETATM   19 CL1  UNL     1      29.566   2.123  54.535  1.00  0.00    -0.081 Cl
HETATM   20  C12 UNL     1      27.277   1.210  53.412  1.00  0.00     0.056 A 
ENDBRANCH  11  13
ENDBRANCH   7  11
BRANCH  10  21
HETATM   21  O2  UNL     1      21.535   4.014  51.049  1.00  0.00    -0.348 OA
BRANCH  21  22
HETATM   22  C16 UNL     1      21.775   5.341  51.458  1.00  0.00     0.177 C 
BRANCH  22  23
HETATM   23  C17 UNL     1      22.692   5.956  50.427  1.00  0.00     0.046 C 
BRANCH  23  24
HETATM   24  C18 UNL     1      23.265   4.960  49.478  1.00  0.00     0.119 C 
BRANCH  24  25
HETATM   25  N4  UNL     1      24.605   4.659  49.847  1.00  0.00    -0.408 N 
HETATM   26  C19 UNL     1      25.575   5.682  49.690  1.00  0.00     0.143 C 
HETATM   27  C20 UNL     1      26.728   5.094  48.900  1.00  0.00     0.187 C 
HETATM   28  O3  UNL     1      27.341   4.051  49.580  1.00  0.00    -0.388 OA
HETATM   29  C21 UNL     1      26.463   3.071  50.000  1.00  0.00     0.187 C 
HETATM   30  C22 UNL     1      25.034   3.324  49.599  1.00  0.00     0.143 C 
ENDBRANCH  24  25
ENDBRANCH  23  24
ENDBRANCH  22  23
ENDBRANCH  21  22
ENDBRANCH  10  21
BRANCH   1  31
HETATM   31  O1  UNL     1      19.235   3.309  52.303  1.00  0.00    -0.353 OA
HETATM   32  C1  UNL     1      18.227   2.826  51.464  1.00  0.00     0.210 C 
ENDBRANCH   1  31
TORSDOF 8
ENDMDL
MODEL 3
REMARK VINA RESULT:      -7.9      4.029      6.642
REMARK  8 active torsions:
REMARK  status: ('A' for Active; 'I' for Inactive)
REMARK    1  A    between atoms: O1_2  and  C2_3 
REMARK    2  A    between atoms: C6_9  and  N3_10 
REMARK    3  A    between atoms: N3_10  and  C7_11 
REMARK    4  A    between atoms: C15_21  and  O2_22 
REMARK    5  A    between atoms: O2_22  and  C16_23 
REMARK    6  A    between atoms: C16_23  and  C17_24 
REMARK    7  A    between atoms: C17_24  and  C18_25 
REMARK    8  A    between atoms: C18_25  and  N4_26 
ROOT
HETATM    1  C2  UNL     1      26.687   0.028  53.127  1.00  0.00     0.103 A 
HETATM    2  C3  UNL     1      26.023  -0.649  54.126  1.00  0.00     0.072 A 
HETATM    3  C4  UNL     1      24.672  -0.593  54.199  1.00  0.00     0.075 A 
HETATM    4  N1  UNL     1      24.058  -1.278  55.206  1.00  0.00    -0.241 NA
HETATM    5  C5  UNL     1      22.712  -1.242  55.303  1.00  0.00     0.236 A 
HETATM    6  N2  UNL     1      21.970  -0.551  54.439  1.00  0.00    -0.224 NA
HETATM    7  C6  UNL     1      22.490   0.138  53.439  1.00  0.00     0.142 A 
HETATM    8  C13 UNL     1      23.852   0.109  53.328  1.00  0.00     0.042 A 
HETATM    9  C14 UNL     1      24.572   0.762  52.358  1.00  0.00     0.057 A 
HETATM   10  C15 UNL     1      25.945   0.749  52.222  1.00  0.00     0.103 A 
ENDROOT
BRANCH   7  11
HETATM   11  N3  UNL     1      21.736   0.866  52.515  1.00  0.00    -0.340 N 
HETATM   12  H6  UNL     1      22.059   1.767  52.111  1.00  0.00     0.167 HD
BRANCH  11  13
HETATM   13  C7  UNL     1      20.465   0.544  51.981  1.00  0.00     0.035 A 
HETATM   14  C8  UNL     1      20.054   0.917  50.741  1.00  0.00     0.032 A 
HETATM   15  C9  UNL     1      18.831   0.644  50.181  1.00  0.00     0.046 A 
HETATM   16  C10 UNL     1      17.893  -0.079  50.912  1.00  0.00     0.138 A 
HETATM   17  F1  UNL     1      16.669  -0.403  50.471  1.00  0.00    -0.204 F 
HETATM   18  C11 UNL     1      18.253  -0.486  52.177  1.00  0.00     0.074 A 
HETATM   19 CL1  UNL     1      17.124  -1.395  53.148  1.00  0.00    -0.081 Cl
HETATM   20  C12 UNL     1      19.493  -0.174  52.668  1.00  0.00     0.056 A 
ENDBRANCH  11  13
ENDBRANCH   7  11
BRANCH  10  21
HETATM   21  O2  UNL     1      26.611   1.422  51.229  1.00  0.00    -0.348 OA
BRANCH  21  22
HETATM   22  C16 UNL     1      26.778   2.819  51.154  1.00  0.00     0.177 C 
BRANCH  22  23
HETATM   23  C17 UNL     1      26.350   3.235  49.766  1.00  0.00     0.046 C 
BRANCH  23  24
HETATM   24  C18 UNL     1      25.336   4.327  49.764  1.00  0.00     0.119 C 
BRANCH  24  25
HETATM   25  N4  UNL     1      24.226   3.955  50.571  1.00  0.00    -0.408 N 
HETATM   26  C19 UNL     1      23.197   3.192  49.961  1.00  0.00     0.143 C 
HETATM   27  C20 UNL     1      21.884   3.893  50.250  1.00  0.00     0.187 C 
HETATM   28  O3  UNL     1      21.609   3.935  51.610  1.00  0.00    -0.388 OA
HETATM   29  C21 UNL     1      22.640   4.457  52.368  1.00  0.00     0.187 C 
HETATM   30  C22 UNL     1      23.825   4.903  51.555  1.00  0.00     0.143 C 
ENDBRANCH  24  25
ENDBRANCH  23  24
ENDBRANCH  22  23
ENDBRANCH  21  22
ENDBRANCH  10  21
BRANCH   1  31
HETATM   31  O1  UNL     1      28.068  -0.005  53.019  1.00  0.00    -0.353 OA
HETATM   32  C1  UNL     1      28.853   0.591  54.009  1.00  0.00     0.210 C 
ENDBRANCH   1  31
TORSDOF 8
ENDMDL
MODEL 4
REMARK VINA RESULT:      -7.8      3.058      5.747
REMARK  8 active torsions:
REMARK  status: ('A' for Active; 'I' for Inactive)
REMARK    1  A    between atoms: O1_2  and  C2_3 
REMARK    2  A    between atoms: C6_9  and  N3_10 
REMARK    3  A    between atoms: N3_10  and  C7_11 
REMARK    4  A    between atoms: C15_21  and  O2_22 
REMARK    5  A    between atoms: O2_22  and  C16_23 
REMARK    6  A    between atoms: C16_23  and  C17_24 
REMARK    7  A    between atoms: C17_24  and  C18_25 
REMARK    8  A    between atoms: C18_25  and  N4_26 
ROOT
HETATM    1  C2  UNL     1      20.367   1.085  52.473  1.00  0.00     0.103 A 
HETATM    2  C3  UNL     1      19.679   1.985  51.691  1.00  0.00     0.072 A 
HETATM    3  C4  UNL     1      20.287   3.121  51.273  1.00  0.00     0.075 A 
HETATM    4  N1  UNL     1      19.566   3.984  50.500  1.00  0.00    -0.241 NA
HETATM    5  C5  UNL     1      20.145   5.124  50.067  1.00  0.00     0.236 A 
HETATM    6  N2  UNL     1      21.405   5.426  50.378  1.00  0.00    -0.224 NA
HETATM    7  C6  UNL     1      22.167   4.643  51.121  1.00  0.00     0.142 A 
HETATM    8  C13 UNL     1      21.593   3.485  51.565  1.00  0.00     0.042 A 
HETATM    9  C14 UNL     1      22.224   2.548  52.347  1.00  0.00     0.057 A 
HETATM   10  C15 UNL     1      21.670   1.372  52.808  1.00  0.00     0.103 A 
ENDROOT
BRANCH   7  11
HETATM   11  N3  UNL     1      23.493   4.931  51.456  1.00  0.00    -0.340 N 
HETATM   12  H6  UNL     1      23.767   5.315  52.383  1.00  0.00     0.167 HD
BRANCH  11  13
HETATM   13  C7  UNL     1      24.649   4.772  50.655  1.00  0.00     0.035 A 
HETATM   14  C8  UNL     1      25.399   3.639  50.635  1.00  0.00     0.032 A 
HETATM   15  C9  UNL     1      26.533   3.437  49.889  1.00  0.00     0.046 A 
HETATM   16  C10 UNL     1      26.996   4.457  49.062  1.00  0.00     0.138 A 
HETATM   17  F1  UNL     1      28.090   4.377  48.292  1.00  0.00    -0.204 F 
HETATM   18  C11 UNL     1      26.276   5.630  49.041  1.00  0.00     0.074 A 
HETATM   19 CL1  UNL     1      26.801   6.950  48.028  1.00  0.00    -0.081 Cl
HETATM   20  C12 UNL     1      25.153   5.757  49.815  1.00  0.00     0.056 A 
ENDBRANCH  11  13
ENDBRANCH   7  11
BRANCH  10  21
HETATM   21  O2  UNL     1      22.350   0.472  53.588  1.00  0.00    -0.348 OA
BRANCH  21  22
HETATM   22  C16 UNL     1      23.067  -0.646  53.117  1.00  0.00     0.177 C 
BRANCH  22  23
HETATM   23  C17 UNL     1      24.476  -0.516  53.647  1.00  0.00     0.046 C 
BRANCH  23  24
HETATM   24  C18 UNL     1      25.227   0.625  53.053  1.00  0.00     0.119 C 
BRANCH  24  25
HETATM   25  N4  UNL     1      26.345   0.945  53.872  1.00  0.00    -0.408 N 
HETATM   26  C19 UNL     1      26.836   2.275  53.822  1.00  0.00     0.143 C 
HETATM   27  C20 UNL     1      28.328   2.196  53.563  1.00  0.00     0.187 C 
HETATM   28  O3  UNL     1      28.997   1.552  54.594  1.00  0.00    -0.388 OA
HETATM   29  C21 UNL     1      28.471   0.314  54.909  1.00  0.00     0.187 C 
HETATM   30  C22 UNL     1      27.308  -0.089  54.043  1.00  0.00     0.143 C 
ENDBRANCH  24  25
ENDBRANCH  23  24
ENDBRANCH  22  23
ENDBRANCH  21  22
ENDBRANCH  10  21
BRANCH   1  31
HETATM   31  O1  UNL     1      19.781  -0.087  52.921  1.00  0.00    -0.353 OA
HETATM   32  C1  UNL     1      18.482  -0.409  52.516  1.00  0.00     0.210 C 
ENDBRANCH   1  31
TORSDOF 8
ENDMDL
MODEL 5
REMARK VINA RESULT:      -7.7      4.224      6.689
REMARK  8 active torsions:
REMARK  status: ('A' for Active; 'I' for Inactive)
REMARK    1  A    between atoms: O1_2  and  C2_3 
REMARK    2  A    between atoms: C6_9  and  N3_10 
REMARK    3  A    between atoms: N3_10  and  C7_11 
REMARK    4  A    between atoms: C15_21  and  O2_22 
REMARK    5  A    between atoms: O2_22  and  C16_23 
REMARK    6  A    between atoms: C16_23  and  C17_24 
REMARK    7  A    between atoms: C17_24  and  C18_25 
REMARK    8  A    between atoms: C18_25  and  N4_26 
ROOT
HETATM    1  C2  UNL     1      26.272  -0.196  53.235  1.00  0.00     0.103 A 
HETATM    2  C3  UNL     1      25.408  -0.806  54.117  1.00  0.00     0.072 A 
HETATM    3  C4  UNL     1      24.085  -0.517  54.077  1.00  0.00     0.075 A 
HETATM    4  N1  UNL     1      23.268  -1.146  54.970  1.00  0.00    -0.241 NA
HETATM    5  C5  UNL     1      21.944  -0.879  54.954  1.00  0.00     0.236 A 
HETATM    6  N2  UNL     1      21.419  -0.016  54.085  1.00  0.00    -0.224 NA
HETATM    7  C6  UNL     1      22.144   0.632  53.191  1.00  0.00     0.142 A 
HETATM    8  C13 UNL     1      23.485   0.371  53.197  1.00  0.00     0.042 A 
HETATM    9  C14 UNL     1      24.398   0.945  52.346  1.00  0.00     0.057 A 
HETATM   10  C15 UNL     1      25.755   0.700  52.329  1.00  0.00     0.103 A 
ENDROOT
BRANCH   7  11
HETATM   11  N3  UNL     1      21.618   1.537  52.265  1.00  0.00    -0.340 N 
HETATM   12  H6  UNL     1      22.174   2.321  51.868  1.00  0.00     0.167 HD
BRANCH  11  13
HETATM   13  C7  UNL     1      20.313   1.567  51.720  1.00  0.00     0.035 A 
HETATM   14  C8  UNL     1      19.820   0.607  50.895  1.00  0.00     0.032 A 
HETATM   15  C9  UNL     1      18.569   0.594  50.330  1.00  0.00     0.046 A 
HETATM   16  C10 UNL     1      17.689   1.639  50.598  1.00  0.00     0.138 A 
HETATM   17  F1  UNL     1      16.447   1.735  50.103  1.00  0.00    -0.204 F 
HETATM   18  C11 UNL     1      18.133   2.642  51.430  1.00  0.00     0.074 A 
HETATM   19 CL1  UNL     1      17.082   3.983  51.806  1.00  0.00    -0.081 Cl
HETATM   20  C12 UNL     1      19.396   2.585  51.956  1.00  0.00     0.056 A 
ENDBRANCH  11  13
ENDBRANCH   7  11
BRANCH  10  21
HETATM   21  O2  UNL     1      26.620   1.306  51.453  1.00  0.00    -0.348 OA
BRANCH  21  22
HETATM   22  C16 UNL     1      26.781   2.696  51.288  1.00  0.00     0.177 C 
BRANCH  22  23
HETATM   23  C17 UNL     1      26.410   3.011  49.857  1.00  0.00     0.046 C 
BRANCH  23  24
HETATM   24  C18 UNL     1      26.100   4.450  49.631  1.00  0.00     0.119 C 
BRANCH  24  25
HETATM   25  N4  UNL     1      24.706   4.676  49.799  1.00  0.00    -0.408 N 
HETATM   26  C19 UNL     1      24.297   5.457  50.910  1.00  0.00     0.143 C 
HETATM   27  C20 UNL     1      23.232   4.669  51.647  1.00  0.00     0.187 C 
HETATM   28  O3  UNL     1      22.109   4.458  50.861  1.00  0.00    -0.388 OA
HETATM   29  C21 UNL     1      22.391   3.899  49.629  1.00  0.00     0.187 C 
HETATM   30  C22 UNL     1      23.851   3.603  49.417  1.00  0.00     0.143 C 
ENDBRANCH  24  25
ENDBRANCH  23  24
ENDBRANCH  22  23
ENDBRANCH  21  22
ENDBRANCH  10  21
BRANCH   1  31
HETATM   31  O1  UNL     1      27.631  -0.464  53.245  1.00  0.00    -0.353 OA
HETATM   32  C1  UNL     1      28.416  -0.021  54.313  1.00  0.00     0.210 C 
ENDBRANCH   1  31
TORSDOF 8
ENDMDL
MODEL 6
REMARK VINA RESULT:      -7.6      4.087      6.458
REMARK  8 active torsions:
REMARK  status: ('A' for Active; 'I' for Inactive)
REMARK    1  A    between atoms: O1_2  and  C2_3 
REMARK    2  A    between atoms: C6_9  and  N3_10 
REMARK    3  A    between atoms: N3_10  and  C7_11 
REMARK    4  A    between atoms: C15_21  and  O2_22 
REMARK    5  A    between atoms: O2_22  and  C16_23 
REMARK    6  A    between atoms: C16_23  and  C17_24 
REMARK    7  A    between atoms: C17_24  and  C18_25 
REMARK    8  A    between atoms: C18_25  and  N4_26 
ROOT
HETATM    1  C2  UNL     1      26.992   0.650  53.369  1.00  0.00     0.103 A 
HETATM    2  C3  UNL     1      26.479  -0.012  54.462  1.00  0.00     0.072 A 
HETATM    3  C4  UNL     1      25.193  -0.437  54.453  1.00  0.00     0.075 A 
HETATM    4  N1  UNL     1      24.728  -1.089  55.557  1.00  0.00    -0.241 NA
HETATM    5  C5  UNL     1      23.450  -1.524  55.577  1.00  0.00     0.236 A 
HETATM    6  N2  UNL     1      22.633  -1.331  54.542  1.00  0.00    -0.224 NA
HETATM    7  C6  UNL     1      23.008  -0.709  53.439  1.00  0.00     0.142 A 
HETATM    8  C13 UNL     1      24.300  -0.263  53.406  1.00  0.00     0.042 A 
HETATM    9  C14 UNL     1      24.871   0.404  52.349  1.00  0.00     0.057 A 
HETATM   10  C15 UNL     1      26.170   0.863  52.288  1.00  0.00     0.103 A 
ENDROOT
BRANCH   7  11
HETATM   11  N3  UNL     1      22.175  -0.499  52.337  1.00  0.00    -0.340 N 
HETATM   12  H6  UNL     1      22.195  -1.106  51.493  1.00  0.00     0.167 HD
BRANCH  11  13
HETATM   13  C7  UNL     1      21.204   0.516  52.160  1.00  0.00     0.035 A 
HETATM   14  C8  UNL     1      21.281   1.740  52.744  1.00  0.00     0.032 A 
HETATM   15  C9  UNL     1      20.363   2.753  52.616  1.00  0.00     0.046 A 
HETATM   16  C10 UNL     1      19.234   2.554  51.828  1.00  0.00     0.138 A 
HETATM   17  F1  UNL     1      18.271   3.465  51.631  1.00  0.00    -0.204 F 
HETATM   18  C11 UNL     1      19.101   1.331  51.209  1.00  0.00     0.074 A 
HETATM   19 CL1  UNL     1      17.709   1.014  50.207  1.00  0.00    -0.081 Cl
HETATM   20  C12 UNL     1      20.060   0.369  51.385  1.00  0.00     0.056 A 
ENDBRANCH  11  13
ENDBRANCH   7  11
BRANCH  10  21
HETATM   21  O2  UNL     1      26.686   1.525  51.203  1.00  0.00    -0.348 OA
BRANCH  21  22
HETATM   22  C16 UNL     1      26.703   2.923  51.027  1.00  0.00     0.177 C 
BRANCH  22  23
HETATM   23  C17 UNL     1      26.286   3.187  49.599  1.00  0.00     0.046 C 
BRANCH  23  24
HETATM   24  C18 UNL     1      26.497   4.600  49.174  1.00  0.00     0.119 C 
BRANCH  24  25
HETATM   25  N4  UNL     1      25.283   5.330  49.307  1.00  0.00    -0.408 N 
HETATM   26  C19 UNL     1      25.240   6.358  50.284  1.00  0.00     0.143 C 
HETATM   27  C20 UNL     1      24.009   6.118  51.136  1.00  0.00     0.187 C 
HETATM   28  O3  UNL     1      22.841   6.210  50.394  1.00  0.00    -0.388 OA
HETATM   29  C21 UNL     1      22.837   5.415  49.264  1.00  0.00     0.187 C 
HETATM   30  C22 UNL     1      24.085   4.590  49.099  1.00  0.00     0.143 C 
ENDBRANCH  24  25
ENDBRANCH  23  24
ENDBRANCH  22  23
ENDBRANCH  21  22
ENDBRANCH  10  21
BRANCH   1  31
HETATM   31  O1  UNL     1      28.302   1.100  53.341  1.00  0.00    -0.353 OA
HETATM   32  C1  UNL     1      29.144   0.849  54.428  1.00  0.00     0.210 C 
ENDBRANCH   1  31
TORSDOF 8
ENDMDL
MODEL 7
REMARK VINA RESULT:      -7.6      2.629      3.583
REMARK  8 active torsions:
REMARK  status: ('A' for Active; 'I' for Inactive)
REMARK    1  A    between atoms: O1_2  and  C2_3 
REMARK    2  A    between atoms: C6_9  and  N3_10 
REMARK    3  A    between atoms: N3_10  and  C7_11 
REMARK    4  A    between atoms: C15_21  and  O2_22 
REMARK    5  A    between atoms: O2_22  and  C16_23 
REMARK    6  A    between atoms: C16_23  and  C17_24 
REMARK    7  A    between atoms: C17_24  and  C18_25 
REMARK    8  A    between atoms: C18_25  and  N4_26 
ROOT
HETATM    1  C2  UNL     1      19.850   0.041  52.429  1.00  0.00     0.103 A 
HETATM    2  C3  UNL     1      20.210  -0.631  53.575  1.00  0.00     0.072 A 
HETATM    3  C4  UNL     1      21.513  -0.706  53.934  1.00  0.00     0.075 A 
HETATM    4  N1  UNL     1      21.822  -1.383  55.078  1.00  0.00    -0.241 NA
HETATM    5  C5  UNL     1      23.113  -1.474  55.462  1.00  0.00     0.236 A 
HETATM    6  N2  UNL     1      24.093  -0.919  54.750  1.00  0.00    -0.224 NA
HETATM    7  C6  UNL     1      23.874  -0.248  53.633  1.00  0.00     0.142 A 
HETATM    8  C13 UNL     1      22.571  -0.148  53.232  1.00  0.00     0.042 A 
HETATM    9  C14 UNL     1      22.148   0.506  52.101  1.00  0.00     0.057 A 
HETATM   10  C15 UNL     1      20.842   0.623  51.674  1.00  0.00     0.103 A 
ENDROOT
BRANCH   7  11
HETATM   11  N3  UNL     1      24.881   0.350  52.870  1.00  0.00    -0.340 N 
HETATM   12  H6  UNL     1      24.681   0.915  52.020  1.00  0.00     0.167 HD
BRANCH  11  13
HETATM   13  C7  UNL     1      26.279   0.307  53.084  1.00  0.00     0.035 A 
HETATM   14  C8  UNL     1      27.036   1.409  53.327  1.00  0.00     0.032 A 
HETATM   15  C9  UNL     1      28.394   1.425  53.529  1.00  0.00     0.046 A 
HETATM   16  C10 UNL     1      29.103   0.228  53.491  1.00  0.00     0.138 A 
HETATM   17  F1  UNL     1      30.427   0.120  53.671  1.00  0.00    -0.204 F 
HETATM   18  C11 UNL     1      28.388  -0.924  53.249  1.00  0.00     0.074 A 
HETATM   19 CL1  UNL     1      29.215  -2.458  53.186  1.00  0.00    -0.081 Cl
HETATM   20  C12 UNL     1      27.034  -0.860  53.057  1.00  0.00     0.056 A 
ENDBRANCH  11  13
ENDBRANCH   7  11
BRANCH  10  21
HETATM   21  O2  UNL     1      20.478   1.291  50.533  1.00  0.00    -0.348 OA
BRANCH  21  22
HETATM   22  C16 UNL     1      20.823   2.619  50.213  1.00  0.00     0.177 C 
BRANCH  22  23
HETATM   23  C17 UNL     1      19.785   3.507  50.860  1.00  0.00     0.046 C 
BRANCH  23  24
HETATM   24  C18 UNL     1      18.879   4.168  49.879  1.00  0.00     0.119 C 
BRANCH  24  25
HETATM   25  N4  UNL     1      17.554   4.204  50.394  1.00  0.00    -0.408 N 
HETATM   26  C19 UNL     1      17.290   3.464  51.576  1.00  0.00     0.143 C 
HETATM   27  C20 UNL     1      16.079   2.594  51.301  1.00  0.00     0.187 C 
HETATM   28  O3  UNL     1      14.948   3.352  51.031  1.00  0.00    -0.388 OA
HETATM   29  C21 UNL     1      15.134   4.291  50.035  1.00  0.00     0.187 C 
HETATM   30  C22 UNL     1      16.511   4.266  49.427  1.00  0.00     0.143 C 
ENDBRANCH  24  25
ENDBRANCH  23  24
ENDBRANCH  22  23
ENDBRANCH  21  22
ENDBRANCH  10  21
BRANCH   1  31
HETATM   31  O1  UNL     1      18.528   0.140  52.027  1.00  0.00    -0.353 OA
HETATM   32  C1  UNL     1      17.572  -0.716  52.580  1.00  0.00     0.210 C 
ENDBRANCH   1  31
TORSDOF 8
ENDMDL
MODEL 8
REMARK VINA RESULT:      -7.6      5.717      8.745
REMARK  8 active torsions:
REMARK  status: ('A' for Active; 'I' for Inactive)
REMARK    1  A    between atoms: O1_2  and  C2_3 
REMARK    2  A    between atoms: C6_9  and  N3_10 
REMARK    3  A    between atoms: N3_10  and  C7_11 
REMARK    4  A    between atoms: C15_21  and  O2_22 
REMARK    5  A    between atoms: O2_22  and  C16_23 
REMARK    6  A    between atoms: C16_23  and  C17_24 
REMARK    7  A    between atoms: C17_24  and  C18_25 
REMARK    8  A    between atoms: C18_25  and  N4_26 
ROOT
HETATM    1  C2  UNL     1      25.105   6.236  50.259  1.00  0.00     0.103 A 
HETATM    2  C3  UNL     1      25.380   7.578  50.403  1.00  0.00     0.072 A 
HETATM    3  C4  UNL     1      26.455   8.117  49.780  1.00  0.00     0.075 A 
HETATM    4  N1  UNL     1      26.688   9.451  49.951  1.00  0.00    -0.241 NA
HETATM    5  C5  UNL     1      27.752  10.018  49.343  1.00  0.00     0.236 A 
HETATM    6  N2  UNL     1      28.580   9.304  48.580  1.00  0.00    -0.224 NA
HETATM    7  C6  UNL     1      28.421   8.011  48.367  1.00  0.00     0.142 A 
HETATM    8  C13 UNL     1      27.348   7.424  48.977  1.00  0.00     0.042 A 
HETATM    9  C14 UNL     1      27.020   6.094  48.875  1.00  0.00     0.057 A 
HETATM   10  C15 UNL     1      25.944   5.476  49.478  1.00  0.00     0.103 A 
ENDROOT
BRANCH   7  11
HETATM   11  N3  UNL     1      29.269   7.240  47.567  1.00  0.00    -0.340 N 
HETATM   12  H6  UNL     1      29.023   6.955  46.598  1.00  0.00     0.167 HD
BRANCH  11  13
HETATM   13  C7  UNL     1      30.546   6.725  47.895  1.00  0.00     0.035 A 
HETATM   14  C8  UNL     1      31.515   7.452  48.509  1.00  0.00     0.032 A 
HETATM   15  C9  UNL     1      32.771   7.007  48.837  1.00  0.00     0.046 A 
HETATM   16  C10 UNL     1      33.132   5.697  48.532  1.00  0.00     0.138 A 
HETATM   17  F1  UNL     1      34.327   5.153  48.801  1.00  0.00    -0.204 F 
HETATM   18  C11 UNL     1      32.189   4.911  47.909  1.00  0.00     0.074 A 
HETATM   19 CL1  UNL     1      32.575   3.260  47.497  1.00  0.00    -0.081 Cl
HETATM   20  C12 UNL     1      30.956   5.427  47.613  1.00  0.00     0.056 A 
ENDBRANCH  11  13
ENDBRANCH   7  11
BRANCH  10  21
HETATM   21  O2  UNL     1      25.666   4.140  49.340  1.00  0.00    -0.348 OA
BRANCH  21  22
HETATM   22  C16 UNL     1      26.544   3.083  49.653  1.00  0.00     0.177 C 
BRANCH  22  23
HETATM   23  C17 UNL     1      26.429   2.846  51.141  1.00  0.00     0.046 C 
BRANCH  23  24
HETATM   24  C18 UNL     1      26.379   1.402  51.506  1.00  0.00     0.119 C 
BRANCH  24  25
HETATM   25  N4  UNL     1      27.387   1.114  52.468  1.00  0.00    -0.408 N 
HETATM   26  C19 UNL     1      27.231  -0.061  53.248  1.00  0.00     0.143 C 
HETATM   27  C20 UNL     1      27.378   0.342  54.703  1.00  0.00     0.187 C 
HETATM   28  O3  UNL     1      28.642   0.848  54.973  1.00  0.00    -0.388 OA
HETATM   29  C21 UNL     1      29.024   1.868  54.124  1.00  0.00     0.187 C 
HETATM   30  C22 UNL     1      27.975   2.240  53.111  1.00  0.00     0.143 C 
ENDBRANCH  24  25
ENDBRANCH  23  24
ENDBRANCH  22  23
ENDBRANCH  21  22
ENDBRANCH  10  21
BRANCH   1  31
HETATM   31  O1  UNL     1      24.016   5.646  50.880  1.00  0.00    -0.353 OA
HETATM   32  C1  UNL     1      22.725   5.935  50.430  1.00  0.00     0.210 C 
ENDBRANCH   1  31
TORSDOF 8
ENDMDL
MODEL 9
REMARK VINA RESULT:      -7.5      2.190      2.622
REMARK  8 active torsions:
REMARK  status: ('A' for Active; 'I' for Inactive)
REMARK    1  A    between atoms: O1_2  and  C2_3 
REMARK    2  A    between atoms: C6_9  and  N3_10 
REMARK    3  A    between atoms: N3_10  and  C7_11 
REMARK    4  A    between atoms: C15_21  and  O2_22 
REMARK    5  A    between atoms: O2_22  and  C16_23 
REMARK    6  A    between atoms: C16_23  and  C17_24 
REMARK    7  A    between atoms: C17_24  and  C18_25 
REMARK    8  A    between atoms: C18_25  and  N4_26 
ROOT
HETATM    1  C2  UNL     1      20.802   2.676  51.962  1.00  0.00     0.103 A 
HETATM    2  C3  UNL     1      20.496   1.856  53.025  1.00  0.00     0.072 A 
HETATM    3  C4  UNL     1      21.388   0.925  53.439  1.00  0.00     0.075 A 
HETATM    4  N1  UNL     1      21.041   0.135  54.496  1.00  0.00    -0.241 NA
HETATM    5  C5  UNL     1      21.909  -0.802  54.932  1.00  0.00     0.236 A 
HETATM    6  N2  UNL     1      23.097  -0.974  54.353  1.00  0.00    -0.224 NA
HETATM    7  C6  UNL     1      23.505  -0.249  53.326  1.00  0.00     0.142 A 
HETATM    8  C13 UNL     1      22.635   0.703  52.875  1.00  0.00     0.042 A 
HETATM    9  C14 UNL     1      22.879   1.550  51.822  1.00  0.00     0.057 A 
HETATM   10  C15 UNL     1      22.022   2.520  51.346  1.00  0.00     0.103 A 
ENDROOT
BRANCH   7  11
HETATM   11  N3  UNL     1      24.747  -0.403  52.705  1.00  0.00    -0.340 N 
HETATM   12  H6  UNL     1      24.873  -0.947  51.827  1.00  0.00     0.167 HD
BRANCH  11  13
HETATM   13  C7  UNL     1      25.998   0.114  53.118  1.00  0.00     0.035 A 
HETATM   14  C8  UNL     1      26.198   1.413  53.461  1.00  0.00     0.032 A 
HETATM   15  C9  UNL     1      27.391   1.967  53.855  1.00  0.00     0.046 A 
HETATM   16  C10 UNL     1      28.526   1.165  53.925  1.00  0.00     0.138 A 
HETATM   17  F1  UNL     1      29.741   1.594  54.294  1.00  0.00    -0.204 F 
HETATM   18  C11 UNL     1      28.384  -0.163  53.589  1.00  0.00     0.074 A 
HETATM   19 CL1  UNL     1      29.767  -1.224  53.654  1.00  0.00    -0.081 Cl
HETATM   20  C12 UNL     1      27.160  -0.643  53.204  1.00  0.00     0.056 A 
ENDBRANCH  11  13
ENDBRANCH   7  11
BRANCH  10  21
HETATM   21  O2  UNL     1      22.321   3.339  50.287  1.00  0.00    -0.348 OA
BRANCH  21  22
HETATM   22  C16 UNL     1      22.220   2.990  48.926  1.00  0.00     0.177 C 
BRANCH  22  23
HETATM   23  C17 UNL     1      22.683   4.189  48.132  1.00  0.00     0.046 C 
BRANCH  23  24
HETATM   24  C18 UNL     1      22.083   5.472  48.597  1.00  0.00     0.119 C 
BRANCH  24  25
HETATM   25  N4  UNL     1      23.104   6.330  49.093  1.00  0.00    -0.408 N 
HETATM   26  C19 UNL     1      24.448   5.996  48.785  1.00  0.00     0.143 C 
HETATM   27  C20 UNL     1      25.221   5.991  50.089  1.00  0.00     0.187 C 
HETATM   28  O3  UNL     1      25.238   7.244  50.684  1.00  0.00    -0.388 OA
HETATM   29  C21 UNL     1      23.983   7.799  50.842  1.00  0.00     0.187 C 
HETATM   30  C22 UNL     1      22.863   6.912  50.369  1.00  0.00     0.143 C 
ENDBRANCH  24  25
ENDBRANCH  23  24
ENDBRANCH  22  23
ENDBRANCH  21  22
ENDBRANCH  10  21
BRANCH   1  31
HETATM   31  O1  UNL     1      19.917   3.641  51.509  1.00  0.00    -0.353 OA
HETATM   32  C1  UNL     1      18.562   3.327  51.375  1.00  0.00     0.210 C 
ENDBRANCH   1  31
TORSDOF 8
ENDMDL
