MODEL 1
REMARK VINA RESULT:      -7.4      0.000      0.000
REMARK  1 active torsions:
REMARK  status: ('A' for Active; 'I' for Inactive)
REMARK    1  A    between atoms: O1_2  and  C2_3 
ROOT
HETATM    1  C2  UNL     1      25.526   0.034  53.446  1.00  0.00     0.048 C 
HETATM    2  C3  UNL     1      24.668  -0.680  54.161  1.00  0.00     0.010 C 
HETATM    3  C4  UNL     1      23.453  -1.340  54.754  1.00  0.00     0.068 C 
HETATM    4  C5  UNL     1      22.288  -0.656  54.081  1.00  0.00    -0.052 A 
HETATM    5  C6  UNL     1      21.315  -0.055  54.889  1.00  0.00     0.007 A 
HETATM    6  C7  UNL     1      20.317   0.656  54.253  1.00  0.00     0.003 A 
HETATM    7  C8  UNL     1      20.278   0.771  52.880  1.00  0.00     0.037 A 
HETATM    8  C9  UNL     1      21.236   0.179  52.087  1.00  0.00     0.072 A 
HETATM    9  C10 UNL     1      22.229  -0.534  52.721  1.00  0.00     0.044 A 
HETATM   10  O2  UNL     1      21.404   0.171  50.728  1.00  0.00    -0.319 OA
HETATM   11  C11 UNL     1      22.024   1.255  50.095  1.00  0.00     0.301 A 
HETATM   12  N1  UNL     1      21.053   2.286  49.916  1.00  0.00    -0.245 NA
HETATM   13  C12 UNL     1      21.492   3.368  50.398  1.00  0.00     0.230 A 
HETATM   14  N2  UNL     1      22.778   3.146  50.931  1.00  0.00    -0.246 NA
HETATM   15  C13 UNL     1      23.151   1.892  50.777  1.00  0.00     0.070 A 
HETATM   16  C14 UNL     1      24.511   1.652  51.314  1.00  0.00     0.105 A 
HETATM   17  C15 UNL     1      25.115   0.929  52.294  1.00  0.00     0.018 A 
HETATM   18  O3  UNL     1      26.065   1.678  51.566  1.00  0.00     0.000 OA
HETATM   19  C16 UNL     1      27.119   2.406  52.092  1.00  0.00     0.000 C 
ENDROOT
BRANCH   1  20
HETATM   20  O1  UNL     1      26.932   0.126  53.565  1.00  0.00    -0.360 OA
HETATM   21  C1  UNL     1      27.609   0.082  54.785  1.00  0.00     0.209 C 
ENDBRANCH   1  20
TORSDOF 1
ENDMDL
MODEL 2
REMARK VINA RESULT:      -7.2      1.758      4.791
REMARK  1 active torsions:
REMARK  status: ('A' for Active; 'I' for Inactive)
REMARK    1  A    between atoms: O1_2  and  C2_3 
ROOT
HETATM    1  C2  UNL     1      21.265   0.030  52.596  1.00  0.00     0.048 C 
HETATM    2  C3  UNL     1      22.188  -0.519  53.374  1.00  0.00     0.010 C 
HETATM    3  C4  UNL     1      23.446  -0.892  54.108  1.00  0.00     0.068 C 
HETATM    4  C5  UNL     1      24.523  -0.063  53.454  1.00  0.00    -0.052 A 
HETATM    5  C6  UNL     1      25.641  -0.723  52.926  1.00  0.00     0.007 A 
HETATM    6  C7  UNL     1      26.561   0.042  52.239  1.00  0.00     0.003 A 
HETATM    7  C8  UNL     1      26.389   1.400  52.075  1.00  0.00     0.037 A 
HETATM    8  C9  UNL     1      25.289   2.047  52.594  1.00  0.00     0.072 A 
HETATM    9  C10 UNL     1      24.374   1.285  53.284  1.00  0.00     0.044 A 
HETATM   10  O2  UNL     1      24.910   3.363  52.546  1.00  0.00    -0.319 OA
HETATM   11  C11 UNL     1      24.253   3.858  51.412  1.00  0.00     0.301 A 
HETATM   12  N1  UNL     1      25.235   4.158  50.420  1.00  0.00    -0.245 NA
HETATM   13  C12 UNL     1      24.932   3.581  49.337  1.00  0.00     0.230 A 
HETATM   14  N2  UNL     1      23.735   2.857  49.521  1.00  0.00    -0.246 NA
HETATM   15  C13 UNL     1      23.281   2.987  50.750  1.00  0.00     0.070 A 
HETATM   16  C14 UNL     1      22.011   2.248  50.949  1.00  0.00     0.105 A 
HETATM   17  C15 UNL     1      21.534   1.206  51.679  1.00  0.00     0.018 A 
HETATM   18  O3  UNL     1      20.519   1.752  50.862  1.00  0.00     0.000 OA
HETATM   19  C16 UNL     1      19.600   1.044  50.107  1.00  0.00     0.000 C 
ENDROOT
BRANCH   1  20
HETATM   20  O1  UNL     1      19.901  -0.313  52.445  1.00  0.00    -0.360 OA
HETATM   21  C1  UNL     1      19.133  -0.892  53.457  1.00  0.00     0.209 C 
ENDBRANCH   1  20
TORSDOF 1
ENDMDL
MODEL 3
REMARK VINA RESULT:      -7.2      2.623      4.748
REMARK  1 active torsions:
REMARK  status: ('A' for Active; 'I' for Inactive)
REMARK    1  A    between atoms: O1_2  and  C2_3 
ROOT
HETATM    1  C2  UNL     1      24.109   3.691  51.001  1.00  0.00     0.048 C 
HETATM    2  C3  UNL     1      22.910   3.410  51.488  1.00  0.00     0.010 C 
HETATM    3  C4  UNL     1      21.718   2.807  52.181  1.00  0.00     0.068 C 
HETATM    4  C5  UNL     1      22.206   1.466  52.669  1.00  0.00    -0.052 A 
HETATM    5  C6  UNL     1      21.498   0.321  52.282  1.00  0.00     0.007 A 
HETATM    6  C7  UNL     1      22.022  -0.902  52.650  1.00  0.00     0.003 A 
HETATM    7  C8  UNL     1      23.194  -0.995  53.368  1.00  0.00     0.037 A 
HETATM    8  C9  UNL     1      23.890   0.132  53.748  1.00  0.00     0.072 A 
HETATM    9  C10 UNL     1      23.364   1.351  53.386  1.00  0.00     0.044 A 
HETATM   10  O2  UNL     1      25.062   0.278  54.442  1.00  0.00    -0.319 OA
HETATM   11  C11 UNL     1      26.287   0.150  53.776  1.00  0.00     0.301 A 
HETATM   12  N1  UNL     1      26.591  -1.240  53.659  1.00  0.00    -0.245 NA
HETATM   13  C12 UNL     1      26.837  -1.518  52.451  1.00  0.00     0.230 A 
HETATM   14  N2  UNL     1      26.717  -0.347  51.675  1.00  0.00    -0.246 NA
HETATM   15  C13 UNL     1      26.388   0.689  52.420  1.00  0.00     0.070 A 
HETATM   16  C14 UNL     1      26.281   1.931  51.618  1.00  0.00     0.105 A 
HETATM   17  C15 UNL     1      25.337   2.839  51.254  1.00  0.00     0.018 A 
HETATM   18  O3  UNL     1      26.595   3.176  50.706  1.00  0.00     0.000 OA
HETATM   19  C16 UNL     1      26.842   3.602  49.412  1.00  0.00     0.000 C 
ENDROOT
BRANCH   1  20
HETATM   20  O1  UNL     1      24.515   4.777  50.191  1.00  0.00    -0.360 OA
HETATM   21  C1  UNL     1      23.627   5.579  49.472  1.00  0.00     0.209 C 
ENDBRANCH   1  20
TORSDOF 1
ENDMDL
MODEL 4
REMARK VINA RESULT:      -7.2      2.229      2.760
REMARK  1 active torsions:
REMARK  status: ('A' for Active; 'I' for Inactive)
REMARK    1  A    between atoms: O1_2  and  C2_3 
ROOT
HETATM    1  C2  UNL     1      23.748   1.877  52.943  1.00  0.00     0.048 C 
HETATM    2  C3  UNL     1      23.528   0.590  53.173  1.00  0.00     0.010 C 
HETATM    3  C4  UNL     1      22.957  -0.797  53.292  1.00  0.00     0.068 C 
HETATM    4  C5  UNL     1      21.505  -0.638  52.917  1.00  0.00    -0.052 A 
HETATM    5  C6  UNL     1      20.534  -1.073  53.829  1.00  0.00     0.007 A 
HETATM    6  C7  UNL     1      19.213  -0.822  53.514  1.00  0.00     0.003 A 
HETATM    7  C8  UNL     1      18.862  -0.169  52.352  1.00  0.00     0.037 A 
HETATM    8  C9  UNL     1      19.818   0.259  51.457  1.00  0.00     0.072 A 
HETATM    9  C10 UNL     1      21.135   0.003  51.768  1.00  0.00     0.044 A 
HETATM   10  O2  UNL     1      19.706   0.927  50.267  1.00  0.00    -0.319 OA
HETATM   11  C11 UNL     1      19.553   2.319  50.261  1.00  0.00     0.301 A 
HETATM   12  N1  UNL     1      18.178   2.621  50.500  1.00  0.00    -0.245 NA
HETATM   13  C12 UNL     1      18.086   3.435  51.462  1.00  0.00     0.230 A 
HETATM   14  N2  UNL     1      19.379   3.736  51.936  1.00  0.00    -0.246 NA
HETATM   15  C13 UNL     1      20.302   3.094  51.250  1.00  0.00     0.070 A 
HETATM   16  C14 UNL     1      21.668   3.421  51.725  1.00  0.00     0.105 A 
HETATM   17  C15 UNL     1      22.728   2.800  52.306  1.00  0.00     0.018 A 
HETATM   18  O3  UNL     1      23.006   4.168  52.088  1.00  0.00     0.000 OA
HETATM   19  C16 UNL     1      23.618   5.036  52.976  1.00  0.00     0.000 C 
ENDROOT
BRANCH   1  20
HETATM   20  O1  UNL     1      24.903   2.649  53.206  1.00  0.00    -0.360 OA
HETATM   21  C1  UNL     1      26.155   2.097  53.484  1.00  0.00     0.209 C 
ENDBRANCH   1  20
TORSDOF 1
ENDMDL
MODEL 5
REMARK VINA RESULT:      -7.1      1.582      2.062
REMARK  1 active torsions:
REMARK  status: ('A' for Active; 'I' for Inactive)
REMARK    1  A    between atoms: O1_2  and  C2_3 
ROOT
HETATM    1  C2  UNL     1      25.227   0.217  52.944  1.00  0.00     0.048 C 
HETATM    2  C3  UNL     1      24.021  -0.290  53.154  1.00  0.00     0.010 C 
HETATM    3  C4  UNL     1      22.548  -0.596  53.181  1.00  0.00     0.068 C 
HETATM    4  C5  UNL     1      21.907   0.582  52.490  1.00  0.00    -0.052 A 
HETATM    5  C6  UNL     1      20.913   1.293  53.175  1.00  0.00     0.007 A 
HETATM    6  C7  UNL     1      20.417   2.429  52.569  1.00  0.00     0.003 A 
HETATM    7  C8  UNL     1      20.880   2.851  51.341  1.00  0.00     0.037 A 
HETATM    8  C9  UNL     1      21.858   2.151  50.669  1.00  0.00     0.072 A 
HETATM    9  C10 UNL     1      22.349   1.015  51.271  1.00  0.00     0.044 A 
HETATM   10  O2  UNL     1      22.469   2.384  49.466  1.00  0.00    -0.319 OA
HETATM   11  C11 UNL     1      23.532   3.294  49.388  1.00  0.00     0.301 A 
HETATM   12  N1  UNL     1      22.989   4.612  49.309  1.00  0.00    -0.245 NA
HETATM   13  C12 UNL     1      23.508   5.337  50.204  1.00  0.00     0.230 A 
HETATM   14  N2  UNL     1      24.428   4.567  50.944  1.00  0.00    -0.246 NA
HETATM   15  C13 UNL     1      24.485   3.329  50.498  1.00  0.00     0.070 A 
HETATM   16  C14 UNL     1      25.466   2.515  51.255  1.00  0.00     0.105 A 
HETATM   17  C15 UNL     1      25.485   1.430  52.072  1.00  0.00     0.018 A 
HETATM   18  O3  UNL     1      26.789   1.939  51.884  1.00  0.00     0.000 OA
HETATM   19  C16 UNL     1      27.753   2.117  52.862  1.00  0.00     0.000 C 
ENDROOT
BRANCH   1  20
HETATM   20  O1  UNL     1      26.480  -0.217  53.436  1.00  0.00    -0.360 OA
HETATM   21  C1  UNL     1      27.114  -1.386  53.009  1.00  0.00     0.209 C 
ENDBRANCH   1  20
TORSDOF 1
ENDMDL
MODEL 6
REMARK VINA RESULT:      -6.9      2.003      4.190
REMARK  1 active torsions:
REMARK  status: ('A' for Active; 'I' for Inactive)
REMARK    1  A    between atoms: O1_2  and  C2_3 
ROOT
HETATM    1  C2  UNL     1      26.667   2.041  51.993  1.00  0.00     0.048 C 
HETATM    2  C3  UNL     1      26.462   2.917  51.020  1.00  0.00     0.010 C 
HETATM    3  C4  UNL     1      25.885   3.828  49.971  1.00  0.00     0.068 C 
HETATM    4  C5  UNL     1      24.422   3.463  49.920  1.00  0.00    -0.052 A 
HETATM    5  C6  UNL     1      23.875   3.086  48.687  1.00  0.00     0.007 A 
HETATM    6  C7  UNL     1      22.564   2.653  48.682  1.00  0.00     0.003 A 
HETATM    7  C8  UNL     1      21.822   2.592  49.842  1.00  0.00     0.037 A 
HETATM    8  C9  UNL     1      22.362   2.963  51.054  1.00  0.00     0.072 A 
HETATM    9  C10 UNL     1      23.667   3.399  51.058  1.00  0.00     0.044 A 
HETATM   10  O2  UNL     1      21.826   2.973  52.315  1.00  0.00    -0.319 OA
HETATM   11  C11 UNL     1      21.791   1.792  53.067  1.00  0.00     0.301 A 
HETATM   12  N1  UNL     1      20.660   1.027  52.649  1.00  0.00    -0.245 NA
HETATM   13  C12 UNL     1      21.029  -0.142  52.346  1.00  0.00     0.230 A 
HETATM   14  N2  UNL     1      22.422  -0.249  52.536  1.00  0.00    -0.246 NA
HETATM   15  C13 UNL     1      22.935   0.884  52.969  1.00  0.00     0.070 A 
HETATM   16  C14 UNL     1      24.396   0.777  53.193  1.00  0.00     0.105 A 
HETATM   17  C15 UNL     1      25.550   1.305  52.707  1.00  0.00     0.018 A 
HETATM   18  O3  UNL     1      25.819   0.374  53.734  1.00  0.00     0.000 OA
HETATM   19  C16 UNL     1      26.803  -0.600  53.727  1.00  0.00     0.000 C 
ENDROOT
BRANCH   1  20
HETATM   20  O1  UNL     1      27.884   1.613  52.571  1.00  0.00    -0.360 OA
HETATM   21  C1  UNL     1      28.633   2.387  53.461  1.00  0.00     0.209 C 
ENDBRANCH   1  20
TORSDOF 1
ENDMDL
MODEL 7
REMARK VINA RESULT:      -6.9      2.338      4.835
REMARK  1 active torsions:
REMARK  status: ('A' for Active; 'I' for Inactive)
REMARK    1  A    between atoms: O1_2  and  C2_3 
ROOT
HETATM    1  C2  UNL     1      22.226   0.212  53.100  1.00  0.00     0.048 C 
HETATM    2  C3  UNL     1      23.548   0.260  53.178  1.00  0.00     0.010 C 
HETATM    3  C4  UNL     1      25.003   0.640  53.124  1.00  0.00     0.068 C 
HETATM    4  C5  UNL     1      25.024   1.935  52.351  1.00  0.00    -0.052 A 
HETATM    5  C6  UNL     1      25.832   2.013  51.209  1.00  0.00     0.007 A 
HETATM    6  C7  UNL     1      25.755   3.168  50.457  1.00  0.00     0.003 A 
HETATM    7  C8  UNL     1      24.917   4.204  50.813  1.00  0.00     0.037 A 
HETATM    8  C9  UNL     1      24.124   4.125  51.937  1.00  0.00     0.072 A 
HETATM    9  C10 UNL     1      24.205   2.975  52.689  1.00  0.00     0.044 A 
HETATM   10  O2  UNL     1      23.222   5.009  52.469  1.00  0.00    -0.319 OA
HETATM   11  C11 UNL     1      21.920   5.069  51.958  1.00  0.00     0.301 A 
HETATM   12  N1  UNL     1      21.936   5.876  50.780  1.00  0.00    -0.245 NA
HETATM   13  C12 UNL     1      21.406   5.240  49.825  1.00  0.00     0.230 A 
HETATM   14  N2  UNL     1      20.998   3.972  50.287  1.00  0.00    -0.246 NA
HETATM   15  C13 UNL     1      21.281   3.813  51.563  1.00  0.00     0.070 A 
HETATM   16  C14 UNL     1      20.837   2.491  52.065  1.00  0.00     0.105 A 
HETATM   17  C15 UNL     1      21.377   1.351  52.571  1.00  0.00     0.018 A 
HETATM   18  O3  UNL     1      19.970   1.251  52.500  1.00  0.00     0.000 OA
HETATM   19  C16 UNL     1      19.243   0.160  52.054  1.00  0.00     0.000 C 
ENDROOT
BRANCH   1  20
HETATM   20  O1  UNL     1      21.344  -0.828  53.471  1.00  0.00    -0.360 OA
HETATM   21  C1  UNL     1      21.542  -1.651  54.583  1.00  0.00     0.209 C 
ENDBRANCH   1  20
TORSDOF 1
ENDMDL
MODEL 8
REMARK VINA RESULT:      -6.7      2.076      4.362
REMARK  1 active torsions:
REMARK  status: ('A' for Active; 'I' for Inactive)
REMARK    1  A    between atoms: O1_2  and  C2_3 
ROOT
HETATM    1  C2  UNL     1      24.157   0.618  52.970  1.00  0.00     0.048 C 
HETATM    2  C3  UNL     1      24.925   1.390  52.214  1.00  0.00     0.010 C 
HETATM    3  C4  UNL     1      25.485   2.422  51.273  1.00  0.00     0.068 C 
HETATM    4  C5  UNL     1      24.269   3.059  50.648  1.00  0.00    -0.052 A 
HETATM    5  C6  UNL     1      24.167   3.066  49.251  1.00  0.00     0.007 A 
HETATM    6  C7  UNL     1      22.999   3.557  48.704  1.00  0.00     0.003 A 
HETATM    7  C8  UNL     1      21.972   4.021  49.498  1.00  0.00     0.037 A 
HETATM    8  C9  UNL     1      22.073   4.013  50.873  1.00  0.00     0.072 A 
HETATM    9  C10 UNL     1      23.240   3.528  51.418  1.00  0.00     0.044 A 
HETATM   10  O2  UNL     1      21.192   4.405  51.845  1.00  0.00    -0.319 OA
HETATM   11  C11 UNL     1      20.166   3.540  52.247  1.00  0.00     0.301 A 
HETATM   12  N1  UNL     1      19.096   3.645  51.307  1.00  0.00    -0.245 NA
HETATM   13  C12 UNL     1      18.789   2.495  50.885  1.00  0.00     0.230 A 
HETATM   14  N2  UNL     1      19.623   1.540  51.504  1.00  0.00    -0.246 NA
HETATM   15  C13 UNL     1      20.471   2.111  52.334  1.00  0.00     0.070 A 
HETATM   16  C14 UNL     1      21.338   1.115  53.006  1.00  0.00     0.105 A 
HETATM   17  C15 UNL     1      22.654   0.778  53.074  1.00  0.00     0.018 A 
HETATM   18  O3  UNL     1      21.875  -0.075  53.887  1.00  0.00     0.000 OA
HETATM   19  C16 UNL     1      21.994  -1.450  53.988  1.00  0.00     0.000 C 
ENDROOT
BRANCH   1  20
HETATM   20  O1  UNL     1      24.521  -0.460  53.809  1.00  0.00    -0.360 OA
HETATM   21  C1  UNL     1      25.644  -0.449  54.639  1.00  0.00     0.209 C 
ENDBRANCH   1  20
TORSDOF 1
ENDMDL
MODEL 9
REMARK VINA RESULT:      -6.7      2.231      4.266
REMARK  1 active torsions:
REMARK  status: ('A' for Active; 'I' for Inactive)
REMARK    1  A    between atoms: O1_2  and  C2_3 
ROOT
HETATM    1  C2  UNL     1      24.568   2.514  50.857  1.00  0.00     0.048 C 
HETATM    2  C3  UNL     1      23.554   3.001  50.156  1.00  0.00     0.010 C 
HETATM    3  C4  UNL     1      22.209   3.345  49.577  1.00  0.00     0.068 C 
HETATM    4  C5  UNL     1      21.257   2.382  50.241  1.00  0.00    -0.052 A 
HETATM    5  C6  UNL     1      20.460   1.569  49.425  1.00  0.00     0.007 A 
HETATM    6  C7  UNL     1      19.675   0.621  50.050  1.00  0.00     0.003 A 
HETATM    7  C8  UNL     1      19.675   0.478  51.421  1.00  0.00     0.037 A 
HETATM    8  C9  UNL     1      20.460   1.278  52.222  1.00  0.00     0.072 A 
HETATM    9  C10 UNL     1      21.239   2.226  51.599  1.00  0.00     0.044 A 
HETATM   10  O2  UNL     1      20.628   1.306  53.581  1.00  0.00    -0.319 OA
HETATM   11  C11 UNL     1      21.504   0.402  54.194  1.00  0.00     0.301 A 
HETATM   12  N1  UNL     1      20.823  -0.843  54.357  1.00  0.00    -0.245 NA
HETATM   13  C12 UNL     1      21.516  -1.773  53.856  1.00  0.00     0.230 A 
HETATM   14  N2  UNL     1      22.702  -1.227  53.324  1.00  0.00    -0.246 NA
HETATM   15  C13 UNL     1      22.750   0.078  53.499  1.00  0.00     0.070 A 
HETATM   16  C14 UNL     1      24.004   0.659  52.963  1.00  0.00     0.105 A 
HETATM   17  C15 UNL     1      24.401   1.526  51.994  1.00  0.00     0.018 A 
HETATM   18  O3  UNL     1      25.514   1.027  52.708  1.00  0.00     0.000 OA
HETATM   19  C16 UNL     1      26.712   0.594  52.167  1.00  0.00     0.000 C 
ENDROOT
BRANCH   1  20
HETATM   20  O1  UNL     1      25.952   2.777  50.734  1.00  0.00    -0.360 OA
HETATM   21  C1  UNL     1      26.530   3.362  49.604  1.00  0.00     0.209 C 
ENDBRANCH   1  20
TORSDOF 1
ENDMDL
