MODEL 1
REMARK VINA RESULT:      -9.9      0.000      0.000
REMARK  2 active torsions:
REMARK  status: ('A' for Active; 'I' for Inactive)
REMARK    1  A    between atoms: C5_5  and  N1_6 
REMARK    2  A    between atoms: N1_6  and  C6_7 
ROOT
HETATM    1  C6  UNL     1      25.707   2.762  51.557  1.00  0.00     0.138 A 
HETATM    2  N2  UNL     1      26.885   3.223  51.043  1.00  0.00    -0.242 NA
HETATM    3  C7  UNL     1      26.797   3.705  49.784  1.00  0.00     0.120 A 
HETATM    4  C8  UNL     1      25.558   3.693  49.165  1.00  0.00     0.031 A 
HETATM    5  C9  UNL     1      24.311   3.232  49.671  1.00  0.00    -0.018 A 
HETATM    6  C10 UNL     1      24.465   2.745  50.928  1.00  0.00     0.018 A 
HETATM    7  C11 UNL     1      23.712   1.966  51.741  1.00  0.00     0.016 C 
HETATM    8  C12 UNL     1      22.434   1.305  52.064  1.00  0.00     0.126 C 
HETATM    9  C13 UNL     1      21.925   1.133  50.631  1.00  0.00     0.197 C 
HETATM   10  O1  UNL     1      20.864   0.416  50.263  1.00  0.00    -0.383 OA
HETATM   11  C14 UNL     1      20.890   0.922  48.872  1.00  0.00     0.227 C 
HETATM   12  C15 UNL     1      21.012   2.424  49.050  1.00  0.00     0.071 C 
HETATM   13  C16 UNL     1      22.077   3.198  48.908  1.00  0.00     0.095 C 
HETATM   14  C17 UNL     1      23.497   3.535  48.630  1.00  0.00     0.051 C 
HETATM   15  O2  UNL     1      21.886   4.592  49.131  1.00  0.00    -0.340 OA
HETATM   16  C18 UNL     1      20.647   5.302  49.162  1.00  0.00     0.279 C 
HETATM   17  C19 UNL     1      19.603   4.499  49.906  1.00  0.00     0.248 C 
HETATM   18  O3  UNL     1      18.784   5.110  50.594  1.00  0.00    -0.271 OA
HETATM   19  N3  UNL     1      19.925   3.187  49.549  1.00  0.00    -0.315 N 
HETATM   20  C20 UNL     1      18.948   2.404  50.366  1.00  0.00     0.133 C 
HETATM   21  C21 UNL     1      19.166   2.724  51.810  1.00  0.00     0.040 C 
HETATM   22  C22 UNL     1      20.494   2.852  52.443  1.00  0.00     0.118 C 
HETATM   23  N4  UNL     1      21.370   1.835  52.739  1.00  0.00    -0.407 N 
HETATM   24  C23 UNL     1      20.935   0.932  53.803  1.00  0.00     0.144 C 
ENDROOT
BRANCH   1  25
HETATM   25  N1  UNL     1      25.989   2.319  52.904  1.00  0.00    -0.340 N 
HETATM   26  H6  UNL     1      25.706   2.479  53.906  1.00  0.00     0.167 HD
BRANCH  25  27
HETATM   27  C5  UNL     1      26.984   1.336  53.133  1.00  0.00     0.035 A 
HETATM   28  C4  UNL     1      28.231   1.658  53.681  1.00  0.00     0.030 A 
HETATM   29  C3  UNL     1      29.255   0.771  53.904  1.00  0.00     0.011 A 
HETATM   30  C2  UNL     1      29.072  -0.547  53.573  1.00  0.00    -0.040 A 
HETATM   31  C1  UNL     1      30.145  -1.547  53.794  1.00  0.00     0.050 C 
HETATM   32  C25 UNL     1      27.891  -0.954  53.035  1.00  0.00     0.042 A 
HETATM   33  C24 UNL     1      26.909  -0.009  52.840  1.00  0.00     0.053 A 
HETATM   34 CL1  UNL     1      27.618  -2.625  52.599  1.00  0.00    -0.084 Cl
ENDBRANCH  25  27
ENDBRANCH   1  25
TORSDOF 2
ENDMDL
MODEL 2
REMARK VINA RESULT:      -9.8      2.117      4.320
REMARK  2 active torsions:
REMARK  status: ('A' for Active; 'I' for Inactive)
REMARK    1  A    between atoms: C5_5  and  N1_6 
REMARK    2  A    between atoms: N1_6  and  C6_7 
ROOT
HETATM    1  C6  UNL     1      23.933  -0.454  53.348  1.00  0.00     0.138 A 
HETATM    2  N2  UNL     1      24.184  -1.172  54.481  1.00  0.00    -0.242 NA
HETATM    3  C7  UNL     1      23.142  -1.252  55.336  1.00  0.00     0.120 A 
HETATM    4  C8  UNL     1      21.958  -0.626  54.984  1.00  0.00     0.031 A 
HETATM    5  C9  UNL     1      21.657   0.121  53.812  1.00  0.00    -0.018 A 
HETATM    6  C10 UNL     1      22.744   0.181  53.002  1.00  0.00     0.018 A 
HETATM    7  C11 UNL     1      23.095   0.951  51.944  1.00  0.00     0.016 C 
HETATM    8  C12 UNL     1      22.751   1.934  50.900  1.00  0.00     0.126 C 
HETATM    9  C13 UNL     1      21.617   2.639  51.649  1.00  0.00     0.197 C 
HETATM   10  O1  UNL     1      21.017   3.767  51.269  1.00  0.00    -0.383 OA
HETATM   11  C14 UNL     1      19.958   3.656  52.298  1.00  0.00     0.227 C 
HETATM   12  C15 UNL     1      19.479   2.224  52.152  1.00  0.00     0.071 C 
HETATM   13  C16 UNL     1      19.745   1.173  52.913  1.00  0.00     0.095 C 
HETATM   14  C17 UNL     1      20.353   0.416  54.036  1.00  0.00     0.051 C 
HETATM   15  O2  UNL     1      19.136  -0.059  52.533  1.00  0.00    -0.340 OA
HETATM   16  C18 UNL     1      18.029  -0.240  51.650  1.00  0.00     0.279 C 
HETATM   17  C19 UNL     1      18.159   0.676  50.453  1.00  0.00     0.248 C 
HETATM   18  O3  UNL     1      17.772   0.260  49.360  1.00  0.00    -0.271 OA
HETATM   19  N3  UNL     1      18.734   1.819  51.014  1.00  0.00    -0.315 N 
HETATM   20  C20 UNL     1      18.943   2.675  49.806  1.00  0.00     0.133 C 
HETATM   21  C21 UNL     1      19.828   1.943  48.848  1.00  0.00     0.040 C 
HETATM   22  C22 UNL     1      21.027   1.176  49.241  1.00  0.00     0.118 C 
HETATM   23  N4  UNL     1      22.233   1.685  49.660  1.00  0.00    -0.407 N 
HETATM   24  C23 UNL     1      23.001   2.384  48.632  1.00  0.00     0.144 C 
ENDROOT
BRANCH   1  25
HETATM   25  N1  UNL     1      25.139  -0.503  52.551  1.00  0.00    -0.340 N 
HETATM   26  H6  UNL     1      25.522  -0.888  51.649  1.00  0.00     0.167 HD
BRANCH  25  27
HETATM   27  C5  UNL     1      26.320   0.129  53.014  1.00  0.00     0.035 A 
HETATM   28  C4  UNL     1      26.348   1.485  53.359  1.00  0.00     0.030 A 
HETATM   29  C3  UNL     1      27.457   2.175  53.785  1.00  0.00     0.011 A 
HETATM   30  C2  UNL     1      28.649   1.508  53.893  1.00  0.00    -0.040 A 
HETATM   31  C1  UNL     1      29.876   2.206  54.349  1.00  0.00     0.050 C 
HETATM   32  C25 UNL     1      28.719   0.187  53.581  1.00  0.00     0.042 A 
HETATM   33  C24 UNL     1      27.567  -0.441  53.160  1.00  0.00     0.053 A 
HETATM   34 CL1  UNL     1      30.221  -0.700  53.704  1.00  0.00    -0.084 Cl
ENDBRANCH  25  27
ENDBRANCH   1  25
TORSDOF 2
ENDMDL
MODEL 3
REMARK VINA RESULT:      -9.5      1.700      3.705
REMARK  2 active torsions:
REMARK  status: ('A' for Active; 'I' for Inactive)
REMARK    1  A    between atoms: C5_5  and  N1_6 
REMARK    2  A    between atoms: N1_6  and  C6_7 
ROOT
HETATM    1  C6  UNL     1      24.238   1.238  53.189  1.00  0.00     0.138 A 
HETATM    2  N2  UNL     1      24.128   0.018  53.792  1.00  0.00    -0.242 NA
HETATM    3  C7  UNL     1      23.010  -0.668  53.469  1.00  0.00     0.120 A 
HETATM    4  C8  UNL     1      22.122  -0.088  52.579  1.00  0.00     0.031 A 
HETATM    5  C9  UNL     1      22.207   1.173  51.925  1.00  0.00    -0.018 A 
HETATM    6  C10 UNL     1      23.338   1.821  52.301  1.00  0.00     0.018 A 
HETATM    7  C11 UNL     1      23.770   3.102  52.212  1.00  0.00     0.016 C 
HETATM    8  C12 UNL     1      23.634   4.469  51.675  1.00  0.00     0.126 C 
HETATM    9  C13 UNL     1      22.116   4.461  51.478  1.00  0.00     0.197 C 
HETATM   10  O1  UNL     1      21.366   5.519  51.175  1.00  0.00    -0.383 OA
HETATM   11  C14 UNL     1      20.155   4.704  50.928  1.00  0.00     0.227 C 
HETATM   12  C15 UNL     1      20.659   3.599  50.018  1.00  0.00     0.071 C 
HETATM   13  C16 UNL     1      20.938   2.338  50.312  1.00  0.00     0.095 C 
HETATM   14  C17 UNL     1      21.084   1.132  51.166  1.00  0.00     0.051 C 
HETATM   15  O2  UNL     1      21.387   1.518  49.236  1.00  0.00    -0.340 OA
HETATM   16  C18 UNL     1      21.261   1.780  47.838  1.00  0.00     0.279 C 
HETATM   17  C19 UNL     1      21.553   3.236  47.550  1.00  0.00     0.248 C 
HETATM   18  O3  UNL     1      22.133   3.514  46.499  1.00  0.00    -0.271 OA
HETATM   19  N3  UNL     1      21.025   3.874  48.675  1.00  0.00    -0.315 N 
HETATM   20  C20 UNL     1      21.406   5.297  48.421  1.00  0.00     0.133 C 
HETATM   21  C21 UNL     1      22.894   5.381  48.303  1.00  0.00     0.040 C 
HETATM   22  C22 UNL     1      23.841   4.666  49.182  1.00  0.00     0.118 C 
HETATM   23  N4  UNL     1      24.126   4.953  50.496  1.00  0.00    -0.407 N 
HETATM   24  C23 UNL     1      24.847   6.205  50.715  1.00  0.00     0.144 C 
ENDROOT
BRANCH   1  25
HETATM   25  N1  UNL     1      25.495   1.804  53.627  1.00  0.00    -0.340 N 
HETATM   26  H6  UNL     1      25.926   2.702  53.969  1.00  0.00     0.167 HD
BRANCH  25  27
HETATM   27  C5  UNL     1      26.663   1.002  53.649  1.00  0.00     0.035 A 
HETATM   28  C4  UNL     1      27.896   1.502  54.085  1.00  0.00     0.030 A 
HETATM   29  C3  UNL     1      29.077   0.799  54.107  1.00  0.00     0.011 A 
HETATM   30  C2  UNL     1      29.080  -0.501  53.674  1.00  0.00    -0.040 A 
HETATM   31  C1  UNL     1      30.327  -1.305  53.679  1.00  0.00     0.050 C 
HETATM   32  C25 UNL     1      27.928  -1.073  53.233  1.00  0.00     0.042 A 
HETATM   33  C24 UNL     1      26.782  -0.309  53.239  1.00  0.00     0.053 A 
HETATM   34 CL1  UNL     1      27.890  -2.730  52.672  1.00  0.00    -0.084 Cl
ENDBRANCH  25  27
ENDBRANCH   1  25
TORSDOF 2
ENDMDL
MODEL 4
REMARK VINA RESULT:      -9.0      4.117      7.441
REMARK  2 active torsions:
REMARK  status: ('A' for Active; 'I' for Inactive)
REMARK    1  A    between atoms: C5_5  and  N1_6 
REMARK    2  A    between atoms: N1_6  and  C6_7 
ROOT
HETATM    1  C6  UNL     1      19.891  -0.664  53.514  1.00  0.00     0.138 A 
HETATM    2  N2  UNL     1      20.434  -1.634  54.308  1.00  0.00    -0.242 NA
HETATM    3  C7  UNL     1      21.764  -1.806  54.152  1.00  0.00     0.120 A 
HETATM    4  C8  UNL     1      22.425  -1.001  53.239  1.00  0.00     0.031 A 
HETATM    5  C9  UNL     1      21.897   0.022  52.404  1.00  0.00    -0.018 A 
HETATM    6  C10 UNL     1      20.558   0.137  52.592  1.00  0.00     0.018 A 
HETATM    7  C11 UNL     1      19.551   0.725  51.901  1.00  0.00     0.016 C 
HETATM    8  C12 UNL     1      19.083   1.625  50.831  1.00  0.00     0.126 C 
HETATM    9  C13 UNL     1      20.278   1.463  49.889  1.00  0.00     0.197 C 
HETATM   10  O1  UNL     1      20.348   1.911  48.636  1.00  0.00    -0.383 OA
HETATM   11  C14 UNL     1      21.791   1.606  48.511  1.00  0.00     0.227 C 
HETATM   12  C15 UNL     1      22.384   2.205  49.773  1.00  0.00     0.071 C 
HETATM   13  C16 UNL     1      22.779   1.594  50.881  1.00  0.00     0.095 C 
HETATM   14  C17 UNL     1      23.030   0.456  51.801  1.00  0.00     0.051 C 
HETATM   15  O2  UNL     1      23.314   2.424  51.909  1.00  0.00    -0.340 OA
HETATM   16  C18 UNL     1      23.783   3.767  51.781  1.00  0.00     0.279 C 
HETATM   17  C19 UNL     1      22.855   4.562  50.888  1.00  0.00     0.248 C 
HETATM   18  O3  UNL     1      22.666   5.748  51.160  1.00  0.00    -0.271 OA
HETATM   19  N3  UNL     1      22.463   3.611  49.944  1.00  0.00    -0.315 N 
HETATM   20  C20 UNL     1      21.476   4.384  49.130  1.00  0.00     0.133 C 
HETATM   21  C21 UNL     1      20.378   4.854  50.028  1.00  0.00     0.040 C 
HETATM   22  C22 UNL     1      19.754   4.030  51.082  1.00  0.00     0.118 C 
HETATM   23  N4  UNL     1      18.890   2.976  50.904  1.00  0.00    -0.407 N 
HETATM   24  C23 UNL     1      17.572   3.336  50.386  1.00  0.00     0.144 C 
ENDROOT
BRANCH   1  25
HETATM   25  N1  UNL     1      18.483  -0.605  53.838  1.00  0.00    -0.340 N 
HETATM   26  H6  UNL     1      17.768  -0.003  54.324  1.00  0.00     0.167 HD
BRANCH  25  27
HETATM   27  C5  UNL     1      17.621  -1.660  53.447  1.00  0.00     0.035 A 
HETATM   28  C4  UNL     1      17.828  -2.979  53.868  1.00  0.00     0.030 A 
HETATM   29  C3  UNL     1      17.059  -4.059  53.509  1.00  0.00     0.011 A 
HETATM   30  C2  UNL     1      15.992  -3.861  52.671  1.00  0.00    -0.040 A 
HETATM   31  C1  UNL     1      15.128  -4.992  52.253  1.00  0.00     0.050 C 
HETATM   32  C25 UNL     1      15.712  -2.612  52.211  1.00  0.00     0.042 A 
HETATM   33  C24 UNL     1      16.526  -1.577  52.613  1.00  0.00     0.053 A 
HETATM   34 CL1  UNL     1      14.361  -2.317  51.141  1.00  0.00    -0.084 Cl
ENDBRANCH  25  27
ENDBRANCH   1  25
TORSDOF 2
ENDMDL
MODEL 5
REMARK VINA RESULT:      -9.0      2.429      4.628
REMARK  2 active torsions:
REMARK  status: ('A' for Active; 'I' for Inactive)
REMARK    1  A    between atoms: C5_5  and  N1_6 
REMARK    2  A    between atoms: N1_6  and  C6_7 
ROOT
HETATM    1  C6  UNL     1      23.615   2.916  52.502  1.00  0.00     0.138 A 
HETATM    2  N2  UNL     1      23.105   1.797  53.095  1.00  0.00    -0.242 NA
HETATM    3  C7  UNL     1      21.834   1.506  52.743  1.00  0.00     0.120 A 
HETATM    4  C8  UNL     1      21.200   2.340  51.837  1.00  0.00     0.031 A 
HETATM    5  C9  UNL     1      21.700   3.505  51.194  1.00  0.00    -0.018 A 
HETATM    6  C10 UNL     1      22.970   3.756  51.598  1.00  0.00     0.018 A 
HETATM    7  C11 UNL     1      23.793   4.830  51.526  1.00  0.00     0.016 C 
HETATM    8  C12 UNL     1      24.115   6.168  50.996  1.00  0.00     0.126 C 
HETATM    9  C13 UNL     1      22.680   6.648  50.765  1.00  0.00     0.197 C 
HETATM   10  O1  UNL     1      22.317   7.891  50.453  1.00  0.00    -0.383 OA
HETATM   11  C14 UNL     1      20.914   7.508  50.174  1.00  0.00     0.227 C 
HETATM   12  C15 UNL     1      21.056   6.298  49.268  1.00  0.00     0.071 C 
HETATM   13  C16 UNL     1      20.909   5.015  49.561  1.00  0.00     0.095 C 
HETATM   14  C17 UNL     1      20.641   3.827  50.410  1.00  0.00     0.051 C 
HETATM   15  O2  UNL     1      21.095   4.093  48.490  1.00  0.00    -0.340 OA
HETATM   16  C18 UNL     1      21.092   4.379  47.090  1.00  0.00     0.279 C 
HETATM   17  C19 UNL     1      21.843   5.665  46.819  1.00  0.00     0.248 C 
HETATM   18  O3  UNL     1      22.504   5.740  45.782  1.00  0.00    -0.271 OA
HETATM   19  N3  UNL     1      21.522   6.439  47.936  1.00  0.00    -0.315 N 
HETATM   20  C20 UNL     1      22.345   7.664  47.699  1.00  0.00     0.133 C 
HETATM   21  C21 UNL     1      23.784   7.266  47.614  1.00  0.00     0.040 C 
HETATM   22  C22 UNL     1      24.431   6.286  48.509  1.00  0.00     0.118 C 
HETATM   23  N4  UNL     1      24.763   6.467  49.830  1.00  0.00    -0.407 N 
HETATM   24  C23 UNL     1      25.843   7.421  50.072  1.00  0.00     0.144 C 
ENDROOT
BRANCH   1  25
HETATM   25  N1  UNL     1      24.977   3.049  52.971  1.00  0.00    -0.340 N 
HETATM   26  H6  UNL     1      25.659   3.757  53.347  1.00  0.00     0.167 HD
BRANCH  25  27
HETATM   27  C5  UNL     1      25.837   1.922  52.976  1.00  0.00     0.035 A 
HETATM   28  C4  UNL     1      25.811   0.966  51.954  1.00  0.00     0.030 A 
HETATM   29  C3  UNL     1      26.589  -0.165  51.903  1.00  0.00     0.011 A 
HETATM   30  C2  UNL     1      27.473  -0.406  52.922  1.00  0.00    -0.040 A 
HETATM   31  C1  UNL     1      28.336  -1.612  52.916  1.00  0.00     0.050 C 
HETATM   32  C25 UNL     1      27.568   0.468  53.959  1.00  0.00     0.042 A 
HETATM   33  C24 UNL     1      26.758   1.582  53.944  1.00  0.00     0.053 A 
HETATM   34 CL1  UNL     1      28.683   0.197  55.280  1.00  0.00    -0.084 Cl
ENDBRANCH  25  27
ENDBRANCH   1  25
TORSDOF 2
ENDMDL
MODEL 6
REMARK VINA RESULT:      -8.9      3.786      5.221
REMARK  2 active torsions:
REMARK  status: ('A' for Active; 'I' for Inactive)
REMARK    1  A    between atoms: C5_5  and  N1_6 
REMARK    2  A    between atoms: N1_6  and  C6_7 
ROOT
HETATM    1  C6  UNL     1      24.245   6.449  48.464  1.00  0.00     0.138 A 
HETATM    2  N2  UNL     1      24.351   7.304  47.404  1.00  0.00    -0.242 NA
HETATM    3  C7  UNL     1      23.381   7.167  46.474  1.00  0.00     0.120 A 
HETATM    4  C8  UNL     1      22.403   6.209  46.687  1.00  0.00     0.031 A 
HETATM    5  C9  UNL     1      22.256   5.310  47.779  1.00  0.00    -0.018 A 
HETATM    6  C10 UNL     1      23.265   5.483  48.669  1.00  0.00     0.018 A 
HETATM    7  C11 UNL     1      23.756   4.751  49.699  1.00  0.00     0.016 C 
HETATM    8  C12 UNL     1      23.641   3.625  50.643  1.00  0.00     0.126 C 
HETATM    9  C13 UNL     1      22.799   2.702  49.759  1.00  0.00     0.197 C 
HETATM   10  O1  UNL     1      22.520   1.424  50.013  1.00  0.00    -0.383 OA
HETATM   11  C14 UNL     1      21.536   1.326  48.911  1.00  0.00     0.227 C 
HETATM   12  C15 UNL     1      20.664   2.551  49.113  1.00  0.00     0.071 C 
HETATM   13  C16 UNL     1      20.668   3.696  48.447  1.00  0.00     0.095 C 
HETATM   14  C17 UNL     1      21.104   4.686  47.429  1.00  0.00     0.051 C 
HETATM   15  O2  UNL     1      19.715   4.674  48.856  1.00  0.00    -0.340 OA
HETATM   16  C18 UNL     1      18.551   4.466  49.657  1.00  0.00     0.279 C 
HETATM   17  C19 UNL     1      18.863   3.521  50.797  1.00  0.00     0.248 C 
HETATM   18  O3  UNL     1      18.310   3.718  51.880  1.00  0.00    -0.271 OA
HETATM   19  N3  UNL     1      19.769   2.635  50.210  1.00  0.00    -0.315 N 
HETATM   20  C20 UNL     1      20.139   1.769  51.371  1.00  0.00     0.133 C 
HETATM   21  C21 UNL     1      20.722   2.631  52.445  1.00  0.00     0.040 C 
HETATM   22  C22 UNL     1      21.677   3.730  52.202  1.00  0.00     0.118 C 
HETATM   23  N4  UNL     1      23.001   3.613  51.851  1.00  0.00    -0.407 N 
HETATM   24  C23 UNL     1      23.872   3.068  52.889  1.00  0.00     0.144 C 
ENDROOT
BRANCH   1  25
HETATM   25  N1  UNL     1      25.339   6.761  49.357  1.00  0.00    -0.340 N 
HETATM   26  H6  UNL     1      25.541   7.109  50.331  1.00  0.00     0.167 HD
BRANCH  25  27
HETATM   27  C5  UNL     1      26.678   6.616  48.916  1.00  0.00     0.035 A 
HETATM   28  C4  UNL     1      27.250   5.359  48.687  1.00  0.00     0.030 A 
HETATM   29  C3  UNL     1      28.545   5.134  48.289  1.00  0.00     0.011 A 
HETATM   30  C2  UNL     1      29.371   6.210  48.092  1.00  0.00    -0.040 A 
HETATM   31  C1  UNL     1      30.779   6.023  47.662  1.00  0.00     0.050 C 
HETATM   32  C25 UNL     1      28.904   7.471  48.290  1.00  0.00     0.042 A 
HETATM   33  C24 UNL     1      27.594   7.621  48.687  1.00  0.00     0.053 A 
HETATM   34 CL1  UNL     1      29.926   8.870  48.049  1.00  0.00    -0.084 Cl
ENDBRANCH  25  27
ENDBRANCH   1  25
TORSDOF 2
ENDMDL
MODEL 7
REMARK VINA RESULT:      -8.8      8.634     12.233
REMARK  2 active torsions:
REMARK  status: ('A' for Active; 'I' for Inactive)
REMARK    1  A    between atoms: C5_5  and  N1_6 
REMARK    2  A    between atoms: N1_6  and  C6_7 
ROOT
HETATM    1  C6  UNL     1      34.285   5.129  45.156  1.00  0.00     0.138 A 
HETATM    2  N2  UNL     1      34.960   3.944  45.214  1.00  0.00    -0.242 NA
HETATM    3  C7  UNL     1      34.709   3.209  46.319  1.00  0.00     0.120 A 
HETATM    4  C8  UNL     1      33.812   3.711  47.247  1.00  0.00     0.031 A 
HETATM    5  C9  UNL     1      33.085   4.933  47.217  1.00  0.00    -0.018 A 
HETATM    6  C10 UNL     1      33.391   5.634  46.097  1.00  0.00     0.018 A 
HETATM    7  C11 UNL     1      33.216   6.919  45.705  1.00  0.00     0.016 C 
HETATM    8  C12 UNL     1      32.606   8.248  45.897  1.00  0.00     0.126 C 
HETATM    9  C13 UNL     1      32.452   8.185  47.418  1.00  0.00     0.197 C 
HETATM   10  O1  UNL     1      32.111   9.203  48.208  1.00  0.00    -0.383 OA
HETATM   11  C14 UNL     1      31.945   8.341  49.400  1.00  0.00     0.227 C 
HETATM   12  C15 UNL     1      31.086   7.199  48.888  1.00  0.00     0.071 C 
HETATM   13  C16 UNL     1      31.445   5.966  48.564  1.00  0.00     0.095 C 
HETATM   14  C17 UNL     1      32.362   4.817  48.358  1.00  0.00     0.051 C 
HETATM   15  O2  UNL     1      30.406   5.097  48.119  1.00  0.00    -0.340 OA
HETATM   16  C18 UNL     1      28.998   5.273  48.290  1.00  0.00     0.279 C 
HETATM   17  C19 UNL     1      28.619   6.718  48.049  1.00  0.00     0.248 C 
HETATM   18  O3  UNL     1      27.538   6.950  47.507  1.00  0.00    -0.271 OA
HETATM   19  N3  UNL     1      29.720   7.405  48.566  1.00  0.00    -0.315 N 
HETATM   20  C20 UNL     1      29.374   8.821  48.235  1.00  0.00     0.133 C 
HETATM   21  C21 UNL     1      29.209   8.940  46.754  1.00  0.00     0.040 C 
HETATM   22  C22 UNL     1      30.100   8.305  45.763  1.00  0.00     0.118 C 
HETATM   23  N4  UNL     1      31.387   8.676  45.451  1.00  0.00    -0.407 N 
HETATM   24  C23 UNL     1      31.513   9.958  44.762  1.00  0.00     0.144 C 
ENDROOT
BRANCH   1  25
HETATM   25  N1  UNL     1      34.654   5.755  43.906  1.00  0.00    -0.340 N 
HETATM   26  H6  UNL     1      35.379   6.387  43.476  1.00  0.00     0.167 HD
BRANCH  25  27
HETATM   27  C5  UNL     1      33.850   5.563  42.754  1.00  0.00     0.035 A 
HETATM   28  C4  UNL     1      33.187   6.626  42.129  1.00  0.00     0.030 A 
HETATM   29  C3  UNL     1      32.368   6.517  41.031  1.00  0.00     0.011 A 
HETATM   30  C2  UNL     1      32.165   5.280  40.479  1.00  0.00    -0.040 A 
HETATM   31  C1  UNL     1      31.291   5.107  39.292  1.00  0.00     0.050 C 
HETATM   32  C25 UNL     1      32.769   4.187  41.017  1.00  0.00     0.042 A 
HETATM   33  C24 UNL     1      33.577   4.371  42.117  1.00  0.00     0.053 A 
HETATM   34 CL1  UNL     1      32.535   2.591  40.342  1.00  0.00    -0.084 Cl
ENDBRANCH  25  27
ENDBRANCH   1  25
TORSDOF 2
ENDMDL
MODEL 8
REMARK VINA RESULT:      -8.4      5.718      9.553
REMARK  2 active torsions:
REMARK  status: ('A' for Active; 'I' for Inactive)
REMARK    1  A    between atoms: C5_5  and  N1_6 
REMARK    2  A    between atoms: N1_6  and  C6_7 
ROOT
HETATM    1  C6  UNL     1      25.246   5.583  49.151  1.00  0.00     0.138 A 
HETATM    2  N2  UNL     1      25.330   4.300  49.610  1.00  0.00    -0.242 NA
HETATM    3  C7  UNL     1      26.547   3.732  49.467  1.00  0.00     0.120 A 
HETATM    4  C8  UNL     1      27.558   4.487  48.897  1.00  0.00     0.031 A 
HETATM    5  C9  UNL     1      27.511   5.825  48.417  1.00  0.00    -0.018 A 
HETATM    6  C10 UNL     1      26.263   6.336  48.570  1.00  0.00     0.018 A 
HETATM    7  C11 UNL     1      25.609   7.408  48.063  1.00  0.00     0.016 C 
HETATM    8  C12 UNL     1      25.615   8.684  47.323  1.00  0.00     0.126 C 
HETATM    9  C13 UNL     1      26.829   8.401  46.436  1.00  0.00     0.197 C 
HETATM   10  O1  UNL     1      27.226   9.140  45.401  1.00  0.00    -0.383 OA
HETATM   11  C14 UNL     1      28.503   8.406  45.250  1.00  0.00     0.227 C 
HETATM   12  C15 UNL     1      29.053   8.369  46.663  1.00  0.00     0.071 C 
HETATM   13  C16 UNL     1      29.063   7.366  47.529  1.00  0.00     0.095 C 
HETATM   14  C17 UNL     1      28.802   5.996  48.039  1.00  0.00     0.051 C 
HETATM   15  O2  UNL     1      29.666   7.623  48.794  1.00  0.00    -0.340 OA
HETATM   16  C18 UNL     1      30.547   8.696  49.131  1.00  0.00     0.279 C 
HETATM   17  C19 UNL     1      30.062   9.986  48.504  1.00  0.00     0.248 C 
HETATM   18  O3  UNL     1      30.215  11.030  49.138  1.00  0.00    -0.271 OA
HETATM   19  N3  UNL     1      29.541   9.547  47.285  1.00  0.00    -0.315 N 
HETATM   20  C20 UNL     1      28.982  10.814  46.723  1.00  0.00     0.133 C 
HETATM   21  C21 UNL     1      27.962  11.352  47.674  1.00  0.00     0.040 C 
HETATM   22  C22 UNL     1      26.959  10.525  48.373  1.00  0.00     0.118 C 
HETATM   23  N4  UNL     1      25.846   9.935  47.823  1.00  0.00    -0.407 N 
HETATM   24  C23 UNL     1      24.802  10.862  47.391  1.00  0.00     0.144 C 
ENDROOT
BRANCH   1  25
HETATM   25  N1  UNL     1      23.895   6.028  49.412  1.00  0.00    -0.340 N 
HETATM   26  H6  UNL     1      23.349   6.747  49.955  1.00  0.00     0.167 HD
BRANCH  25  27
HETATM   27  C5  UNL     1      22.800   5.356  48.814  1.00  0.00     0.035 A 
HETATM   28  C4  UNL     1      21.684   4.952  49.557  1.00  0.00     0.030 A 
HETATM   29  C3  UNL     1      20.600   4.271  49.058  1.00  0.00     0.011 A 
HETATM   30  C2  UNL     1      20.580   3.946  47.727  1.00  0.00    -0.040 A 
HETATM   31  C1  UNL     1      19.433   3.212  47.137  1.00  0.00     0.050 C 
HETATM   32  C25 UNL     1      21.621   4.298  46.925  1.00  0.00     0.042 A 
HETATM   33  C24 UNL     1      22.673   4.980  47.494  1.00  0.00     0.053 A 
HETATM   34 CL1  UNL     1      21.633   3.901  45.222  1.00  0.00    -0.084 Cl
ENDBRANCH  25  27
ENDBRANCH   1  25
TORSDOF 2
ENDMDL
MODEL 9
REMARK VINA RESULT:      -8.4      5.999      9.663
REMARK  2 active torsions:
REMARK  status: ('A' for Active; 'I' for Inactive)
REMARK    1  A    between atoms: C5_5  and  N1_6 
REMARK    2  A    between atoms: N1_6  and  C6_7 
ROOT
HETATM    1  C6  UNL     1      26.964   5.540  48.595  1.00  0.00     0.138 A 
HETATM    2  N2  UNL     1      25.619   5.752  48.702  1.00  0.00    -0.242 NA
HETATM    3  C7  UNL     1      25.221   7.001  48.379  1.00  0.00     0.120 A 
HETATM    4  C8  UNL     1      26.185   7.910  47.975  1.00  0.00     0.031 A 
HETATM    5  C9  UNL     1      27.589   7.724  47.843  1.00  0.00    -0.018 A 
HETATM    6  C10 UNL     1      27.930   6.459  48.197  1.00  0.00     0.018 A 
HETATM    7  C11 UNL     1      29.096   5.846  48.512  1.00  0.00     0.016 C 
HETATM    8  C12 UNL     1      30.569   5.841  48.572  1.00  0.00     0.126 C 
HETATM    9  C13 UNL     1      30.774   7.352  48.700  1.00  0.00     0.197 C 
HETATM   10  O1  UNL     1      31.926   7.960  48.980  1.00  0.00    -0.383 OA
HETATM   11  C14 UNL     1      31.388   9.309  48.695  1.00  0.00     0.227 C 
HETATM   12  C15 UNL     1      30.701   9.135  47.353  1.00  0.00     0.071 C 
HETATM   13  C16 UNL     1      29.409   9.021  47.085  1.00  0.00     0.095 C 
HETATM   14  C17 UNL     1      27.954   8.941  47.371  1.00  0.00     0.051 C 
HETATM   15  O2  UNL     1      29.054   8.879  45.712  1.00  0.00    -0.340 OA
HETATM   16  C18 UNL     1      29.865   9.173  44.574  1.00  0.00     0.279 C 
HETATM   17  C19 UNL     1      31.283   8.698  44.805  1.00  0.00     0.248 C 
HETATM   18  O3  UNL     1      31.907   8.249  43.843  1.00  0.00    -0.271 OA
HETATM   19  N3  UNL     1      31.459   8.939  46.169  1.00  0.00    -0.315 N 
HETATM   20  C20 UNL     1      32.825   8.378  46.400  1.00  0.00     0.133 C 
HETATM   21  C21 UNL     1      32.819   6.931  46.022  1.00  0.00     0.040 C 
HETATM   22  C22 UNL     1      31.732   5.989  46.353  1.00  0.00     0.118 C 
HETATM   23  N4  UNL     1      31.441   5.464  47.589  1.00  0.00    -0.407 N 
HETATM   24  C23 UNL     1      32.432   4.526  48.113  1.00  0.00     0.144 C 
ENDROOT
BRANCH   1  25
HETATM   25  N1  UNL     1      27.194   4.157  48.949  1.00  0.00    -0.340 N 
HETATM   26  H6  UNL     1      27.860   3.358  48.782  1.00  0.00     0.167 HD
BRANCH  25  27
HETATM   27  C5  UNL     1      26.285   3.483  49.803  1.00  0.00     0.035 A 
HETATM   28  C4  UNL     1      26.689   2.926  51.022  1.00  0.00     0.030 A 
HETATM   29  C3  UNL     1      25.878   2.234  51.888  1.00  0.00     0.011 A 
HETATM   30  C2  UNL     1      24.559   2.057  51.560  1.00  0.00    -0.040 A 
HETATM   31  C1  UNL     1      23.640   1.318  52.460  1.00  0.00     0.050 C 
HETATM   32  C25 UNL     1      24.075   2.564  50.394  1.00  0.00     0.042 A 
HETATM   33  C24 UNL     1      24.946   3.247  49.575  1.00  0.00     0.053 A 
HETATM   34 CL1  UNL     1      22.399   2.360  49.939  1.00  0.00    -0.084 Cl
ENDBRANCH  25  27
ENDBRANCH   1  25
TORSDOF 2
ENDMDL
