MODEL 1
REMARK VINA RESULT:      -8.6      0.000      0.000
REMARK  7 active torsions:
REMARK  status: ('A' for Active; 'I' for Inactive)
REMARK    1  A    between atoms: C2_2  and  N1_3 
REMARK    2  A    between atoms: N1_3  and  C3_4 
REMARK    3  A    between atoms: C3_4  and  C13_17 
REMARK    4  A    between atoms: C4_5  and  C5_6 
REMARK    5  A    between atoms: C13_17  and  C15_19 
REMARK       I    between atoms: C15_19  and  N3_21 
REMARK    6  A    between atoms: N3_21  and  C16_22 
REMARK    7  A    between atoms: C16_22  and  C17_23 
ROOT
HETATM    1  C3  UNL     1      23.585   2.907  50.728  1.00  0.00     0.040 C 
HETATM    2  C4  UNL     1      23.256   1.569  51.162  1.00  0.00     0.048 C 
ENDROOT
BRANCH   1   3
HETATM    3  N1  UNL     1      22.600   3.966  50.784  1.00  0.00    -0.390 N 
HETATM    4  H6  UNL     1      22.267   4.465  49.924  1.00  0.00     0.159 HD
BRANCH   3   5
HETATM    5  C2  UNL     1      22.247   4.120  52.205  1.00  0.00     0.115 C 
HETATM    6  C1  UNL     1      23.354   4.949  52.820  1.00  0.00     0.026 C 
ENDBRANCH   3   5
ENDBRANCH   1   3
BRANCH   1   7
HETATM    7  C13 UNL     1      24.692   3.447  50.260  1.00  0.00     0.032 C 
HETATM    8  C14 UNL     1      24.641   4.406  49.142  1.00  0.00     0.056 C 
BRANCH   7   9
HETATM    9  C15 UNL     1      26.032   3.162  50.768  1.00  0.00     0.249 C 
HETATM   10  O2  UNL     1      27.172   3.386  50.267  1.00  0.00    -0.268 OA
HETATM   11  N3  UNL     1      26.259   2.539  52.004  1.00  0.00    -0.353 N 
HETATM   12  H15 UNL     1      25.403   2.265  52.586  1.00  0.00     0.163 HD
BRANCH  11  13
HETATM   13  C16 UNL     1      27.527   2.203  52.616  1.00  0.00     0.161 C 
BRANCH  13  14
HETATM   14  C17 UNL     1      27.711   0.749  52.845  1.00  0.00    -0.038 A 
HETATM   15  C18 UNL     1      28.806   0.109  53.366  1.00  0.00     0.028 A 
HETATM   16  C19 UNL     1      28.874  -1.254  53.531  1.00  0.00     0.116 A 
HETATM   17  N4  UNL     1      27.839  -2.040  53.177  1.00  0.00    -0.273 NA
HETATM   18  C20 UNL     1      26.731  -1.475  52.660  1.00  0.00     0.116 A 
HETATM   19  C21 UNL     1      26.665  -0.100  52.494  1.00  0.00     0.028 A 
ENDBRANCH  13  14
ENDBRANCH  11  13
ENDBRANCH   7   9
ENDBRANCH   1   7
BRANCH   2  20
HETATM   20  C5  UNL     1      22.177   0.950  51.562  1.00  0.00     0.047 A 
HETATM   21  C6  UNL     1      20.825   0.925  51.023  1.00  0.00     0.257 A 
HETATM   22  O1  UNL     1      20.394   1.515  50.004  1.00  0.00    -0.267 OA
HETATM   23  N2  UNL     1      19.987   0.115  51.816  1.00  0.00    -0.322 N 
HETATM   24  C7  UNL     1      20.856  -0.348  52.839  1.00  0.00     0.046 A 
HETATM   25  H8  UNL     1      18.981  -0.115  51.715  1.00  0.00     0.169 HD
HETATM   26  C8  UNL     1      20.593  -1.193  53.924  1.00  0.00     0.033 A 
HETATM   27  C12 UNL     1      22.149   0.103  52.748  1.00  0.00     0.009 A 
HETATM   28  C9  UNL     1      21.519  -1.587  54.874  1.00  0.00     0.044 A 
HETATM   29  C10 UNL     1      22.804  -1.107  54.737  1.00  0.00     0.117 A 
HETATM   30  F1  UNL     1      23.757  -1.455  55.633  1.00  0.00    -0.206 F 
HETATM   31  C11 UNL     1      23.095  -0.270  53.677  1.00  0.00     0.057 A 
ENDBRANCH   2  20
TORSDOF 7
ENDMDL
MODEL 2
REMARK VINA RESULT:      -8.5      2.634      3.470
REMARK  7 active torsions:
REMARK  status: ('A' for Active; 'I' for Inactive)
REMARK    1  A    between atoms: C2_2  and  N1_3 
REMARK    2  A    between atoms: N1_3  and  C3_4 
REMARK    3  A    between atoms: C3_4  and  C13_17 
REMARK    4  A    between atoms: C4_5  and  C5_6 
REMARK    5  A    between atoms: C13_17  and  C15_19 
REMARK       I    between atoms: C15_19  and  N3_21 
REMARK    6  A    between atoms: N3_21  and  C16_22 
REMARK    7  A    between atoms: C16_22  and  C17_23 
ROOT
HETATM    1  C3  UNL     1      22.985   1.681  52.451  1.00  0.00     0.040 C 
HETATM    2  C4  UNL     1      22.027   1.285  53.458  1.00  0.00     0.048 C 
ENDROOT
BRANCH   1   3
HETATM    3  N1  UNL     1      23.034   1.008  51.171  1.00  0.00    -0.390 N 
HETATM    4  H6  UNL     1      23.488   0.070  51.050  1.00  0.00     0.159 HD
BRANCH   3   5
HETATM    5  C2  UNL     1      22.352   1.898  50.216  1.00  0.00     0.115 C 
HETATM    6  C1  UNL     1      21.558   0.992  49.299  1.00  0.00     0.026 C 
ENDBRANCH   3   5
ENDBRANCH   1   3
BRANCH   1   7
HETATM    7  C13 UNL     1      23.910   2.619  52.418  1.00  0.00     0.032 C 
HETATM    8  C14 UNL     1      23.546   4.033  52.615  1.00  0.00     0.056 C 
BRANCH   7   9
HETATM    9  C15 UNL     1      25.332   2.373  52.186  1.00  0.00     0.249 C 
HETATM   10  O2  UNL     1      26.052   2.583  51.168  1.00  0.00    -0.268 OA
HETATM   11  N3  UNL     1      26.174   1.813  53.158  1.00  0.00    -0.353 N 
HETATM   12  H15 UNL     1      25.742   1.560  54.104  1.00  0.00     0.163 HD
BRANCH  11  13
HETATM   13  C16 UNL     1      27.588   1.520  53.053  1.00  0.00     0.161 C 
BRANCH  13  14
HETATM   14  C17 UNL     1      27.899   0.071  53.067  1.00  0.00    -0.038 A 
HETATM   15  C18 UNL     1      29.076  -0.537  53.421  1.00  0.00     0.028 A 
HETATM   16  C19 UNL     1      29.258  -1.899  53.391  1.00  0.00     0.116 A 
HETATM   17  N4  UNL     1      28.262  -2.717  53.001  1.00  0.00    -0.273 NA
HETATM   18  C20 UNL     1      27.078  -2.185  52.640  1.00  0.00     0.116 A 
HETATM   19  C21 UNL     1      26.896  -0.811  52.670  1.00  0.00     0.028 A 
ENDBRANCH  13  14
ENDBRANCH  11  13
ENDBRANCH   7   9
ENDBRANCH   1   7
BRANCH   2  20
HETATM   20  C5  UNL     1      21.143   0.332  53.590  1.00  0.00     0.047 A 
HETATM   21  C6  UNL     1      21.153  -0.887  54.386  1.00  0.00     0.257 A 
HETATM   22  O1  UNL     1      22.054  -1.292  55.159  1.00  0.00    -0.267 OA
HETATM   23  N2  UNL     1      19.965  -1.621  54.190  1.00  0.00    -0.322 N 
HETATM   24  C7  UNL     1      19.241  -0.824  53.264  1.00  0.00     0.046 A 
HETATM   25  H8  UNL     1      19.654  -2.522  54.598  1.00  0.00     0.169 HD
HETATM   26  C8  UNL     1      17.981  -1.038  52.691  1.00  0.00     0.033 A 
HETATM   27  C12 UNL     1      19.874   0.330  52.874  1.00  0.00     0.009 A 
HETATM   28  C9  UNL     1      17.358  -0.191  51.790  1.00  0.00     0.044 A 
HETATM   29  C10 UNL     1      18.036   0.955  51.431  1.00  0.00     0.117 A 
HETATM   30  F1  UNL     1      17.481   1.824  50.554  1.00  0.00    -0.206 F 
HETATM   31  C11 UNL     1      19.281   1.194  51.980  1.00  0.00     0.057 A 
ENDBRANCH   2  20
TORSDOF 7
ENDMDL
MODEL 3
REMARK VINA RESULT:      -8.5      1.252      1.513
REMARK  7 active torsions:
REMARK  status: ('A' for Active; 'I' for Inactive)
REMARK    1  A    between atoms: C2_2  and  N1_3 
REMARK    2  A    between atoms: N1_3  and  C3_4 
REMARK    3  A    between atoms: C3_4  and  C13_17 
REMARK    4  A    between atoms: C4_5  and  C5_6 
REMARK    5  A    between atoms: C13_17  and  C15_19 
REMARK       I    between atoms: C15_19  and  N3_21 
REMARK    6  A    between atoms: N3_21  and  C16_22 
REMARK    7  A    between atoms: C16_22  and  C17_23 
ROOT
HETATM    1  C3  UNL     1      24.270   2.772  50.818  1.00  0.00     0.040 C 
HETATM    2  C4  UNL     1      23.400   1.625  50.940  1.00  0.00     0.048 C 
ENDROOT
BRANCH   1   3
HETATM    3  N1  UNL     1      23.724   4.110  50.760  1.00  0.00    -0.390 N 
HETATM    4  H6  UNL     1      23.557   4.606  49.851  1.00  0.00     0.159 HD
BRANCH   3   5
HETATM    5  C2  UNL     1      23.500   4.521  52.156  1.00  0.00     0.115 C 
HETATM    6  C1  UNL     1      22.035   4.892  52.248  1.00  0.00     0.026 C 
ENDBRANCH   3   5
ENDBRANCH   1   3
BRANCH   1   7
HETATM    7  C13 UNL     1      25.580   2.897  50.757  1.00  0.00     0.032 C 
HETATM    8  C14 UNL     1      26.214   3.569  49.609  1.00  0.00     0.056 C 
BRANCH   7   9
HETATM    9  C15 UNL     1      26.507   2.398  51.771  1.00  0.00     0.249 C 
HETATM   10  O2  UNL     1      27.760   2.534  51.884  1.00  0.00    -0.268 OA
HETATM   11  N3  UNL     1      26.093   1.625  52.865  1.00  0.00    -0.353 N 
HETATM   12  H15 UNL     1      25.050   1.397  52.945  1.00  0.00     0.163 HD
BRANCH  11  13
HETATM   13  C16 UNL     1      26.906   1.074  53.929  1.00  0.00     0.161 C 
BRANCH  13  14
HETATM   14  C17 UNL     1      27.533  -0.225  53.588  1.00  0.00    -0.038 A 
HETATM   15  C18 UNL     1      28.839  -0.604  53.764  1.00  0.00     0.028 A 
HETATM   16  C19 UNL     1      29.320  -1.840  53.404  1.00  0.00     0.116 A 
HETATM   17  N4  UNL     1      28.506  -2.758  52.848  1.00  0.00    -0.273 NA
HETATM   18  C20 UNL     1      27.210  -2.451  52.648  1.00  0.00     0.116 A 
HETATM   19  C21 UNL     1      26.727  -1.203  53.011  1.00  0.00     0.028 A 
ENDBRANCH  13  14
ENDBRANCH  11  13
ENDBRANCH   7   9
ENDBRANCH   1   7
BRANCH   2  20
HETATM   20  C5  UNL     1      22.110   1.419  50.932  1.00  0.00     0.047 A 
HETATM   21  C6  UNL     1      21.059   1.928  50.064  1.00  0.00     0.257 A 
HETATM   22  O1  UNL     1      21.180   2.702  49.084  1.00  0.00    -0.267 OA
HETATM   23  N2  UNL     1      19.800   1.431  50.458  1.00  0.00    -0.322 N 
HETATM   24  C7  UNL     1      20.110   0.614  51.577  1.00  0.00     0.046 A 
HETATM   25  H8  UNL     1      18.856   1.593  50.061  1.00  0.00     0.169 HD
HETATM   26  C8  UNL     1      19.264  -0.146  52.394  1.00  0.00     0.033 A 
HETATM   27  C12 UNL     1      21.442   0.564  51.906  1.00  0.00     0.009 A 
HETATM   28  C9  UNL     1      19.671  -0.916  53.471  1.00  0.00     0.044 A 
HETATM   29  C10 UNL     1      21.020  -0.932  53.759  1.00  0.00     0.117 A 
HETATM   30  F1  UNL     1      21.482  -1.665  54.799  1.00  0.00    -0.206 F 
HETATM   31  C11 UNL     1      21.880  -0.191  52.971  1.00  0.00     0.057 A 
ENDBRANCH   2  20
TORSDOF 7
ENDMDL
MODEL 4
REMARK VINA RESULT:      -8.2      2.968      5.946
REMARK  7 active torsions:
REMARK  status: ('A' for Active; 'I' for Inactive)
REMARK    1  A    between atoms: C2_2  and  N1_3 
REMARK    2  A    between atoms: N1_3  and  C3_4 
REMARK    3  A    between atoms: C3_4  and  C13_17 
REMARK    4  A    between atoms: C4_5  and  C5_6 
REMARK    5  A    between atoms: C13_17  and  C15_19 
REMARK       I    between atoms: C15_19  and  N3_21 
REMARK    6  A    between atoms: N3_21  and  C16_22 
REMARK    7  A    between atoms: C16_22  and  C17_23 
ROOT
HETATM    1  C3  UNL     1      23.521   2.613  51.846  1.00  0.00     0.040 C 
HETATM    2  C4  UNL     1      24.206   2.229  53.057  1.00  0.00     0.048 C 
ENDROOT
BRANCH   1   3
HETATM    3  N1  UNL     1      23.419   1.696  50.731  1.00  0.00    -0.390 N 
HETATM    4  H6  UNL     1      24.162   1.630  49.993  1.00  0.00     0.159 HD
BRANCH   3   5
HETATM    5  C2  UNL     1      22.145   0.979  50.907  1.00  0.00     0.115 C 
HETATM    6  C1  UNL     1      21.475   0.984  49.549  1.00  0.00     0.026 C 
ENDBRANCH   3   5
ENDBRANCH   1   3
BRANCH   1   7
HETATM    7  C13 UNL     1      22.887   3.712  51.488  1.00  0.00     0.032 C 
HETATM    8  C14 UNL     1      21.717   4.182  52.251  1.00  0.00     0.056 C 
BRANCH   7   9
HETATM    9  C15 UNL     1      23.252   4.543  50.343  1.00  0.00     0.249 C 
HETATM   10  O2  UNL     1      22.881   4.495  49.135  1.00  0.00    -0.268 OA
HETATM   11  N3  UNL     1      24.155   5.612  50.437  1.00  0.00    -0.353 N 
HETATM   12  H15 UNL     1      24.586   5.814  51.397  1.00  0.00     0.163 HD
BRANCH  11  13
HETATM   13  C16 UNL     1      24.597   6.504  49.386  1.00  0.00     0.161 C 
BRANCH  13  14
HETATM   14  C17 UNL     1      25.996   6.269  48.955  1.00  0.00    -0.038 A 
HETATM   15  C18 UNL     1      26.684   5.083  48.934  1.00  0.00     0.028 A 
HETATM   16  C19 UNL     1      27.990   4.978  48.517  1.00  0.00     0.116 A 
HETATM   17  N4  UNL     1      28.667   6.065  48.099  1.00  0.00    -0.273 NA
HETATM   18  C20 UNL     1      28.049   7.262  48.093  1.00  0.00     0.116 A 
HETATM   19  C21 UNL     1      26.732   7.366  48.515  1.00  0.00     0.028 A 
ENDBRANCH  13  14
ENDBRANCH  11  13
ENDBRANCH   7   9
ENDBRANCH   1   7
BRANCH   2  20
HETATM   20  C5  UNL     1      24.911   1.202  53.453  1.00  0.00     0.047 A 
HETATM   21  C6  UNL     1      24.520  -0.154  53.809  1.00  0.00     0.257 A 
HETATM   22  O1  UNL     1      23.368  -0.649  53.798  1.00  0.00    -0.267 OA
HETATM   23  N2  UNL     1      25.644  -0.913  54.194  1.00  0.00    -0.322 N 
HETATM   24  C7  UNL     1      26.717   0.008  54.063  1.00  0.00     0.046 A 
HETATM   25  H8  UNL     1      25.718  -1.901  54.502  1.00  0.00     0.169 HD
HETATM   26  C8  UNL     1      28.085  -0.169  54.305  1.00  0.00     0.033 A 
HETATM   27  C12 UNL     1      26.356   1.261  53.635  1.00  0.00     0.009 A 
HETATM   28  C9  UNL     1      29.059   0.803  54.146  1.00  0.00     0.044 A 
HETATM   29  C10 UNL     1      28.643   2.044  53.713  1.00  0.00     0.117 A 
HETATM   30  F1  UNL     1      29.545   3.038  53.538  1.00  0.00    -0.206 F 
HETATM   31  C11 UNL     1      27.300   2.250  53.466  1.00  0.00     0.057 A 
ENDBRANCH   2  20
TORSDOF 7
ENDMDL
MODEL 5
REMARK VINA RESULT:      -8.2      2.942      7.480
REMARK  7 active torsions:
REMARK  status: ('A' for Active; 'I' for Inactive)
REMARK    1  A    between atoms: C2_2  and  N1_3 
REMARK    2  A    between atoms: N1_3  and  C3_4 
REMARK    3  A    between atoms: C3_4  and  C13_17 
REMARK    4  A    between atoms: C4_5  and  C5_6 
REMARK    5  A    between atoms: C13_17  and  C15_19 
REMARK       I    between atoms: C15_19  and  N3_21 
REMARK    6  A    between atoms: N3_21  and  C16_22 
REMARK    7  A    between atoms: C16_22  and  C17_23 
ROOT
HETATM    1  C3  UNL     1      22.205   0.918  52.248  1.00  0.00     0.040 C 
HETATM    2  C4  UNL     1      23.524   1.452  52.000  1.00  0.00     0.048 C 
ENDROOT
BRANCH   1   3
HETATM    3  N1  UNL     1      21.809   0.513  53.579  1.00  0.00    -0.390 N 
HETATM    4  H6  UNL     1      21.279   1.150  54.222  1.00  0.00     0.159 HD
BRANCH   3   5
HETATM    5  C2  UNL     1      22.298  -0.866  53.748  1.00  0.00     0.115 C 
HETATM    6  C1  UNL     1      21.161  -1.632  54.390  1.00  0.00     0.026 C 
ENDBRANCH   3   5
ENDBRANCH   1   3
BRANCH   1   7
HETATM    7  C13 UNL     1      21.165   0.706  51.465  1.00  0.00     0.032 C 
HETATM    8  C14 UNL     1      21.357   0.355  50.047  1.00  0.00     0.056 C 
BRANCH   7   9
HETATM    9  C15 UNL     1      19.772   0.800  51.896  1.00  0.00     0.249 C 
HETATM   10  O2  UNL     1      19.131   1.755  52.422  1.00  0.00    -0.268 OA
HETATM   11  N3  UNL     1      18.866  -0.264  51.775  1.00  0.00    -0.353 N 
HETATM   12  H15 UNL     1      19.227  -1.177  51.346  1.00  0.00     0.163 HD
BRANCH  11  13
HETATM   13  C16 UNL     1      17.471  -0.299  52.161  1.00  0.00     0.161 C 
BRANCH  13  14
HETATM   14  C17 UNL     1      17.011  -1.635  52.611  1.00  0.00    -0.038 A 
HETATM   15  C18 UNL     1      17.676  -2.533  53.404  1.00  0.00     0.028 A 
HETATM   16  C19 UNL     1      17.156  -3.755  53.758  1.00  0.00     0.116 A 
HETATM   17  N4  UNL     1      15.936  -4.132  53.328  1.00  0.00    -0.273 NA
HETATM   18  C20 UNL     1      15.228  -3.296  52.545  1.00  0.00     0.116 A 
HETATM   19  C21 UNL     1      15.756  -2.064  52.188  1.00  0.00     0.028 A 
ENDBRANCH  13  14
ENDBRANCH  11  13
ENDBRANCH   7   9
ENDBRANCH   1   7
BRANCH   2  20
HETATM   20  C5  UNL     1      24.616   1.621  52.698  1.00  0.00     0.047 A 
HETATM   21  C6  UNL     1      25.096   2.755  53.474  1.00  0.00     0.257 A 
HETATM   22  O1  UNL     1      24.528   3.859  53.654  1.00  0.00    -0.267 OA
HETATM   23  N2  UNL     1      26.353   2.471  54.047  1.00  0.00    -0.322 N 
HETATM   24  C7  UNL     1      26.620   1.149  53.603  1.00  0.00     0.046 A 
HETATM   25  H8  UNL     1      26.966   3.051  54.649  1.00  0.00     0.169 HD
HETATM   26  C8  UNL     1      27.726   0.326  53.851  1.00  0.00     0.033 A 
HETATM   27  C12 UNL     1      25.645   0.595  52.812  1.00  0.00     0.009 A 
HETATM   28  C9  UNL     1      27.892  -0.960  53.366  1.00  0.00     0.044 A 
HETATM   29  C10 UNL     1      26.883  -1.469  52.576  1.00  0.00     0.117 A 
HETATM   30  F1  UNL     1      26.984  -2.721  52.071  1.00  0.00    -0.206 F 
HETATM   31  C11 UNL     1      25.779  -0.682  52.314  1.00  0.00     0.057 A 
ENDBRANCH   2  20
TORSDOF 7
ENDMDL
MODEL 6
REMARK VINA RESULT:      -8.1      2.000      5.599
REMARK  7 active torsions:
REMARK  status: ('A' for Active; 'I' for Inactive)
REMARK    1  A    between atoms: C2_2  and  N1_3 
REMARK    2  A    between atoms: N1_3  and  C3_4 
REMARK    3  A    between atoms: C3_4  and  C13_17 
REMARK    4  A    between atoms: C4_5  and  C5_6 
REMARK    5  A    between atoms: C13_17  and  C15_19 
REMARK       I    between atoms: C15_19  and  N3_21 
REMARK    6  A    between atoms: N3_21  and  C16_22 
REMARK    7  A    between atoms: C16_22  and  C17_23 
ROOT
HETATM    1  C3  UNL     1      25.100   3.410  50.912  1.00  0.00     0.040 C 
HETATM    2  C4  UNL     1      25.924   2.283  51.284  1.00  0.00     0.048 C 
ENDROOT
BRANCH   1   3
HETATM    3  N1  UNL     1      24.650   4.357  51.908  1.00  0.00    -0.390 N 
HETATM    4  H6  UNL     1      25.146   5.266  52.079  1.00  0.00     0.159 HD
BRANCH   3   5
HETATM    5  C2  UNL     1      23.455   3.761  52.529  1.00  0.00     0.115 C 
HETATM    6  C1  UNL     1      22.344   4.773  52.345  1.00  0.00     0.026 C 
ENDBRANCH   3   5
ENDBRANCH   1   3
BRANCH   1   7
HETATM    7  C13 UNL     1      24.628   3.827  49.755  1.00  0.00     0.032 C 
HETATM    8  C14 UNL     1      25.273   4.946  49.044  1.00  0.00     0.056 C 
BRANCH   7   9
HETATM    9  C15 UNL     1      23.461   3.259  49.083  1.00  0.00     0.249 C 
HETATM   10  O2  UNL     1      22.795   3.673  48.091  1.00  0.00    -0.268 OA
HETATM   11  N3  UNL     1      22.862   2.057  49.487  1.00  0.00    -0.353 N 
HETATM   12  H15 UNL     1      23.289   1.547  50.327  1.00  0.00     0.163 HD
BRANCH  11  13
HETATM   13  C16 UNL     1      21.712   1.393  48.911  1.00  0.00     0.161 C 
BRANCH  13  14
HETATM   14  C17 UNL     1      20.664   1.048  49.902  1.00  0.00    -0.038 A 
HETATM   15  C18 UNL     1      19.309   1.222  49.792  1.00  0.00     0.028 A 
HETATM   16  C19 UNL     1      18.422   0.870  50.782  1.00  0.00     0.116 A 
HETATM   17  N4  UNL     1      18.859   0.325  51.934  1.00  0.00    -0.273 NA
HETATM   18  C20 UNL     1      20.180   0.126  52.107  1.00  0.00     0.116 A 
HETATM   19  C21 UNL     1      21.073   0.483  51.107  1.00  0.00     0.028 A 
ENDBRANCH  13  14
ENDBRANCH  11  13
ENDBRANCH   7   9
ENDBRANCH   1   7
BRANCH   2  20
HETATM   20  C5  UNL     1      26.364   1.769  52.402  1.00  0.00     0.047 A 
HETATM   21  C6  UNL     1      27.617   1.957  53.119  1.00  0.00     0.257 A 
HETATM   22  O1  UNL     1      28.580   2.696  52.804  1.00  0.00    -0.267 OA
HETATM   23  N2  UNL     1      27.646   1.169  54.289  1.00  0.00    -0.322 N 
HETATM   24  C7  UNL     1      26.390   0.506  54.264  1.00  0.00     0.046 A 
HETATM   25  H8  UNL     1      28.378   1.068  55.016  1.00  0.00     0.169 HD
HETATM   26  C8  UNL     1      25.843  -0.412  55.169  1.00  0.00     0.033 A 
HETATM   27  C12 UNL     1      25.595   0.813  53.188  1.00  0.00     0.009 A 
HETATM   28  C9  UNL     1      24.598  -1.006  55.051  1.00  0.00     0.044 A 
HETATM   29  C10 UNL     1      23.838  -0.663  53.953  1.00  0.00     0.117 A 
HETATM   30  F1  UNL     1      22.612  -1.210  53.780  1.00  0.00    -0.206 F 
HETATM   31  C11 UNL     1      24.351   0.239  53.042  1.00  0.00     0.057 A 
ENDBRANCH   2  20
TORSDOF 7
ENDMDL
MODEL 7
REMARK VINA RESULT:      -7.9      4.067      7.177
REMARK  7 active torsions:
REMARK  status: ('A' for Active; 'I' for Inactive)
REMARK    1  A    between atoms: C2_2  and  N1_3 
REMARK    2  A    between atoms: N1_3  and  C3_4 
REMARK    3  A    between atoms: C3_4  and  C13_17 
REMARK    4  A    between atoms: C4_5  and  C5_6 
REMARK    5  A    between atoms: C13_17  and  C15_19 
REMARK       I    between atoms: C15_19  and  N3_21 
REMARK    6  A    between atoms: N3_21  and  C16_22 
REMARK    7  A    between atoms: C16_22  and  C17_23 
ROOT
HETATM    1  C3  UNL     1      24.880   4.600  50.103  1.00  0.00     0.040 C 
HETATM    2  C4  UNL     1      25.813   5.062  49.101  1.00  0.00     0.048 C 
ENDROOT
BRANCH   1   3
HETATM    3  N1  UNL     1      24.378   5.501  51.118  1.00  0.00    -0.390 N 
HETATM    4  H6  UNL     1      24.914   5.707  51.996  1.00  0.00     0.159 HD
BRANCH   3   5
HETATM    5  C2  UNL     1      23.075   5.982  50.628  1.00  0.00     0.115 C 
HETATM    6  C1  UNL     1      22.074   5.639  51.711  1.00  0.00     0.026 C 
ENDBRANCH   3   5
ENDBRANCH   1   3
BRANCH   1   7
HETATM    7  C13 UNL     1      24.310   3.432  50.321  1.00  0.00     0.032 C 
HETATM    8  C14 UNL     1      23.563   2.753  49.247  1.00  0.00     0.056 C 
BRANCH   7   9
HETATM    9  C15 UNL     1      24.345   2.718  51.596  1.00  0.00     0.249 C 
HETATM   10  O2  UNL     1      24.321   3.148  52.785  1.00  0.00    -0.268 OA
HETATM   11  N3  UNL     1      24.420   1.320  51.682  1.00  0.00    -0.353 N 
HETATM   12  H15 UNL     1      24.452   0.768  50.765  1.00  0.00     0.163 HD
BRANCH  11  13
HETATM   13  C16 UNL     1      24.462   0.499  52.874  1.00  0.00     0.161 C 
BRANCH  13  14
HETATM   14  C17 UNL     1      25.825   0.036  53.230  1.00  0.00    -0.038 A 
HETATM   15  C18 UNL     1      26.596  -0.895  52.582  1.00  0.00     0.028 A 
HETATM   16  C19 UNL     1      27.853  -1.256  53.005  1.00  0.00     0.116 A 
HETATM   17  N4  UNL     1      28.396  -0.696  54.104  1.00  0.00    -0.273 NA
HETATM   18  C20 UNL     1      27.692   0.227  54.786  1.00  0.00     0.116 A 
HETATM   19  C21 UNL     1      26.424   0.589  54.359  1.00  0.00     0.028 A 
ENDBRANCH  13  14
ENDBRANCH  11  13
ENDBRANCH   7   9
ENDBRANCH   1   7
BRANCH   2  20
HETATM   20  C5  UNL     1      26.470   6.167  48.868  1.00  0.00     0.047 A 
HETATM   21  C6  UNL     1      26.055   7.561  48.912  1.00  0.00     0.257 A 
HETATM   22  O1  UNL     1      24.925   8.018  49.209  1.00  0.00    -0.267 OA
HETATM   23  N2  UNL     1      27.125   8.412  48.563  1.00  0.00    -0.322 N 
HETATM   24  C7  UNL     1      28.189   7.507  48.310  1.00  0.00     0.046 A 
HETATM   25  H8  UNL     1      27.170   9.445  48.496  1.00  0.00     0.169 HD
HETATM   26  C8  UNL     1      29.510   7.762  47.922  1.00  0.00     0.033 A 
HETATM   27  C12 UNL     1      27.872   6.180  48.470  1.00  0.00     0.009 A 
HETATM   28  C9  UNL     1      30.479   6.799  47.698  1.00  0.00     0.044 A 
HETATM   29  C10 UNL     1      30.110   5.482  47.873  1.00  0.00     0.117 A 
HETATM   30  F1  UNL     1      31.011   4.493  47.670  1.00  0.00    -0.206 F 
HETATM   31  C11 UNL     1      28.813   5.198  48.256  1.00  0.00     0.057 A 
ENDBRANCH   2  20
TORSDOF 7
ENDMDL
MODEL 8
REMARK VINA RESULT:      -7.9      3.135      5.944
REMARK  7 active torsions:
REMARK  status: ('A' for Active; 'I' for Inactive)
REMARK    1  A    between atoms: C2_2  and  N1_3 
REMARK    2  A    between atoms: N1_3  and  C3_4 
REMARK    3  A    between atoms: C3_4  and  C13_17 
REMARK    4  A    between atoms: C4_5  and  C5_6 
REMARK    5  A    between atoms: C13_17  and  C15_19 
REMARK       I    between atoms: C15_19  and  N3_21 
REMARK    6  A    between atoms: N3_21  and  C16_22 
REMARK    7  A    between atoms: C16_22  and  C17_23 
ROOT
HETATM    1  C3  UNL     1      25.282   2.617  51.289  1.00  0.00     0.040 C 
HETATM    2  C4  UNL     1      25.638   1.276  51.695  1.00  0.00     0.048 C 
ENDROOT
BRANCH   1   3
HETATM    3  N1  UNL     1      24.974   3.630  52.274  1.00  0.00    -0.390 N 
HETATM    4  H6  UNL     1      25.699   4.294  52.639  1.00  0.00     0.159 HD
BRANCH   3   5
HETATM    5  C2  UNL     1      23.540   3.482  52.577  1.00  0.00     0.115 C 
HETATM    6  C1  UNL     1      22.969   4.884  52.572  1.00  0.00     0.026 C 
ENDBRANCH   3   5
ENDBRANCH   1   3
BRANCH   1   7
HETATM    7  C13 UNL     1      25.179   3.195  50.109  1.00  0.00     0.032 C 
HETATM    8  C14 UNL     1      23.921   3.116  49.346  1.00  0.00     0.056 C 
BRANCH   7   9
HETATM    9  C15 UNL     1      26.253   3.937  49.454  1.00  0.00     0.249 C 
HETATM   10  O2  UNL     1      27.366   3.549  48.995  1.00  0.00    -0.268 OA
HETATM   11  N3  UNL     1      26.191   5.319  49.223  1.00  0.00    -0.353 N 
HETATM   12  H15 UNL     1      25.312   5.838  49.549  1.00  0.00     0.163 HD
BRANCH  11  13
HETATM   13  C16 UNL     1      27.181   6.166  48.590  1.00  0.00     0.161 C 
BRANCH  13  14
HETATM   14  C17 UNL     1      26.994   7.610  48.867  1.00  0.00    -0.038 A 
HETATM   15  C18 UNL     1      27.921   8.508  49.331  1.00  0.00     0.028 A 
HETATM   16  C19 UNL     1      27.637   9.833  49.560  1.00  0.00     0.116 A 
HETATM   17  N4  UNL     1      26.401  10.320  49.333  1.00  0.00    -0.273 NA
HETATM   18  C20 UNL     1      25.443   9.491  48.875  1.00  0.00     0.116 A 
HETATM   19  C21 UNL     1      25.731   8.155  48.645  1.00  0.00     0.028 A 
ENDBRANCH  13  14
ENDBRANCH  11  13
ENDBRANCH   7   9
ENDBRANCH   1   7
BRANCH   2  20
HETATM   20  C5  UNL     1      25.689   0.619  52.823  1.00  0.00     0.047 A 
HETATM   21  C6  UNL     1      26.801   0.323  53.715  1.00  0.00     0.257 A 
HETATM   22  O1  UNL     1      28.001   0.665  53.586  1.00  0.00    -0.267 OA
HETATM   23  N2  UNL     1      26.367  -0.440  54.818  1.00  0.00    -0.322 N 
HETATM   24  C7  UNL     1      24.977  -0.598  54.576  1.00  0.00     0.046 A 
HETATM   25  H8  UNL     1      26.894  -0.814  55.628  1.00  0.00     0.169 HD
HETATM   26  C8  UNL     1      24.005  -1.267  55.331  1.00  0.00     0.033 A 
HETATM   27  C12 UNL     1      24.518  -0.003  53.427  1.00  0.00     0.009 A 
HETATM   28  C9  UNL     1      22.664  -1.363  55.004  1.00  0.00     0.044 A 
HETATM   29  C10 UNL     1      22.254  -0.748  53.840  1.00  0.00     0.117 A 
HETATM   30  F1  UNL     1      20.955  -0.805  53.464  1.00  0.00    -0.206 F 
HETATM   31  C11 UNL     1      23.189  -0.080  53.074  1.00  0.00     0.057 A 
ENDBRANCH   2  20
TORSDOF 7
ENDMDL
MODEL 9
REMARK VINA RESULT:      -7.8      2.764      3.422
REMARK  7 active torsions:
REMARK  status: ('A' for Active; 'I' for Inactive)
REMARK    1  A    between atoms: C2_2  and  N1_3 
REMARK    2  A    between atoms: N1_3  and  C3_4 
REMARK    3  A    between atoms: C3_4  and  C13_17 
REMARK    4  A    between atoms: C4_5  and  C5_6 
REMARK    5  A    between atoms: C13_17  and  C15_19 
REMARK       I    between atoms: C15_19  and  N3_21 
REMARK    6  A    between atoms: N3_21  and  C16_22 
REMARK    7  A    between atoms: C16_22  and  C17_23 
ROOT
HETATM    1  C3  UNL     1      22.392   2.057  51.189  1.00  0.00     0.040 C 
HETATM    2  C4  UNL     1      21.851   0.741  51.437  1.00  0.00     0.048 C 
ENDROOT
BRANCH   1   3
HETATM    3  N1  UNL     1      21.985   3.188  51.994  1.00  0.00    -0.390 N 
HETATM    4  H6  UNL     1      22.339   3.334  52.970  1.00  0.00     0.159 HD
BRANCH   3   5
HETATM    5  C2  UNL     1      21.056   3.969  51.160  1.00  0.00     0.115 C 
HETATM    6  C1  UNL     1      19.680   3.745  51.751  1.00  0.00     0.026 C 
ENDBRANCH   3   5
ENDBRANCH   1   3
BRANCH   1   7
HETATM    7  C13 UNL     1      23.273   2.511  50.320  1.00  0.00     0.032 C 
HETATM    8  C14 UNL     1      22.944   2.574  48.885  1.00  0.00     0.056 C 
BRANCH   7   9
HETATM    9  C15 UNL     1      24.615   2.974  50.667  1.00  0.00     0.249 C 
HETATM   10  O2  UNL     1      25.164   4.104  50.520  1.00  0.00    -0.268 OA
HETATM   11  N3  UNL     1      25.573   2.145  51.270  1.00  0.00    -0.353 N 
HETATM   12  H15 UNL     1      25.293   1.132  51.477  1.00  0.00     0.163 HD
BRANCH  11  13
HETATM   13  C16 UNL     1      26.926   2.479  51.660  1.00  0.00     0.161 C 
BRANCH  13  14
HETATM   14  C17 UNL     1      27.449   1.647  52.770  1.00  0.00    -0.038 A 
HETATM   15  C18 UNL     1      28.633   1.790  53.447  1.00  0.00     0.028 A 
HETATM   16  C19 UNL     1      29.024   0.952  54.464  1.00  0.00     0.116 A 
HETATM   17  N4  UNL     1      28.241  -0.074  54.849  1.00  0.00    -0.273 NA
HETATM   18  C20 UNL     1      27.063  -0.270  54.225  1.00  0.00     0.116 A 
HETATM   19  C21 UNL     1      26.670   0.575  53.199  1.00  0.00     0.028 A 
ENDBRANCH  13  14
ENDBRANCH  11  13
ENDBRANCH   7   9
ENDBRANCH   1   7
BRANCH   2  20
HETATM   20  C5  UNL     1      20.934   0.233  52.218  1.00  0.00     0.047 A 
HETATM   21  C6  UNL     1      20.998  -0.250  53.589  1.00  0.00     0.257 A 
HETATM   22  O1  UNL     1      21.995  -0.272  54.350  1.00  0.00    -0.267 OA
HETATM   23  N2  UNL     1      19.740  -0.726  54.010  1.00  0.00    -0.322 N 
HETATM   24  C7  UNL     1      18.918  -0.520  52.871  1.00  0.00     0.046 A 
HETATM   25  H8  UNL     1      19.441  -1.132  54.916  1.00  0.00     0.169 HD
HETATM   26  C8  UNL     1      17.558  -0.800  52.684  1.00  0.00     0.033 A 
HETATM   27  C12 UNL     1      19.555   0.037  51.790  1.00  0.00     0.009 A 
HETATM   28  C9  UNL     1      16.844  -0.559  51.522  1.00  0.00     0.044 A 
HETATM   29  C10 UNL     1      17.531   0.003  50.467  1.00  0.00     0.117 A 
HETATM   30  F1  UNL     1      16.890   0.263  49.303  1.00  0.00    -0.206 F 
HETATM   31  C11 UNL     1      18.873   0.289  50.620  1.00  0.00     0.057 A 
ENDBRANCH   2  20
TORSDOF 7
ENDMDL
