MODEL 1
REMARK VINA RESULT:      -8.2      0.000      0.000
REMARK  9 active torsions:
REMARK  status: ('A' for Active; 'I' for Inactive)
REMARK    1  A    between atoms: C2_2  and  C3_3 
REMARK    2  A    between atoms: C4_4  and  C5_5 
REMARK    3  A    between atoms: C6_6  and  C7_7 
REMARK    4  A    between atoms: C7_7  and  C8_8 
REMARK    5  A    between atoms: C8_8  and  N1_9 
REMARK    6  A    between atoms: N1_9  and  C9_10 
REMARK       I    between atoms: N1_9  and  C16_18 
REMARK    7  A    between atoms: C9_10  and  C10_11 
REMARK    8  A    between atoms: C13_14  and  O1_15 
REMARK       I    between atoms: C16_18  and  N2_20 
REMARK    9  A    between atoms: N2_20  and  C17_21 
ROOT
HETATM    1  N1  UNL     1      23.772  -0.137  53.196  1.00  0.00    -0.329 N 
HETATM    2  C16 UNL     1      25.214  -0.328  53.196  1.00  0.00     0.323 C 
HETATM    3  O2  UNL     1      25.547  -0.983  54.250  1.00  0.00    -0.247 OA
HETATM    4  N2  UNL     1      26.319  -0.002  52.375  1.00  0.00    -0.309 N 
HETATM    5  H21 UNL     1      25.935   0.518  51.540  1.00  0.00     0.170 HD
ENDROOT
BRANCH   1   6
HETATM    6  C8  UNL     1      23.303  -0.792  54.378  1.00  0.00     0.132 C 
BRANCH   6   7
HETATM    7  C7  UNL     1      21.878  -1.127  54.395  1.00  0.00     0.047 C 
BRANCH   7   8
HETATM    8  C6  UNL     1      21.012   0.029  54.637  1.00  0.00    -0.025 C 
HETATM    9  C5  UNL     1      20.093   0.594  53.884  1.00  0.00    -0.004 C 
BRANCH   9  10
HETATM   10  C4  UNL     1      19.774   0.095  52.557  1.00  0.00    -0.004 C 
HETATM   11  C3  UNL     1      18.714  -0.658  52.331  1.00  0.00    -0.027 C 
BRANCH  11  12
HETATM   12  C2  UNL     1      17.692  -1.132  53.281  1.00  0.00     0.022 C 
HETATM   13  C1  UNL     1      17.989  -2.560  53.723  1.00  0.00     0.009 C 
ENDBRANCH  11  12
ENDBRANCH   9  10
ENDBRANCH   7   8
ENDBRANCH   6   7
ENDBRANCH   1   6
BRANCH   1  14
HETATM   14  C9  UNL     1      23.349   0.559  52.007  1.00  0.00     0.166 C 
BRANCH  14  15
HETATM   15  C10 UNL     1      23.139   2.000  52.072  1.00  0.00    -0.040 A 
HETATM   16  C11 UNL     1      22.089   2.580  51.334  1.00  0.00     0.011 A 
HETATM   17  C12 UNL     1      21.756   3.911  51.282  1.00  0.00     0.037 A 
HETATM   18  C13 UNL     1      22.511   4.792  52.020  1.00  0.00     0.065 A 
HETATM   19  C14 UNL     1      23.557   4.306  52.770  1.00  0.00     0.037 A 
HETATM   20  C15 UNL     1      23.823   2.963  52.766  1.00  0.00     0.011 A 
BRANCH  18  21
HETATM   21  O1  UNL     1      22.190   6.119  51.978  1.00  0.00    -0.361 OA
HETATM   22  H18 UNL     1      21.335   6.546  51.709  1.00  0.00     0.217 HD
ENDBRANCH  18  21
ENDBRANCH  14  15
ENDBRANCH   1  14
BRANCH   4  23
HETATM   23  C17 UNL     1      27.568  -0.432  52.841  1.00  0.00     0.036 A 
HETATM   24  C18 UNL     1      28.426   0.530  53.350  1.00  0.00     0.029 A 
HETATM   25  C19 UNL     1      29.655   0.094  53.806  1.00  0.00     0.002 A 
HETATM   26  C20 UNL     1      30.020  -1.243  53.761  1.00  0.00     0.000 A 
HETATM   27  C21 UNL     1      29.126  -2.156  53.242  1.00  0.00     0.002 A 
HETATM   28  C22 UNL     1      27.864  -1.781  52.763  1.00  0.00     0.029 A 
ENDBRANCH   4  23
TORSDOF 9
ENDMDL
MODEL 2
REMARK VINA RESULT:      -7.8      3.305      5.916
REMARK  9 active torsions:
REMARK  status: ('A' for Active; 'I' for Inactive)
REMARK    1  A    between atoms: C2_2  and  C3_3 
REMARK    2  A    between atoms: C4_4  and  C5_5 
REMARK    3  A    between atoms: C6_6  and  C7_7 
REMARK    4  A    between atoms: C7_7  and  C8_8 
REMARK    5  A    between atoms: C8_8  and  N1_9 
REMARK    6  A    between atoms: N1_9  and  C9_10 
REMARK       I    between atoms: N1_9  and  C16_18 
REMARK    7  A    between atoms: C9_10  and  C10_11 
REMARK    8  A    between atoms: C13_14  and  O1_15 
REMARK       I    between atoms: C16_18  and  N2_20 
REMARK    9  A    between atoms: N2_20  and  C17_21 
ROOT
HETATM    1  N1  UNL     1      23.479   2.949  50.945  1.00  0.00    -0.329 N 
HETATM    2  C16 UNL     1      24.458   3.853  50.362  1.00  0.00     0.323 C 
HETATM    3  O2  UNL     1      24.246   3.939  49.099  1.00  0.00    -0.247 OA
HETATM    4  N2  UNL     1      25.550   4.642  50.796  1.00  0.00    -0.309 N 
HETATM    5  H21 UNL     1      25.627   4.509  51.840  1.00  0.00     0.170 HD
ENDROOT
BRANCH   1   6
HETATM    6  C8  UNL     1      22.647   2.540  49.856  1.00  0.00     0.132 C 
BRANCH   6   7
HETATM    7  C7  UNL     1      21.320   2.042  50.224  1.00  0.00     0.047 C 
BRANCH   7   8
HETATM    8  C6  UNL     1      21.301   0.610  50.529  1.00  0.00    -0.025 C 
HETATM    9  C5  UNL     1      21.151  -0.030  51.668  1.00  0.00    -0.004 C 
BRANCH   9  10
HETATM   10  C4  UNL     1      20.964   0.674  52.925  1.00  0.00    -0.004 C 
HETATM   11  C3  UNL     1      21.208   0.102  54.089  1.00  0.00    -0.027 C 
BRANCH  11  12
HETATM   12  C2  UNL     1      21.687  -1.264  54.370  1.00  0.00     0.022 C 
HETATM   13  C1  UNL     1      22.883  -1.231  55.314  1.00  0.00     0.009 C 
ENDBRANCH  11  12
ENDBRANCH   9  10
ENDBRANCH   7   8
ENDBRANCH   6   7
ENDBRANCH   1   6
BRANCH   1  14
HETATM   14  C9  UNL     1      23.656   2.855  52.373  1.00  0.00     0.166 C 
BRANCH  14  15
HETATM   15  C10 UNL     1      24.684   1.967  52.898  1.00  0.00    -0.040 A 
HETATM   16  C11 UNL     1      24.675   0.606  52.535  1.00  0.00     0.011 A 
HETATM   17  C12 UNL     1      25.563  -0.360  52.938  1.00  0.00     0.037 A 
HETATM   18  C13 UNL     1      26.579   0.014  53.785  1.00  0.00     0.065 A 
HETATM   19  C14 UNL     1      26.661   1.326  54.188  1.00  0.00     0.037 A 
HETATM   20  C15 UNL     1      25.734   2.228  53.740  1.00  0.00     0.011 A 
BRANCH  18  21
HETATM   21  O1  UNL     1      27.470  -0.938  54.192  1.00  0.00    -0.361 OA
HETATM   22  H18 UNL     1      27.879  -1.676  53.669  1.00  0.00     0.217 HD
ENDBRANCH  18  21
ENDBRANCH  14  15
ENDBRANCH   1  14
BRANCH   4  23
HETATM   23  C17 UNL     1      26.208   5.368  49.793  1.00  0.00     0.036 A 
HETATM   24  C18 UNL     1      25.723   6.631  49.495  1.00  0.00     0.029 A 
HETATM   25  C19 UNL     1      26.380   7.336  48.505  1.00  0.00     0.002 A 
HETATM   26  C20 UNL     1      27.473   6.810  47.835  1.00  0.00     0.000 A 
HETATM   27  C21 UNL     1      27.911   5.546  48.172  1.00  0.00     0.002 A 
HETATM   28  C22 UNL     1      27.292   4.778  49.166  1.00  0.00     0.029 A 
ENDBRANCH   4  23
TORSDOF 9
ENDMDL
MODEL 3
REMARK VINA RESULT:      -7.7      3.085      6.774
REMARK  9 active torsions:
REMARK  status: ('A' for Active; 'I' for Inactive)
REMARK    1  A    between atoms: C2_2  and  C3_3 
REMARK    2  A    between atoms: C4_4  and  C5_5 
REMARK    3  A    between atoms: C6_6  and  C7_7 
REMARK    4  A    between atoms: C7_7  and  C8_8 
REMARK    5  A    between atoms: C8_8  and  N1_9 
REMARK    6  A    between atoms: N1_9  and  C9_10 
REMARK       I    between atoms: N1_9  and  C16_18 
REMARK    7  A    between atoms: C9_10  and  C10_11 
REMARK    8  A    between atoms: C13_14  and  O1_15 
REMARK       I    between atoms: C16_18  and  N2_20 
REMARK    9  A    between atoms: N2_20  and  C17_21 
ROOT
HETATM    1  N1  UNL     1      23.470   1.574  51.958  1.00  0.00    -0.329 N 
HETATM    2  C16 UNL     1      24.142   2.531  51.094  1.00  0.00     0.323 C 
HETATM    3  O2  UNL     1      25.081   3.104  51.757  1.00  0.00    -0.247 OA
HETATM    4  N2  UNL     1      24.048   2.990  49.758  1.00  0.00    -0.309 N 
HETATM    5  H21 UNL     1      23.262   2.451  49.305  1.00  0.00     0.170 HD
ENDROOT
BRANCH   1   6
HETATM    6  C8  UNL     1      24.161   1.644  53.209  1.00  0.00     0.132 C 
BRANCH   6   7
HETATM    7  C7  UNL     1      24.743   0.387  53.682  1.00  0.00     0.047 C 
BRANCH   7   8
HETATM    8  C6  UNL     1      25.583  -0.278  52.684  1.00  0.00    -0.025 C 
HETATM    9  C5  UNL     1      26.796  -0.007  52.256  1.00  0.00    -0.004 C 
BRANCH   9  10
HETATM   10  C4  UNL     1      27.560   1.117  52.771  1.00  0.00    -0.004 C 
HETATM   11  C3  UNL     1      28.474   0.968  53.711  1.00  0.00    -0.027 C 
BRANCH  11  12
HETATM   12  C2  UNL     1      28.904  -0.261  54.401  1.00  0.00     0.022 C 
HETATM   13  C1  UNL     1      30.054  -0.925  53.653  1.00  0.00     0.009 C 
ENDBRANCH  11  12
ENDBRANCH   9  10
ENDBRANCH   7   8
ENDBRANCH   6   7
ENDBRANCH   1   6
BRANCH   1  14
HETATM   14  C9  UNL     1      22.432   0.877  51.240  1.00  0.00     0.166 C 
BRANCH  14  15
HETATM   15  C10 UNL     1      21.325   0.298  51.989  1.00  0.00    -0.040 A 
HETATM   16  C11 UNL     1      20.008   0.470  51.521  1.00  0.00     0.011 A 
HETATM   17  C12 UNL     1      18.858  -0.005  52.103  1.00  0.00     0.037 A 
HETATM   18  C13 UNL     1      18.978  -0.729  53.265  1.00  0.00     0.065 A 
HETATM   19  C14 UNL     1      20.231  -0.943  53.791  1.00  0.00     0.037 A 
HETATM   20  C15 UNL     1      21.327  -0.434  53.148  1.00  0.00     0.011 A 
BRANCH  18  21
HETATM   21  O1  UNL     1      17.842  -1.208  53.853  1.00  0.00    -0.361 OA
HETATM   22  H18 UNL     1      17.419  -2.101  53.761  1.00  0.00     0.217 HD
ENDBRANCH  18  21
ENDBRANCH  14  15
ENDBRANCH   1  14
BRANCH   4  23
HETATM   23  C17 UNL     1      24.973   3.977  49.390  1.00  0.00     0.036 A 
HETATM   24  C18 UNL     1      26.307   3.608  49.319  1.00  0.00     0.029 A 
HETATM   25  C19 UNL     1      27.209   4.590  48.957  1.00  0.00     0.002 A 
HETATM   26  C20 UNL     1      26.806   5.886  48.676  1.00  0.00     0.000 A 
HETATM   27  C21 UNL     1      25.464   6.196  48.765  1.00  0.00     0.002 A 
HETATM   28  C22 UNL     1      24.498   5.250  49.126  1.00  0.00     0.029 A 
ENDBRANCH   4  23
TORSDOF 9
ENDMDL
MODEL 4
REMARK VINA RESULT:      -7.7      3.324      4.193
REMARK  9 active torsions:
REMARK  status: ('A' for Active; 'I' for Inactive)
REMARK    1  A    between atoms: C2_2  and  C3_3 
REMARK    2  A    between atoms: C4_4  and  C5_5 
REMARK    3  A    between atoms: C6_6  and  C7_7 
REMARK    4  A    between atoms: C7_7  and  C8_8 
REMARK    5  A    between atoms: C8_8  and  N1_9 
REMARK    6  A    between atoms: N1_9  and  C9_10 
REMARK       I    between atoms: N1_9  and  C16_18 
REMARK    7  A    between atoms: C9_10  and  C10_11 
REMARK    8  A    between atoms: C13_14  and  O1_15 
REMARK       I    between atoms: C16_18  and  N2_20 
REMARK    9  A    between atoms: N2_20  and  C17_21 
ROOT
HETATM    1  N1  UNL     1      24.541   3.227  51.121  1.00  0.00    -0.329 N 
HETATM    2  C16 UNL     1      25.617   2.548  51.826  1.00  0.00     0.323 C 
HETATM    3  O2  UNL     1      25.276   2.387  53.053  1.00  0.00    -0.247 OA
HETATM    4  N2  UNL     1      26.902   2.030  51.535  1.00  0.00    -0.309 N 
HETATM    5  H21 UNL     1      27.075   2.202  50.509  1.00  0.00     0.170 HD
ENDROOT
BRANCH   1   6
HETATM    6  C8  UNL     1      23.511   3.415  52.096  1.00  0.00     0.132 C 
BRANCH   6   7
HETATM    7  C7  UNL     1      22.174   2.970  51.701  1.00  0.00     0.047 C 
BRANCH   7   8
HETATM    8  C6  UNL     1      22.084   1.526  51.478  1.00  0.00    -0.025 C 
HETATM    9  C5  UNL     1      21.576   0.566  52.220  1.00  0.00    -0.004 C 
BRANCH   9  10
HETATM   10  C4  UNL     1      20.966   0.835  53.511  1.00  0.00    -0.004 C 
HETATM   11  C3  UNL     1      21.022  -0.031  54.505  1.00  0.00    -0.027 C 
BRANCH  11  12
HETATM   12  C2  UNL     1      21.661  -1.359  54.543  1.00  0.00     0.022 C 
HETATM   13  C1  UNL     1      22.976  -1.303  55.311  1.00  0.00     0.009 C 
ENDBRANCH  11  12
ENDBRANCH   9  10
ENDBRANCH   7   8
ENDBRANCH   6   7
ENDBRANCH   1   6
BRANCH   1  14
HETATM   14  C9  UNL     1      24.866   3.392  49.727  1.00  0.00     0.166 C 
BRANCH  14  15
HETATM   15  C10 UNL     1      25.686   4.527  49.325  1.00  0.00    -0.040 A 
HETATM   16  C11 UNL     1      27.029   4.315  48.956  1.00  0.00     0.011 A 
HETATM   17  C12 UNL     1      27.933   5.268  48.556  1.00  0.00     0.037 A 
HETATM   18  C13 UNL     1      27.509   6.574  48.501  1.00  0.00     0.065 A 
HETATM   19  C14 UNL     1      26.210   6.868  48.846  1.00  0.00     0.037 A 
HETATM   20  C15 UNL     1      25.371   5.858  49.235  1.00  0.00     0.011 A 
BRANCH  18  21
HETATM   21  O1  UNL     1      28.399   7.531  48.104  1.00  0.00    -0.361 OA
HETATM   22  H18 UNL     1      28.327   8.518  48.173  1.00  0.00     0.217 HD
ENDBRANCH  18  21
ENDBRANCH  14  15
ENDBRANCH   1  14
BRANCH   4  23
HETATM   23  C17 UNL     1      27.577   1.444  52.616  1.00  0.00     0.036 A 
HETATM   24  C18 UNL     1      28.403   2.261  53.371  1.00  0.00     0.029 A 
HETATM   25  C19 UNL     1      29.063   1.673  54.433  1.00  0.00     0.002 A 
HETATM   26  C20 UNL     1      28.911   0.328  54.734  1.00  0.00     0.000 A 
HETATM   27  C21 UNL     1      28.076  -0.437  53.945  1.00  0.00     0.002 A 
HETATM   28  C22 UNL     1      27.378   0.096  52.855  1.00  0.00     0.029 A 
ENDBRANCH   4  23
TORSDOF 9
ENDMDL
MODEL 5
REMARK VINA RESULT:      -7.5      3.830      6.974
REMARK  9 active torsions:
REMARK  status: ('A' for Active; 'I' for Inactive)
REMARK    1  A    between atoms: C2_2  and  C3_3 
REMARK    2  A    between atoms: C4_4  and  C5_5 
REMARK    3  A    between atoms: C6_6  and  C7_7 
REMARK    4  A    between atoms: C7_7  and  C8_8 
REMARK    5  A    between atoms: C8_8  and  N1_9 
REMARK    6  A    between atoms: N1_9  and  C9_10 
REMARK       I    between atoms: N1_9  and  C16_18 
REMARK    7  A    between atoms: C9_10  and  C10_11 
REMARK    8  A    between atoms: C13_14  and  O1_15 
REMARK       I    between atoms: C16_18  and  N2_20 
REMARK    9  A    between atoms: N2_20  and  C17_21 
ROOT
HETATM    1  N1  UNL     1      25.353   3.643  50.207  1.00  0.00    -0.329 N 
HETATM    2  C16 UNL     1      25.660   5.003  49.791  1.00  0.00     0.323 C 
HETATM    3  O2  UNL     1      24.561   5.626  49.561  1.00  0.00    -0.247 OA
HETATM    4  N2  UNL     1      26.807   5.804  49.577  1.00  0.00    -0.309 N 
HETATM    5  H21 UNL     1      27.644   5.204  49.805  1.00  0.00     0.170 HD
ENDROOT
BRANCH   1   6
HETATM    6  C8  UNL     1      23.925   3.564  50.217  1.00  0.00     0.132 C 
BRANCH   6   7
HETATM    7  C7  UNL     1      23.364   2.268  50.602  1.00  0.00     0.047 C 
BRANCH   7   8
HETATM    8  C6  UNL     1      22.617   2.308  51.861  1.00  0.00    -0.025 C 
HETATM    9  C5  UNL     1      22.490   1.418  52.820  1.00  0.00    -0.004 C 
BRANCH   9  10
HETATM   10  C4  UNL     1      23.147   0.123  52.758  1.00  0.00    -0.004 C 
HETATM   11  C3  UNL     1      22.859  -0.848  53.604  1.00  0.00    -0.027 C 
BRANCH  11  12
HETATM   12  C2  UNL     1      21.890  -0.854  54.714  1.00  0.00     0.022 C 
HETATM   13  C1  UNL     1      20.655  -1.669  54.347  1.00  0.00     0.009 C 
ENDBRANCH  11  12
ENDBRANCH   9  10
ENDBRANCH   7   8
ENDBRANCH   6   7
ENDBRANCH   1   6
BRANCH   1  14
HETATM   14  C9  UNL     1      26.560   2.918  50.516  1.00  0.00     0.166 C 
BRANCH  14  15
HETATM   15  C10 UNL     1      26.546   1.965  51.617  1.00  0.00    -0.040 A 
HETATM   16  C11 UNL     1      26.297   2.421  52.926  1.00  0.00     0.011 A 
HETATM   17  C12 UNL     1      26.251   1.662  54.069  1.00  0.00     0.037 A 
HETATM   18  C13 UNL     1      26.466   0.309  53.951  1.00  0.00     0.065 A 
HETATM   19  C14 UNL     1      26.716  -0.219  52.706  1.00  0.00     0.037 A 
HETATM   20  C15 UNL     1      26.746   0.608  51.616  1.00  0.00     0.011 A 
BRANCH  18  21
HETATM   21  O1  UNL     1      26.422  -0.457  55.080  1.00  0.00    -0.361 OA
HETATM   22  H18 UNL     1      26.078  -0.222  55.981  1.00  0.00     0.217 HD
ENDBRANCH  18  21
ENDBRANCH  14  15
ENDBRANCH   1  14
BRANCH   4  23
HETATM   23  C17 UNL     1      26.557   7.117  49.153  1.00  0.00     0.036 A 
HETATM   24  C18 UNL     1      26.555   7.358  47.789  1.00  0.00     0.029 A 
HETATM   25  C19 UNL     1      26.309   8.655  47.382  1.00  0.00     0.002 A 
HETATM   26  C20 UNL     1      26.074   9.674  48.292  1.00  0.00     0.000 A 
HETATM   27  C21 UNL     1      26.090   9.376  49.639  1.00  0.00     0.002 A 
HETATM   28  C22 UNL     1      26.333   8.083  50.118  1.00  0.00     0.029 A 
ENDBRANCH   4  23
TORSDOF 9
ENDMDL
MODEL 6
REMARK VINA RESULT:      -7.4      2.227      3.486
REMARK  9 active torsions:
REMARK  status: ('A' for Active; 'I' for Inactive)
REMARK    1  A    between atoms: C2_2  and  C3_3 
REMARK    2  A    between atoms: C4_4  and  C5_5 
REMARK    3  A    between atoms: C6_6  and  C7_7 
REMARK    4  A    between atoms: C7_7  and  C8_8 
REMARK    5  A    between atoms: C8_8  and  N1_9 
REMARK    6  A    between atoms: N1_9  and  C9_10 
REMARK       I    between atoms: N1_9  and  C16_18 
REMARK    7  A    between atoms: C9_10  and  C10_11 
REMARK    8  A    between atoms: C13_14  and  O1_15 
REMARK       I    between atoms: C16_18  and  N2_20 
REMARK    9  A    between atoms: N2_20  and  C17_21 
ROOT
HETATM    1  N1  UNL     1      23.609   2.892  51.866  1.00  0.00    -0.329 N 
HETATM    2  C16 UNL     1      24.808   2.391  52.521  1.00  0.00     0.323 C 
HETATM    3  O2  UNL     1      25.248   1.378  51.865  1.00  0.00    -0.247 OA
HETATM    4  N2  UNL     1      25.601   2.708  53.650  1.00  0.00    -0.309 N 
HETATM    5  H21 UNL     1      25.161   3.553  54.103  1.00  0.00     0.170 HD
ENDROOT
BRANCH   1   6
HETATM    6  C8  UNL     1      23.424   2.052  50.723  1.00  0.00     0.132 C 
BRANCH   6   7
HETATM    7  C7  UNL     1      22.080   2.058  50.144  1.00  0.00     0.047 C 
BRANCH   7   8
HETATM    8  C6  UNL     1      21.374   0.785  50.300  1.00  0.00    -0.025 C 
HETATM    9  C5  UNL     1      20.723   0.277  51.324  1.00  0.00    -0.004 C 
BRANCH   9  10
HETATM   10  C4  UNL     1      20.601   0.987  52.586  1.00  0.00    -0.004 C 
HETATM   11  C3  UNL     1      21.371   0.711  53.620  1.00  0.00    -0.027 C 
BRANCH  11  12
HETATM   12  C2  UNL     1      22.445  -0.292  53.737  1.00  0.00     0.022 C 
HETATM   13  C1  UNL     1      21.940  -1.539  54.453  1.00  0.00     0.009 C 
ENDBRANCH  11  12
ENDBRANCH   9  10
ENDBRANCH   7   8
ENDBRANCH   6   7
ENDBRANCH   1   6
BRANCH   1  14
HETATM   14  C9  UNL     1      23.104   4.057  52.548  1.00  0.00     0.166 C 
BRANCH  14  15
HETATM   15  C10 UNL     1      22.822   5.259  51.773  1.00  0.00    -0.040 A 
HETATM   16  C11 UNL     1      23.877   6.129  51.438  1.00  0.00     0.011 A 
HETATM   17  C12 UNL     1      23.785   7.296  50.720  1.00  0.00     0.037 A 
HETATM   18  C13 UNL     1      22.544   7.678  50.269  1.00  0.00     0.065 A 
HETATM   19  C14 UNL     1      21.458   6.882  50.554  1.00  0.00     0.037 A 
HETATM   20  C15 UNL     1      21.635   5.734  51.277  1.00  0.00     0.011 A 
BRANCH  18  21
HETATM   21  O1  UNL     1      22.440   8.836  49.553  1.00  0.00    -0.361 OA
HETATM   22  H18 UNL     1      22.413   9.773  49.881  1.00  0.00     0.217 HD
ENDBRANCH  18  21
ENDBRANCH  14  15
ENDBRANCH   1  14
BRANCH   4  23
HETATM   23  C17 UNL     1      26.708   1.876  53.864  1.00  0.00     0.036 A 
HETATM   24  C18 UNL     1      27.925   2.286  53.343  1.00  0.00     0.029 A 
HETATM   25  C19 UNL     1      29.010   1.458  53.560  1.00  0.00     0.002 A 
HETATM   26  C20 UNL     1      28.893   0.270  54.265  1.00  0.00     0.000 A 
HETATM   27  C21 UNL     1      27.656  -0.088  54.759  1.00  0.00     0.002 A 
HETATM   28  C22 UNL     1      26.517   0.705  54.576  1.00  0.00     0.029 A 
ENDBRANCH   4  23
TORSDOF 9
ENDMDL
MODEL 7
REMARK VINA RESULT:      -7.3      2.650      5.612
REMARK  9 active torsions:
REMARK  status: ('A' for Active; 'I' for Inactive)
REMARK    1  A    between atoms: C2_2  and  C3_3 
REMARK    2  A    between atoms: C4_4  and  C5_5 
REMARK    3  A    between atoms: C6_6  and  C7_7 
REMARK    4  A    between atoms: C7_7  and  C8_8 
REMARK    5  A    between atoms: C8_8  and  N1_9 
REMARK    6  A    between atoms: N1_9  and  C9_10 
REMARK       I    between atoms: N1_9  and  C16_18 
REMARK    7  A    between atoms: C9_10  and  C10_11 
REMARK    8  A    between atoms: C13_14  and  O1_15 
REMARK       I    between atoms: C16_18  and  N2_20 
REMARK    9  A    between atoms: N2_20  and  C17_21 
ROOT
HETATM    1  N1  UNL     1      22.921   2.099  52.082  1.00  0.00    -0.329 N 
HETATM    2  C16 UNL     1      24.225   1.670  52.564  1.00  0.00     0.323 C 
HETATM    3  O2  UNL     1      24.794   2.657  53.158  1.00  0.00    -0.247 OA
HETATM    4  N2  UNL     1      25.014   0.495  52.560  1.00  0.00    -0.309 N 
HETATM    5  H21 UNL     1      24.452  -0.247  52.064  1.00  0.00     0.170 HD
ENDROOT
BRANCH   1   6
HETATM    6  C8  UNL     1      22.793   3.461  52.498  1.00  0.00     0.132 C 
BRANCH   6   7
HETATM    7  C7  UNL     1      21.972   4.313  51.636  1.00  0.00     0.047 C 
BRANCH   7   8
HETATM    8  C6  UNL     1      22.740   5.346  50.938  1.00  0.00    -0.025 C 
HETATM    9  C5  UNL     1      23.528   5.276  49.887  1.00  0.00    -0.004 C 
BRANCH   9  10
HETATM   10  C4  UNL     1      23.776   4.023  49.195  1.00  0.00    -0.004 C 
HETATM   11  C3  UNL     1      24.941   3.408  49.260  1.00  0.00    -0.027 C 
BRANCH  11  12
HETATM   12  C2  UNL     1      26.162   3.806  49.983  1.00  0.00     0.022 C 
HETATM   13  C1  UNL     1      27.165   4.451  49.034  1.00  0.00     0.009 C 
ENDBRANCH  11  12
ENDBRANCH   9  10
ENDBRANCH   7   8
ENDBRANCH   6   7
ENDBRANCH   1   6
BRANCH   1  14
HETATM   14  C9  UNL     1      22.229   1.008  51.443  1.00  0.00     0.166 C 
BRANCH  14  15
HETATM   15  C10 UNL     1      21.142   0.350  52.156  1.00  0.00    -0.040 A 
HETATM   16  C11 UNL     1      19.826   0.459  51.666  1.00  0.00     0.011 A 
HETATM   17  C12 UNL     1      18.694  -0.093  52.214  1.00  0.00     0.037 A 
HETATM   18  C13 UNL     1      18.833  -0.837  53.361  1.00  0.00     0.065 A 
HETATM   19  C14 UNL     1      20.086  -0.993  53.907  1.00  0.00     0.037 A 
HETATM   20  C15 UNL     1      21.164  -0.408  53.298  1.00  0.00     0.011 A 
BRANCH  18  21
HETATM   21  O1  UNL     1      17.715  -1.392  53.915  1.00  0.00    -0.361 OA
HETATM   22  H18 UNL     1      17.638  -1.979  54.712  1.00  0.00     0.217 HD
ENDBRANCH  18  21
ENDBRANCH  14  15
ENDBRANCH   1  14
BRANCH   4  23
HETATM   23  C17 UNL     1      26.264   0.604  53.186  1.00  0.00     0.036 A 
HETATM   24  C18 UNL     1      27.266   1.270  52.501  1.00  0.00     0.029 A 
HETATM   25  C19 UNL     1      28.493   1.370  53.128  1.00  0.00     0.002 A 
HETATM   26  C20 UNL     1      28.719   0.830  54.384  1.00  0.00     0.000 A 
HETATM   27  C21 UNL     1      27.683   0.176  55.019  1.00  0.00     0.002 A 
HETATM   28  C22 UNL     1      26.415   0.039  54.440  1.00  0.00     0.029 A 
ENDBRANCH   4  23
TORSDOF 9
ENDMDL
MODEL 8
REMARK VINA RESULT:      -7.3      2.529      5.666
REMARK  9 active torsions:
REMARK  status: ('A' for Active; 'I' for Inactive)
REMARK    1  A    between atoms: C2_2  and  C3_3 
REMARK    2  A    between atoms: C4_4  and  C5_5 
REMARK    3  A    between atoms: C6_6  and  C7_7 
REMARK    4  A    between atoms: C7_7  and  C8_8 
REMARK    5  A    between atoms: C8_8  and  N1_9 
REMARK    6  A    between atoms: N1_9  and  C9_10 
REMARK       I    between atoms: N1_9  and  C16_18 
REMARK    7  A    between atoms: C9_10  and  C10_11 
REMARK    8  A    between atoms: C13_14  and  O1_15 
REMARK       I    between atoms: C16_18  and  N2_20 
REMARK    9  A    between atoms: N2_20  and  C17_21 
ROOT
HETATM    1  N1  UNL     1      23.962   1.544  52.220  1.00  0.00    -0.329 N 
HETATM    2  C16 UNL     1      25.248   0.996  52.623  1.00  0.00     0.323 C 
HETATM    3  O2  UNL     1      26.022   0.955  51.599  1.00  0.00    -0.247 OA
HETATM    4  N2  UNL     1      25.863   0.512  53.802  1.00  0.00    -0.309 N 
HETATM    5  H21 UNL     1      25.151   0.602  54.576  1.00  0.00     0.170 HD
ENDROOT
BRANCH   1   6
HETATM    6  C8  UNL     1      24.098   1.843  50.828  1.00  0.00     0.132 C 
BRANCH   6   7
HETATM    7  C7  UNL     1      22.876   2.284  50.153  1.00  0.00     0.047 C 
BRANCH   7   8
HETATM    8  C6  UNL     1      23.125   2.914  48.854  1.00  0.00    -0.025 C 
HETATM    9  C5  UNL     1      23.556   4.118  48.546  1.00  0.00    -0.004 C 
BRANCH   9  10
HETATM   10  C4  UNL     1      23.881   5.102  49.564  1.00  0.00    -0.004 C 
HETATM   11  C3  UNL     1      25.108   5.558  49.729  1.00  0.00    -0.027 C 
BRANCH  11  12
HETATM   12  C2  UNL     1      26.334   5.212  48.987  1.00  0.00     0.022 C 
HETATM   13  C1  UNL     1      26.870   3.857  49.436  1.00  0.00     0.009 C 
ENDBRANCH  11  12
ENDBRANCH   9  10
ENDBRANCH   7   8
ENDBRANCH   6   7
ENDBRANCH   1   6
BRANCH   1  14
HETATM   14  C9  UNL     1      23.074   1.646  53.351  1.00  0.00     0.166 C 
BRANCH  14  15
HETATM   15  C10 UNL     1      22.079   0.603  53.562  1.00  0.00    -0.040 A 
HETATM   16  C11 UNL     1      20.784   0.763  53.031  1.00  0.00     0.011 A 
HETATM   17  C12 UNL     1      19.736  -0.118  53.139  1.00  0.00     0.037 A 
HETATM   18  C13 UNL     1      19.946  -1.286  53.831  1.00  0.00     0.065 A 
HETATM   19  C14 UNL     1      21.184  -1.521  54.382  1.00  0.00     0.037 A 
HETATM   20  C15 UNL     1      22.177  -0.591  54.229  1.00  0.00     0.011 A 
BRANCH  18  21
HETATM   21  O1  UNL     1      18.910  -2.170  53.944  1.00  0.00    -0.361 OA
HETATM   22  H18 UNL     1      18.581  -2.646  54.750  1.00  0.00     0.217 HD
ENDBRANCH  18  21
ENDBRANCH  14  15
ENDBRANCH   1  14
BRANCH   4  23
HETATM   23  C17 UNL     1      27.186   0.071  53.658  1.00  0.00     0.036 A 
HETATM   24  C18 UNL     1      27.381  -1.225  53.208  1.00  0.00     0.029 A 
HETATM   25  C19 UNL     1      28.689  -1.649  53.070  1.00  0.00     0.002 A 
HETATM   26  C20 UNL     1      29.761  -0.822  53.367  1.00  0.00     0.000 A 
HETATM   27  C21 UNL     1      29.506   0.459  53.813  1.00  0.00     0.002 A 
HETATM   28  C22 UNL     1      28.205   0.951  53.974  1.00  0.00     0.029 A 
ENDBRANCH   4  23
TORSDOF 9
ENDMDL
MODEL 9
REMARK VINA RESULT:      -7.1      3.613      4.862
REMARK  9 active torsions:
REMARK  status: ('A' for Active; 'I' for Inactive)
REMARK    1  A    between atoms: C2_2  and  C3_3 
REMARK    2  A    between atoms: C4_4  and  C5_5 
REMARK    3  A    between atoms: C6_6  and  C7_7 
REMARK    4  A    between atoms: C7_7  and  C8_8 
REMARK    5  A    between atoms: C8_8  and  N1_9 
REMARK    6  A    between atoms: N1_9  and  C9_10 
REMARK       I    between atoms: N1_9  and  C16_18 
REMARK    7  A    between atoms: C9_10  and  C10_11 
REMARK    8  A    between atoms: C13_14  and  O1_15 
REMARK       I    between atoms: C16_18  and  N2_20 
REMARK    9  A    between atoms: N2_20  and  C17_21 
ROOT
HETATM    1  N1  UNL     1      24.569   3.285  51.409  1.00  0.00    -0.329 N 
HETATM    2  C16 UNL     1      25.635   2.487  51.995  1.00  0.00     0.323 C 
HETATM    3  O2  UNL     1      25.456   2.419  53.265  1.00  0.00    -0.247 OA
HETATM    4  N2  UNL     1      26.782   1.782  51.559  1.00  0.00    -0.309 N 
HETATM    5  H21 UNL     1      26.826   1.891  50.510  1.00  0.00     0.170 HD
ENDROOT
BRANCH   1   6
HETATM    6  C8  UNL     1      23.726   3.652  52.505  1.00  0.00     0.132 C 
BRANCH   6   7
HETATM    7  C7  UNL     1      22.744   4.701  52.226  1.00  0.00     0.047 C 
BRANCH   7   8
HETATM    8  C6  UNL     1      21.429   4.180  51.847  1.00  0.00    -0.025 C 
HETATM    9  C5  UNL     1      20.808   4.159  50.688  1.00  0.00    -0.004 C 
BRANCH   9  10
HETATM   10  C4  UNL     1      21.408   4.712  49.485  1.00  0.00    -0.004 C 
HETATM   11  C3  UNL     1      21.432   4.046  48.347  1.00  0.00    -0.027 C 
BRANCH  11  12
HETATM   12  C2  UNL     1      20.905   2.703  48.046  1.00  0.00     0.022 C 
HETATM   13  C1  UNL     1      22.004   1.653  48.168  1.00  0.00     0.009 C 
ENDBRANCH  11  12
ENDBRANCH   9  10
ENDBRANCH   7   8
ENDBRANCH   6   7
ENDBRANCH   1   6
BRANCH   1  14
HETATM   14  C9  UNL     1      24.708   3.352  49.976  1.00  0.00     0.166 C 
BRANCH  14  15
HETATM   15  C10 UNL     1      25.445   4.465  49.392  1.00  0.00    -0.040 A 
HETATM   16  C11 UNL     1      26.820   4.322  49.127  1.00  0.00     0.011 A 
HETATM   17  C12 UNL     1      27.657   5.266  48.584  1.00  0.00     0.037 A 
HETATM   18  C13 UNL     1      27.120   6.488  48.255  1.00  0.00     0.065 A 
HETATM   19  C14 UNL     1      25.782   6.711  48.483  1.00  0.00     0.037 A 
HETATM   20  C15 UNL     1      25.016   5.716  49.029  1.00  0.00     0.011 A 
BRANCH  18  21
HETATM   21  O1  UNL     1      27.942   7.436  47.714  1.00  0.00    -0.361 OA
HETATM   22  H18 UNL     1      28.934   7.456  47.680  1.00  0.00     0.217 HD
ENDBRANCH  18  21
ENDBRANCH  14  15
ENDBRANCH   1  14
BRANCH   4  23
HETATM   23  C17 UNL     1      27.521   1.146  52.567  1.00  0.00     0.036 A 
HETATM   24  C18 UNL     1      28.382   1.929  53.318  1.00  0.00     0.029 A 
HETATM   25  C19 UNL     1      29.105   1.291  54.307  1.00  0.00     0.002 A 
HETATM   26  C20 UNL     1      28.980  -0.069  54.543  1.00  0.00     0.000 A 
HETATM   27  C21 UNL     1      28.108  -0.799  53.762  1.00  0.00     0.002 A 
HETATM   28  C22 UNL     1      27.345  -0.215  52.744  1.00  0.00     0.029 A 
ENDBRANCH   4  23
TORSDOF 9
ENDMDL
