MODEL 1
REMARK VINA RESULT:      -7.9      0.000      0.000
REMARK  3 active torsions:
REMARK  status: ('A' for Active; 'I' for Inactive)
REMARK    1  A    between atoms: C2_2  and  C3_3 
REMARK    2  A    between atoms: C3_3  and  N1_4 
REMARK    3  A    between atoms: C10_12  and  N2_13 
ROOT
HETATM    1  N1  UNL     1      23.674  -0.167  53.322  1.00  0.00    -0.314 N 
HETATM    2  C4  UNL     1      24.640  -1.196  52.968  1.00  0.00     0.307 C 
HETATM    3  O1  UNL     1      25.728  -0.768  52.181  1.00  0.00    -0.335 OA
HETATM    4  C5  UNL     1      27.011  -1.149  52.597  1.00  0.00     0.064 A 
HETATM    5  C6  UNL     1      27.702   0.017  52.681  1.00  0.00     0.025 A 
HETATM    6  C7  UNL     1      26.918   1.265  52.308  1.00  0.00     0.048 C 
HETATM    7  C8  UNL     1      26.634   1.960  53.474  1.00  0.00     0.062 C 
HETATM    8  C9  UNL     1      25.370   1.465  53.187  1.00  0.00     0.080 C 
HETATM    9  C10 UNL     1      24.209   1.078  52.887  1.00  0.00     0.109 C 
HETATM   10  N3  UNL     1      27.660   2.632  54.133  1.00  0.00    -0.242 NA
HETATM   11  C15 UNL     1      28.969   2.346  54.070  1.00  0.00     0.234 C 
HETATM   12  N4  UNL     1      29.706   1.315  53.275  1.00  0.00    -0.241 NA
HETATM   13  C16 UNL     1      29.131   0.115  53.132  1.00  0.00     0.070 A 
HETATM   14  C17 UNL     1      29.818  -1.151  53.486  1.00  0.00     0.029 A 
HETATM   15  C18 UNL     1      29.071  -2.243  53.358  1.00  0.00    -0.018 A 
HETATM   16  C19 UNL     1      27.687  -2.400  52.924  1.00  0.00     0.092 A 
ENDROOT
BRANCH   9  17
HETATM   17  N2  UNL     1      24.129   2.311  52.202  1.00  0.00    -0.363 N 
HETATM   18  C11 UNL     1      23.966   3.646  52.802  1.00  0.00     0.150 C 
HETATM   19  C12 UNL     1      22.637   4.174  52.313  1.00  0.00     0.187 C 
HETATM   20  O2  UNL     1      22.767   4.394  50.938  1.00  0.00    -0.388 OA
HETATM   21  C13 UNL     1      22.975   3.192  50.263  1.00  0.00     0.187 C 
HETATM   22  C14 UNL     1      24.193   2.466  50.739  1.00  0.00     0.150 C 
ENDBRANCH   9  17
BRANCH   1  23
HETATM   23  C3  UNL     1      22.526   0.416  53.848  1.00  0.00     0.146 C 
BRANCH  23  24
HETATM   24  C2  UNL     1      21.562  -0.446  54.119  1.00  0.00    -0.138 C 
HETATM   25  C1  UNL     1      20.732  -1.454  54.276  1.00  0.00     0.098 C 
ENDBRANCH  23  24
ENDBRANCH   1  23
TORSDOF 3
ENDMDL
MODEL 2
REMARK VINA RESULT:      -7.6      2.684      5.562
REMARK  3 active torsions:
REMARK  status: ('A' for Active; 'I' for Inactive)
REMARK    1  A    between atoms: C2_2  and  C3_3 
REMARK    2  A    between atoms: C3_3  and  N1_4 
REMARK    3  A    between atoms: C10_12  and  N2_13 
ROOT
HETATM    1  N1  UNL     1      26.474   3.029  50.336  1.00  0.00    -0.314 N 
HETATM    2  C4  UNL     1      26.691   2.435  51.646  1.00  0.00     0.307 C 
HETATM    3  O1  UNL     1      25.618   2.550  52.554  1.00  0.00    -0.335 OA
HETATM    4  C5  UNL     1      25.216   1.387  53.225  1.00  0.00     0.064 A 
HETATM    5  C6  UNL     1      23.886   1.290  52.971  1.00  0.00     0.025 A 
HETATM    6  C7  UNL     1      23.306   2.404  52.116  1.00  0.00     0.048 C 
HETATM    7  C8  UNL     1      23.048   1.890  50.854  1.00  0.00     0.062 C 
HETATM    8  C9  UNL     1      24.154   2.674  50.562  1.00  0.00     0.080 C 
HETATM    9  C10 UNL     1      25.113   3.443  50.283  1.00  0.00     0.109 C 
HETATM   10  N3  UNL     1      21.981   1.012  50.682  1.00  0.00    -0.242 NA
HETATM   11  C15 UNL     1      21.433   0.229  51.624  1.00  0.00     0.234 C 
HETATM   12  N4  UNL     1      21.736   0.099  53.083  1.00  0.00    -0.241 NA
HETATM   13  C16 UNL     1      23.019   0.165  53.458  1.00  0.00     0.070 A 
HETATM   14  C17 UNL     1      23.670  -0.886  54.278  1.00  0.00     0.029 A 
HETATM   15  C18 UNL     1      24.969  -0.702  54.489  1.00  0.00    -0.018 A 
HETATM   16  C19 UNL     1      25.859   0.367  54.048  1.00  0.00     0.092 A 
ENDROOT
BRANCH   9  17
HETATM   17  N2  UNL     1      24.094   4.391  50.039  1.00  0.00    -0.363 N 
HETATM   18  C11 UNL     1      23.185   4.434  48.882  1.00  0.00     0.150 C 
HETATM   19  C12 UNL     1      23.485   5.722  48.150  1.00  0.00     0.187 C 
HETATM   20  O2  UNL     1      23.082   6.769  48.985  1.00  0.00    -0.388 OA
HETATM   21  C13 UNL     1      23.850   6.798  50.148  1.00  0.00     0.187 C 
HETATM   22  C14 UNL     1      23.771   5.524  50.924  1.00  0.00     0.150 C 
ENDBRANCH   9  17
BRANCH   1  23
HETATM   23  C3  UNL     1      26.741   3.460  49.041  1.00  0.00     0.146 C 
BRANCH  23  24
HETATM   24  C2  UNL     1      27.122   4.723  48.963  1.00  0.00    -0.138 C 
HETATM   25  C1  UNL     1      27.438   5.964  48.666  1.00  0.00     0.098 C 
ENDBRANCH  23  24
ENDBRANCH   1  23
TORSDOF 3
ENDMDL
MODEL 3
REMARK VINA RESULT:      -7.5      2.652      4.199
REMARK  3 active torsions:
REMARK  status: ('A' for Active; 'I' for Inactive)
REMARK    1  A    between atoms: C2_2  and  C3_3 
REMARK    2  A    between atoms: C3_3  and  N1_4 
REMARK    3  A    between atoms: C10_12  and  N2_13 
ROOT
HETATM    1  N1  UNL     1      20.425   2.360  52.273  1.00  0.00    -0.314 N 
HETATM    2  C4  UNL     1      20.492   1.041  52.884  1.00  0.00     0.307 C 
HETATM    3  O1  UNL     1      21.605   0.255  52.521  1.00  0.00    -0.335 OA
HETATM    4  C5  UNL     1      22.327  -0.353  53.557  1.00  0.00     0.064 A 
HETATM    5  C6  UNL     1      23.609   0.047  53.359  1.00  0.00     0.025 A 
HETATM    6  C7  UNL     1      23.829   0.948  52.155  1.00  0.00     0.048 C 
HETATM    7  C8  UNL     1      24.054   2.236  52.615  1.00  0.00     0.062 C 
HETATM    8  C9  UNL     1      22.776   2.395  52.101  1.00  0.00     0.080 C 
HETATM    9  C10 UNL     1      21.646   2.558  51.568  1.00  0.00     0.109 C 
HETATM   10  N3  UNL     1      25.264   2.535  53.236  1.00  0.00    -0.242 NA
HETATM   11  C15 UNL     1      26.073   1.669  53.865  1.00  0.00     0.234 C 
HETATM   12  N4  UNL     1      25.969   0.188  54.040  1.00  0.00    -0.241 NA
HETATM   13  C16 UNL     1      24.753  -0.328  54.256  1.00  0.00     0.070 A 
HETATM   14  C17 UNL     1      24.447  -1.202  55.415  1.00  0.00     0.029 A 
HETATM   15  C18 UNL     1      23.171  -1.558  55.521  1.00  0.00    -0.018 A 
HETATM   16  C19 UNL     1      22.022  -1.230  54.683  1.00  0.00     0.092 A 
ENDROOT
BRANCH   9  17
HETATM   17  N2  UNL     1      22.394   2.902  50.420  1.00  0.00    -0.363 N 
HETATM   18  C11 UNL     1      23.175   4.132  50.210  1.00  0.00     0.150 C 
HETATM   19  C12 UNL     1      22.527   4.855  49.051  1.00  0.00     0.187 C 
HETATM   20  O2  UNL     1      22.742   4.074  47.912  1.00  0.00    -0.388 OA
HETATM   21  C13 UNL     1      22.082   2.851  48.019  1.00  0.00     0.187 C 
HETATM   22  C14 UNL     1      22.515   2.065  49.215  1.00  0.00     0.150 C 
ENDBRANCH   9  17
BRANCH   1  23
HETATM   23  C3  UNL     1      19.928   3.613  51.930  1.00  0.00     0.146 C 
BRANCH  23  24
HETATM   24  C2  UNL     1      18.664   3.602  51.546  1.00  0.00    -0.138 C 
HETATM   25  C1  UNL     1      17.367   3.713  51.352  1.00  0.00     0.098 C 
ENDBRANCH  23  24
ENDBRANCH   1  23
TORSDOF 3
ENDMDL
MODEL 4
REMARK VINA RESULT:      -7.5      3.431      5.916
REMARK  3 active torsions:
REMARK  status: ('A' for Active; 'I' for Inactive)
REMARK    1  A    between atoms: C2_2  and  C3_3 
REMARK    2  A    between atoms: C3_3  and  N1_4 
REMARK    3  A    between atoms: C10_12  and  N2_13 
ROOT
HETATM    1  N1  UNL     1      25.829   2.102  51.490  1.00  0.00    -0.314 N 
HETATM    2  C4  UNL     1      26.690   2.591  50.423  1.00  0.00     0.307 C 
HETATM    3  O1  UNL     1      26.043   3.310  49.397  1.00  0.00    -0.335 OA
HETATM    4  C5  UNL     1      26.603   4.539  49.022  1.00  0.00     0.064 A 
HETATM    5  C6  UNL     1      25.581   5.427  49.133  1.00  0.00     0.025 A 
HETATM    6  C7  UNL     1      24.255   4.836  49.582  1.00  0.00     0.048 C 
HETATM    7  C8  UNL     1      24.034   5.221  50.896  1.00  0.00     0.062 C 
HETATM    8  C9  UNL     1      24.334   3.882  51.095  1.00  0.00     0.080 C 
HETATM    9  C10 UNL     1      24.534   2.649  51.268  1.00  0.00     0.109 C 
HETATM   10  N3  UNL     1      23.697   6.544  51.171  1.00  0.00    -0.242 NA
HETATM   11  C15 UNL     1      23.992   7.614  50.416  1.00  0.00     0.234 C 
HETATM   12  N4  UNL     1      24.680   7.716  49.093  1.00  0.00    -0.241 NA
HETATM   13  C16 UNL     1      25.716   6.899  48.868  1.00  0.00     0.070 A 
HETATM   14  C17 UNL     1      27.050   7.391  48.445  1.00  0.00     0.029 A 
HETATM   15  C18 UNL     1      27.984   6.451  48.347  1.00  0.00    -0.018 A 
HETATM   16  C19 UNL     1      27.912   5.014  48.586  1.00  0.00     0.092 A 
ENDROOT
BRANCH   9  17
HETATM   17  N2  UNL     1      23.132   2.547  51.125  1.00  0.00    -0.363 N 
HETATM   18  C11 UNL     1      22.110   2.998  52.084  1.00  0.00     0.150 C 
HETATM   19  C12 UNL     1      21.375   1.759  52.539  1.00  0.00     0.187 C 
HETATM   20  O2  UNL     1      20.666   1.277  51.435  1.00  0.00    -0.388 OA
HETATM   21  C13 UNL     1      21.539   0.859  50.431  1.00  0.00     0.187 C 
HETATM   22  C14 UNL     1      22.447   1.952  49.965  1.00  0.00     0.150 C 
ENDBRANCH   9  17
BRANCH   1  23
HETATM   23  C3  UNL     1      25.438   1.430  52.643  1.00  0.00     0.146 C 
BRANCH  23  24
HETATM   24  C2  UNL     1      25.815   0.165  52.681  1.00  0.00    -0.138 C 
HETATM   25  C1  UNL     1      26.399  -1.011  52.758  1.00  0.00     0.098 C 
ENDBRANCH  23  24
ENDBRANCH   1  23
TORSDOF 3
ENDMDL
MODEL 5
REMARK VINA RESULT:      -7.5      3.655      6.397
REMARK  3 active torsions:
REMARK  status: ('A' for Active; 'I' for Inactive)
REMARK    1  A    between atoms: C2_2  and  C3_3 
REMARK    2  A    between atoms: C3_3  and  N1_4 
REMARK    3  A    between atoms: C10_12  and  N2_13 
ROOT
HETATM    1  N1  UNL     1      24.035   2.507  50.812  1.00  0.00    -0.314 N 
HETATM    2  C4  UNL     1      24.171   1.745  52.044  1.00  0.00     0.307 C 
HETATM    3  O1  UNL     1      23.084   1.831  52.939  1.00  0.00    -0.335 OA
HETATM    4  C5  UNL     1      22.580   0.630  53.454  1.00  0.00     0.064 A 
HETATM    5  C6  UNL     1      21.253   0.665  53.165  1.00  0.00     0.025 A 
HETATM    6  C7  UNL     1      20.780   1.914  52.440  1.00  0.00     0.048 C 
HETATM    7  C8  UNL     1      20.522   1.576  51.120  1.00  0.00     0.062 C 
HETATM    8  C9  UNL     1      21.690   2.303  50.948  1.00  0.00     0.080 C 
HETATM    9  C10 UNL     1      22.710   3.025  50.783  1.00  0.00     0.109 C 
HETATM   10  N3  UNL     1      19.400   0.808  50.822  1.00  0.00    -0.242 NA
HETATM   11  C15 UNL     1      18.770  -0.039  51.650  1.00  0.00     0.234 C 
HETATM   12  N4  UNL     1      19.020  -0.365  53.088  1.00  0.00    -0.241 NA
HETATM   13  C16 UNL     1      20.293  -0.442  53.494  1.00  0.00     0.070 A 
HETATM   14  C17 UNL     1      20.842  -1.629  54.193  1.00  0.00     0.029 A 
HETATM   15  C18 UNL     1      22.145  -1.570  54.450  1.00  0.00    -0.018 A 
HETATM   16  C19 UNL     1      23.122  -0.526  54.160  1.00  0.00     0.092 A 
ENDROOT
BRANCH   9  17
HETATM   17  N2  UNL     1      21.770   4.071  50.636  1.00  0.00    -0.363 N 
HETATM   18  C11 UNL     1      20.854   4.283  49.503  1.00  0.00     0.150 C 
HETATM   19  C12 UNL     1      21.251   5.597  48.873  1.00  0.00     0.187 C 
HETATM   20  O2  UNL     1      20.945   6.601  49.798  1.00  0.00    -0.388 OA
HETATM   21  C13 UNL     1      21.727   6.472  50.945  1.00  0.00     0.187 C 
HETATM   22  C14 UNL     1      21.552   5.148  51.616  1.00  0.00     0.150 C 
ENDBRANCH   9  17
BRANCH   1  23
HETATM   23  C3  UNL     1      24.370   3.068  49.584  1.00  0.00     0.146 C 
BRANCH  23  24
HETATM   24  C2  UNL     1      25.577   3.605  49.550  1.00  0.00    -0.138 C 
HETATM   25  C1  UNL     1      26.808   4.013  49.329  1.00  0.00     0.098 C 
ENDBRANCH  23  24
ENDBRANCH   1  23
TORSDOF 3
ENDMDL
MODEL 6
REMARK VINA RESULT:      -7.4      2.193      5.853
REMARK  3 active torsions:
REMARK  status: ('A' for Active; 'I' for Inactive)
REMARK    1  A    between atoms: C2_2  and  C3_3 
REMARK    2  A    between atoms: C3_3  and  N1_4 
REMARK    3  A    between atoms: C10_12  and  N2_13 
ROOT
HETATM    1  N1  UNL     1      22.630   1.069  52.411  1.00  0.00    -0.314 N 
HETATM    2  C4  UNL     1      22.083   2.414  52.509  1.00  0.00     0.307 C 
HETATM    3  O1  UNL     1      23.025   3.445  52.701  1.00  0.00    -0.335 OA
HETATM    4  C5  UNL     1      22.927   4.568  51.869  1.00  0.00     0.064 A 
HETATM    5  C6  UNL     1      24.162   4.692  51.317  1.00  0.00     0.025 A 
HETATM    6  C7  UNL     1      25.178   3.654  51.762  1.00  0.00     0.048 C 
HETATM    7  C8  UNL     1      25.376   2.768  50.714  1.00  0.00     0.062 C 
HETATM    8  C9  UNL     1      24.647   1.955  51.569  1.00  0.00     0.080 C 
HETATM    9  C10 UNL     1      24.048   1.195  52.376  1.00  0.00     0.109 C 
HETATM   10  N3  UNL     1      26.087   3.187  49.593  1.00  0.00    -0.242 NA
HETATM   11  C15 UNL     1      26.226   4.451  49.165  1.00  0.00     0.234 C 
HETATM   12  N4  UNL     1      25.744   5.739  49.751  1.00  0.00    -0.241 NA
HETATM   13  C16 UNL     1      24.530   5.748  50.315  1.00  0.00     0.070 A 
HETATM   14  C17 UNL     1      23.473   6.714  49.929  1.00  0.00     0.029 A 
HETATM   15  C18 UNL     1      22.302   6.527  50.530  1.00  0.00    -0.018 A 
HETATM   16  C19 UNL     1      21.889   5.528  51.510  1.00  0.00     0.092 A 
ENDROOT
BRANCH   9  17
HETATM   17  N2  UNL     1      25.351   0.872  52.817  1.00  0.00    -0.363 N 
HETATM   18  C11 UNL     1      26.340   0.036  52.115  1.00  0.00     0.150 C 
HETATM   19  C12 UNL     1      26.582  -1.168  52.995  1.00  0.00     0.187 C 
HETATM   20  O2  UNL     1      27.229  -0.707  54.147  1.00  0.00    -0.388 OA
HETATM   21  C13 UNL     1      26.396   0.140  54.876  1.00  0.00     0.187 C 
HETATM   22  C14 UNL     1      25.946   1.326  54.085  1.00  0.00     0.150 C 
ENDBRANCH   9  17
BRANCH   1  23
HETATM   23  C3  UNL     1      22.668  -0.318  52.308  1.00  0.00     0.146 C 
BRANCH  23  24
HETATM   24  C2  UNL     1      22.278  -0.948  53.402  1.00  0.00    -0.138 C 
HETATM   25  C1  UNL     1      21.815  -1.369  54.559  1.00  0.00     0.098 C 
ENDBRANCH  23  24
ENDBRANCH   1  23
TORSDOF 3
ENDMDL
MODEL 7
REMARK VINA RESULT:      -7.0      2.662      6.632
REMARK  3 active torsions:
REMARK  status: ('A' for Active; 'I' for Inactive)
REMARK    1  A    between atoms: C2_2  and  C3_3 
REMARK    2  A    between atoms: C3_3  and  N1_4 
REMARK    3  A    between atoms: C10_12  and  N2_13 
ROOT
HETATM    1  N1  UNL     1      24.007   0.660  52.563  1.00  0.00    -0.314 N 
HETATM    2  C4  UNL     1      23.094   0.007  53.490  1.00  0.00     0.307 C 
HETATM    3  O1  UNL     1      21.847   0.640  53.667  1.00  0.00    -0.335 OA
HETATM    4  C5  UNL     1      20.701  -0.161  53.575  1.00  0.00     0.064 A 
HETATM    5  C6  UNL     1      19.930   0.453  52.641  1.00  0.00     0.025 A 
HETATM    6  C7  UNL     1      20.514   1.727  52.054  1.00  0.00     0.048 C 
HETATM    7  C8  UNL     1      20.936   1.452  50.761  1.00  0.00     0.062 C 
HETATM    8  C9  UNL     1      22.168   1.555  51.389  1.00  0.00     0.080 C 
HETATM    9  C10 UNL     1      23.288   1.721  51.944  1.00  0.00     0.109 C 
HETATM   10  N3  UNL     1      19.986   1.261  49.762  1.00  0.00    -0.242 NA
HETATM   11  C15 UNL     1      18.719   0.852  49.934  1.00  0.00     0.234 C 
HETATM   12  N4  UNL     1      17.952   0.549  51.181  1.00  0.00    -0.241 NA
HETATM   13  C16 UNL     1      18.602  -0.070  52.174  1.00  0.00     0.070 A 
HETATM   14  C17 UNL     1      18.113  -1.326  52.793  1.00  0.00     0.029 A 
HETATM   15  C18 UNL     1      18.923  -1.848  53.708  1.00  0.00    -0.018 A 
HETATM   16  C19 UNL     1      20.215  -1.386  54.203  1.00  0.00     0.092 A 
ENDROOT
BRANCH   9  17
HETATM   17  N2  UNL     1      23.128   3.066  51.542  1.00  0.00    -0.363 N 
HETATM   18  C11 UNL     1      23.349   3.618  50.195  1.00  0.00     0.150 C 
HETATM   19  C12 UNL     1      24.488   4.604  50.320  1.00  0.00     0.187 C 
HETATM   20  O2  UNL     1      24.019   5.672  51.092  1.00  0.00    -0.388 OA
HETATM   21  C13 UNL     1      23.728   5.253  52.390  1.00  0.00     0.187 C 
HETATM   22  C14 UNL     1      22.706   4.164  52.428  1.00  0.00     0.150 C 
ENDBRANCH   9  17
BRANCH   1  23
HETATM   23  C3  UNL     1      25.171   0.920  51.848  1.00  0.00     0.146 C 
BRANCH  23  24
HETATM   24  C2  UNL     1      26.186   0.139  52.171  1.00  0.00    -0.138 C 
HETATM   25  C1  UNL     1      27.040  -0.763  52.602  1.00  0.00     0.098 C 
ENDBRANCH  23  24
ENDBRANCH   1  23
TORSDOF 3
ENDMDL
MODEL 8
REMARK VINA RESULT:      -6.9      5.326      6.954
REMARK  3 active torsions:
REMARK  status: ('A' for Active; 'I' for Inactive)
REMARK    1  A    between atoms: C2_2  and  C3_3 
REMARK    2  A    between atoms: C3_3  and  N1_4 
REMARK    3  A    between atoms: C10_12  and  N2_13 
ROOT
HETATM    1  N1  UNL     1      25.229   4.489  50.408  1.00  0.00    -0.314 N 
HETATM    2  C4  UNL     1      26.372   4.246  49.541  1.00  0.00     0.307 C 
HETATM    3  O1  UNL     1      26.598   5.215  48.542  1.00  0.00    -0.335 OA
HETATM    4  C5  UNL     1      27.902   5.711  48.412  1.00  0.00     0.064 A 
HETATM    5  C6  UNL     1      27.764   7.059  48.502  1.00  0.00     0.025 A 
HETATM    6  C7  UNL     1      26.338   7.554  48.686  1.00  0.00     0.048 C 
HETATM    7  C8  UNL     1      26.196   7.982  49.997  1.00  0.00     0.062 C 
HETATM    8  C9  UNL     1      25.458   6.809  50.055  1.00  0.00     0.080 C 
HETATM    9  C10 UNL     1      24.728   5.782  50.089  1.00  0.00     0.109 C 
HETATM   10  N3  UNL     1      26.808   9.167  50.397  1.00  0.00    -0.242 NA
HETATM   11  C15 UNL     1      27.888   9.734  49.838  1.00  0.00     0.234 C 
HETATM   12  N4  UNL     1      28.694   9.333  48.645  1.00  0.00    -0.241 NA
HETATM   13  C16 UNL     1      28.912   8.026  48.455  1.00  0.00     0.070 A 
HETATM   14  C17 UNL     1      30.271   7.455  48.283  1.00  0.00     0.029 A 
HETATM   15  C18 UNL     1      30.309   6.130  48.188  1.00  0.00    -0.018 A 
HETATM   16  C19 UNL     1      29.233   5.145  48.222  1.00  0.00     0.092 A 
ENDROOT
BRANCH   9  17
HETATM   17  N2  UNL     1      23.693   6.682  49.747  1.00  0.00    -0.363 N 
HETATM   18  C11 UNL     1      23.080   7.698  50.619  1.00  0.00     0.150 C 
HETATM   19  C12 UNL     1      21.630   7.305  50.777  1.00  0.00     0.187 C 
HETATM   20  O2  UNL     1      21.025   7.469  49.527  1.00  0.00    -0.388 OA
HETATM   21  C13 UNL     1      21.564   6.581  48.597  1.00  0.00     0.187 C 
HETATM   22  C14 UNL     1      23.040   6.749  48.429  1.00  0.00     0.150 C 
ENDBRANCH   9  17
BRANCH   1  23
HETATM   23  C3  UNL     1      24.277   4.274  51.399  1.00  0.00     0.146 C 
BRANCH  23  24
HETATM   24  C2  UNL     1      24.490   3.189  52.122  1.00  0.00    -0.138 C 
HETATM   25  C1  UNL     1      24.630   2.235  53.017  1.00  0.00     0.098 C 
ENDBRANCH  23  24
ENDBRANCH   1  23
TORSDOF 3
ENDMDL
MODEL 9
REMARK VINA RESULT:      -6.6      2.612      6.821
REMARK  3 active torsions:
REMARK  status: ('A' for Active; 'I' for Inactive)
REMARK    1  A    between atoms: C2_2  and  C3_3 
REMARK    2  A    between atoms: C3_3  and  N1_4 
REMARK    3  A    between atoms: C10_12  and  N2_13 
ROOT
HETATM    1  N1  UNL     1      21.872   0.515  52.868  1.00  0.00    -0.314 N 
HETATM    2  C4  UNL     1      20.741   1.429  52.904  1.00  0.00     0.307 C 
HETATM    3  O1  UNL     1      21.026   2.768  52.563  1.00  0.00    -0.335 OA
HETATM    4  C5  UNL     1      20.186   3.386  51.628  1.00  0.00     0.064 A 
HETATM    5  C6  UNL     1      21.026   3.848  50.667  1.00  0.00     0.025 A 
HETATM    6  C7  UNL     1      22.502   3.576  50.911  1.00  0.00     0.048 C 
HETATM    7  C8  UNL     1      22.905   2.575  50.041  1.00  0.00     0.062 C 
HETATM    8  C9  UNL     1      22.904   1.861  51.229  1.00  0.00     0.080 C 
HETATM    9  C10 UNL     1      22.974   1.231  52.319  1.00  0.00     0.109 C 
HETATM   10  N3  UNL     1      23.039   2.864  48.685  1.00  0.00    -0.242 NA
HETATM   11  C15 UNL     1      22.407   3.838  48.012  1.00  0.00     0.234 C 
HETATM   12  N4  UNL     1      21.462   4.896  48.484  1.00  0.00    -0.241 NA
HETATM   13  C16 UNL     1      20.571   4.558  49.425  1.00  0.00     0.070 A 
HETATM   14  C17 UNL     1      19.112   4.771  49.263  1.00  0.00     0.029 A 
HETATM   15  C18 UNL     1      18.368   4.302  50.258  1.00  0.00    -0.018 A 
HETATM   16  C19 UNL     1      18.751   3.612  51.485  1.00  0.00     0.092 A 
ENDROOT
BRANCH   9  17
HETATM   17  N2  UNL     1      24.313   1.681  52.329  1.00  0.00    -0.363 N 
HETATM   18  C11 UNL     1      25.405   1.225  51.451  1.00  0.00     0.150 C 
HETATM   19  C12 UNL     1      26.432   0.577  52.350  1.00  0.00     0.187 C 
HETATM   20  O2  UNL     1      26.982   1.591  53.139  1.00  0.00    -0.388 OA
HETATM   21  C13 UNL     1      26.019   2.137  53.986  1.00  0.00     0.187 C 
HETATM   22  C14 UNL     1      24.851   2.701  53.244  1.00  0.00     0.150 C 
ENDBRANCH   9  17
BRANCH   1  23
HETATM   23  C3  UNL     1      22.603  -0.659  53.014  1.00  0.00     0.146 C 
BRANCH  23  24
HETATM   24  C2  UNL     1      22.927  -0.939  54.264  1.00  0.00    -0.138 C 
HETATM   25  C1  UNL     1      23.065  -1.350  55.506  1.00  0.00     0.098 C 
ENDBRANCH  23  24
ENDBRANCH   1  23
TORSDOF 3
ENDMDL
