MODEL 1
REMARK VINA RESULT:      -7.7      0.000      0.000
REMARK  3 active torsions:
REMARK  status: ('A' for Active; 'I' for Inactive)
REMARK    1  A    between atoms: O1_2  and  C2_3 
REMARK    2  A    between atoms: N3_10  and  C7_11 
REMARK    3  A    between atoms: C14_19  and  O2_20 
ROOT
HETATM    1  C2  UNL     1      23.312   1.747  51.711  1.00  0.00     0.115 A 
HETATM    2  C3  UNL     1      24.101   1.016  52.410  1.00  0.00     0.047 A 
HETATM    3  C4  UNL     1      23.662   0.256  53.366  1.00  0.00     0.102 A 
HETATM    4  C5  UNL     1      22.239   0.300  53.602  1.00  0.00     0.090 A 
HETATM    5  N1  UNL     1      21.775  -0.443  54.558  1.00  0.00    -0.238 NA
HETATM    6  C6  UNL     1      22.704  -1.253  55.309  1.00  0.00     0.256 A 
HETATM    7  N2  UNL     1      23.971  -1.292  55.097  1.00  0.00    -0.160 NA
HETATM    8  N3  UNL     1      24.585  -0.535  54.094  1.00  0.00    -0.230 N 
HETATM    9  C13 UNL     1      21.332   1.128  52.828  1.00  0.00     0.073 A 
HETATM   10  C14 UNL     1      21.867   1.865  51.867  1.00  0.00     0.104 A 
ENDROOT
BRANCH   8  11
HETATM   11  C7  UNL     1      25.983  -0.606  53.908  1.00  0.00     0.059 A 
HETATM   12  C8  UNL     1      26.745  -1.269  53.005  1.00  0.00     0.034 A 
HETATM   13  C9  UNL     1      28.118  -1.243  52.919  1.00  0.00     0.044 A 
HETATM   14  C10 UNL     1      28.829  -0.482  53.821  1.00  0.00     0.116 A 
HETATM   15  F1  UNL     1      30.162  -0.406  53.801  1.00  0.00    -0.206 F 
HETATM   16  C11 UNL     1      28.130   0.221  54.770  1.00  0.00     0.044 A 
HETATM   17  C12 UNL     1      26.758   0.150  54.798  1.00  0.00     0.034 A 
ENDBRANCH   8  11
BRANCH   1  18
HETATM   18  O1  UNL     1      23.852   2.533  50.675  1.00  0.00    -0.352 OA
HETATM   19  C1  UNL     1      24.392   3.821  50.905  1.00  0.00     0.210 C 
ENDBRANCH   1  18
BRANCH  10  20
HETATM   20  O2  UNL     1      21.053   2.666  51.103  1.00  0.00    -0.353 OA
HETATM   21  C15 UNL     1      20.572   3.896  51.628  1.00  0.00     0.210 C 
ENDBRANCH  10  20
TORSDOF 3
ENDMDL
MODEL 2
REMARK VINA RESULT:      -7.5      2.339      3.497
REMARK  3 active torsions:
REMARK  status: ('A' for Active; 'I' for Inactive)
REMARK    1  A    between atoms: O1_2  and  C2_3 
REMARK    2  A    between atoms: N3_10  and  C7_11 
REMARK    3  A    between atoms: C14_19  and  O2_20 
ROOT
HETATM    1  C2  UNL     1      23.089  -0.071  53.550  1.00  0.00     0.115 A 
HETATM    2  C3  UNL     1      24.322   0.091  53.232  1.00  0.00     0.047 A 
HETATM    3  C4  UNL     1      24.699   1.025  52.414  1.00  0.00     0.102 A 
HETATM    4  C5  UNL     1      23.647   1.852  51.873  1.00  0.00     0.090 A 
HETATM    5  N1  UNL     1      23.997   2.787  51.045  1.00  0.00    -0.238 NA
HETATM    6  C6  UNL     1      25.397   2.934  50.729  1.00  0.00     0.256 A 
HETATM    7  N2  UNL     1      26.333   2.197  51.212  1.00  0.00    -0.160 NA
HETATM    8  N3  UNL     1      26.077   1.159  52.113  1.00  0.00    -0.230 N 
HETATM    9  C13 UNL     1      22.247   1.676  52.213  1.00  0.00     0.073 A 
HETATM   10  C14 UNL     1      21.954   0.704  53.062  1.00  0.00     0.104 A 
ENDROOT
BRANCH   8  11
HETATM   11  C7  UNL     1      27.141   0.371  52.607  1.00  0.00     0.059 A 
HETATM   12  C8  UNL     1      27.340  -0.969  52.631  1.00  0.00     0.034 A 
HETATM   13  C9  UNL     1      28.441  -1.622  53.135  1.00  0.00     0.044 A 
HETATM   14  C10 UNL     1      29.467  -0.879  53.678  1.00  0.00     0.116 A 
HETATM   15  F1  UNL     1      30.566  -1.440  54.186  1.00  0.00    -0.206 F 
HETATM   16  C11 UNL     1      29.341   0.488  53.691  1.00  0.00     0.044 A 
HETATM   17  C12 UNL     1      28.213   1.074  53.171  1.00  0.00     0.034 A 
ENDBRANCH   8  11
BRANCH   1  18
HETATM   18  O1  UNL     1      22.750  -1.092  54.458  1.00  0.00    -0.352 OA
HETATM   19  C1  UNL     1      23.532  -1.379  55.603  1.00  0.00     0.210 C 
ENDBRANCH   1  18
BRANCH  10  20
HETATM   20  O2  UNL     1      20.644   0.494  53.419  1.00  0.00    -0.353 OA
HETATM   21  C15 UNL     1      19.672   0.214  52.420  1.00  0.00     0.210 C 
ENDBRANCH  10  20
TORSDOF 3
ENDMDL
MODEL 3
REMARK VINA RESULT:      -7.3      3.827      6.834
REMARK  3 active torsions:
REMARK  status: ('A' for Active; 'I' for Inactive)
REMARK    1  A    between atoms: O1_2  and  C2_3 
REMARK    2  A    between atoms: N3_10  and  C7_11 
REMARK    3  A    between atoms: C14_19  and  O2_20 
ROOT
HETATM    1  C2  UNL     1      26.002  -0.196  53.828  1.00  0.00     0.115 A 
HETATM    2  C3  UNL     1      25.063   0.354  53.148  1.00  0.00     0.047 A 
HETATM    3  C4  UNL     1      25.306   1.288  52.279  1.00  0.00     0.102 A 
HETATM    4  C5  UNL     1      26.688   1.678  52.143  1.00  0.00     0.090 A 
HETATM    5  N1  UNL     1      26.956   2.616  51.288  1.00  0.00    -0.238 NA
HETATM    6  C6  UNL     1      25.865   3.195  50.542  1.00  0.00     0.256 A 
HETATM    7  N2  UNL     1      24.634   2.846  50.663  1.00  0.00    -0.160 NA
HETATM    8  N3  UNL     1      24.225   1.847  51.552  1.00  0.00    -0.230 N 
HETATM    9  C13 UNL     1      27.762   1.075  52.911  1.00  0.00     0.073 A 
HETATM   10  C14 UNL     1      27.424   0.123  53.767  1.00  0.00     0.104 A 
ENDROOT
BRANCH   8  11
HETATM   11  C7  UNL     1      22.858   1.507  51.657  1.00  0.00     0.059 A 
HETATM   12  C8  UNL     1      22.007   1.490  52.710  1.00  0.00     0.034 A 
HETATM   13  C9  UNL     1      20.674   1.149  52.678  1.00  0.00     0.044 A 
HETATM   14  C10 UNL     1      20.108   0.781  51.477  1.00  0.00     0.116 A 
HETATM   15  F1  UNL     1      18.823   0.437  51.366  1.00  0.00    -0.206 F 
HETATM   16  C11 UNL     1      20.906   0.773  50.360  1.00  0.00     0.044 A 
HETATM   17  C12 UNL     1      22.229   1.125  50.464  1.00  0.00     0.034 A 
ENDBRANCH   8  11
BRANCH   1  18
HETATM   18  O1  UNL     1      25.673  -1.217  54.739  1.00  0.00    -0.352 OA
HETATM   19  C1  UNL     1      24.454  -1.227  55.458  1.00  0.00     0.210 C 
ENDBRANCH   1  18
BRANCH  10  20
HETATM   20  O2  UNL     1      28.401  -0.482  54.520  1.00  0.00    -0.353 OA
HETATM   21  C15 UNL     1      29.644  -0.829  53.923  1.00  0.00     0.210 C 
ENDBRANCH  10  20
TORSDOF 3
ENDMDL
MODEL 4
REMARK VINA RESULT:      -7.1      3.315      5.825
REMARK  3 active torsions:
REMARK  status: ('A' for Active; 'I' for Inactive)
REMARK    1  A    between atoms: O1_2  and  C2_3 
REMARK    2  A    between atoms: N3_10  and  C7_11 
REMARK    3  A    between atoms: C14_19  and  O2_20 
ROOT
HETATM    1  C2  UNL     1      25.835   1.016  52.429  1.00  0.00     0.115 A 
HETATM    2  C3  UNL     1      24.624   0.629  52.596  1.00  0.00     0.047 A 
HETATM    3  C4  UNL     1      24.271  -0.091  53.617  1.00  0.00     0.102 A 
HETATM    4  C5  UNL     1      25.327  -0.442  54.535  1.00  0.00     0.090 A 
HETATM    5  N1  UNL     1      25.003  -1.170  55.559  1.00  0.00    -0.238 NA
HETATM    6  C6  UNL     1      23.625  -1.571  55.706  1.00  0.00     0.256 A 
HETATM    7  N2  UNL     1      22.685  -1.256  54.888  1.00  0.00    -0.160 NA
HETATM    8  N3  UNL     1      22.914  -0.477  53.749  1.00  0.00    -0.230 N 
HETATM    9  C13 UNL     1      26.705  -0.022  54.357  1.00  0.00     0.073 A 
HETATM   10  C14 UNL     1      26.972   0.718  53.291  1.00  0.00     0.104 A 
ENDROOT
BRANCH   8  11
HETATM   11  C7  UNL     1      21.848  -0.168  52.876  1.00  0.00     0.059 A 
HETATM   12  C8  UNL     1      21.826   0.296  51.603  1.00  0.00     0.034 A 
HETATM   13  C9  UNL     1      20.705   0.547  50.845  1.00  0.00     0.044 A 
HETATM   14  C10 UNL     1      19.462   0.315  51.393  1.00  0.00     0.116 A 
HETATM   15  F1  UNL     1      18.331   0.533  50.720  1.00  0.00    -0.206 F 
HETATM   16  C11 UNL     1      19.400  -0.157  52.681  1.00  0.00     0.044 A 
HETATM   17  C12 UNL     1      20.559  -0.384  53.381  1.00  0.00     0.034 A 
ENDBRANCH   8  11
BRANCH   1  18
HETATM   18  O1  UNL     1      26.147   1.812  51.310  1.00  0.00    -0.352 OA
HETATM   19  C1  UNL     1      25.325   2.886  50.892  1.00  0.00     0.210 C 
ENDBRANCH   1  18
BRANCH  10  20
HETATM   20  O2  UNL     1      28.261   1.143  53.075  1.00  0.00    -0.353 OA
HETATM   21  C15 UNL     1      28.692   2.395  53.593  1.00  0.00     0.210 C 
ENDBRANCH  10  20
TORSDOF 3
ENDMDL
MODEL 5
REMARK VINA RESULT:      -6.9      3.302      6.007
REMARK  3 active torsions:
REMARK  status: ('A' for Active; 'I' for Inactive)
REMARK    1  A    between atoms: O1_2  and  C2_3 
REMARK    2  A    between atoms: N3_10  and  C7_11 
REMARK    3  A    between atoms: C14_19  and  O2_20 
ROOT
HETATM    1  C2  UNL     1      25.729   0.432  52.662  1.00  0.00     0.115 A 
HETATM    2  C3  UNL     1      24.498   0.675  52.393  1.00  0.00     0.047 A 
HETATM    3  C4  UNL     1      23.534   0.206  53.124  1.00  0.00     0.102 A 
HETATM    4  C5  UNL     1      23.932  -0.615  54.242  1.00  0.00     0.090 A 
HETATM    5  N1  UNL     1      22.986  -1.103  54.984  1.00  0.00    -0.238 NA
HETATM    6  C6  UNL     1      21.619  -0.793  54.643  1.00  0.00     0.256 A 
HETATM    7  N2  UNL     1      21.266  -0.061  53.648  1.00  0.00    -0.160 NA
HETATM    8  N3  UNL     1      22.195   0.519  52.779  1.00  0.00    -0.230 N 
HETATM    9  C13 UNL     1      25.318  -0.907  54.556  1.00  0.00     0.073 A 
HETATM   10  C14 UNL     1      26.237  -0.381  53.761  1.00  0.00     0.104 A 
ENDROOT
BRANCH   8  11
HETATM   11  C7  UNL     1      21.755   1.307  51.693  1.00  0.00     0.059 A 
HETATM   12  C8  UNL     1      21.596   2.645  51.550  1.00  0.00     0.034 A 
HETATM   13  C9  UNL     1      21.167   3.301  50.418  1.00  0.00     0.044 A 
HETATM   14  C10 UNL     1      20.857   2.563  49.297  1.00  0.00     0.116 A 
HETATM   15  F1  UNL     1      20.435   3.126  48.163  1.00  0.00    -0.206 F 
HETATM   16  C11 UNL     1      20.991   1.198  49.360  1.00  0.00     0.044 A 
HETATM   17  C12 UNL     1      21.425   0.609  50.523  1.00  0.00     0.034 A 
ENDBRANCH   8  11
BRANCH   1  18
HETATM   18  O1  UNL     1      26.727   0.988  51.839  1.00  0.00    -0.352 OA
HETATM   19  C1  UNL     1      26.564   2.232  51.184  1.00  0.00     0.210 C 
ENDBRANCH   1  18
BRANCH  10  20
HETATM   20  O2  UNL     1      27.565  -0.625  54.014  1.00  0.00    -0.353 OA
HETATM   21  C15 UNL     1      28.289   0.226  54.892  1.00  0.00     0.210 C 
ENDBRANCH  10  20
TORSDOF 3
ENDMDL
MODEL 6
REMARK VINA RESULT:      -6.7      4.122      6.570
REMARK  3 active torsions:
REMARK  status: ('A' for Active; 'I' for Inactive)
REMARK    1  A    between atoms: O1_2  and  C2_3 
REMARK    2  A    between atoms: N3_10  and  C7_11 
REMARK    3  A    between atoms: C14_19  and  O2_20 
ROOT
HETATM    1  C2  UNL     1      27.064   1.697  52.203  1.00  0.00     0.115 A 
HETATM    2  C3  UNL     1      26.663   2.617  51.405  1.00  0.00     0.047 A 
HETATM    3  C4  UNL     1      25.435   2.670  50.986  1.00  0.00     0.102 A 
HETATM    4  C5  UNL     1      24.562   1.623  51.457  1.00  0.00     0.090 A 
HETATM    5  N1  UNL     1      23.332   1.648  51.046  1.00  0.00    -0.238 NA
HETATM    6  C6  UNL     1      22.929   2.709  50.156  1.00  0.00     0.256 A 
HETATM    7  N2  UNL     1      23.707   3.643  49.738  1.00  0.00    -0.160 NA
HETATM    8  N3  UNL     1      25.052   3.720  50.113  1.00  0.00    -0.230 N 
HETATM    9  C13 UNL     1      25.002   0.568  52.352  1.00  0.00     0.073 A 
HETATM   10  C14 UNL     1      26.269   0.597  52.736  1.00  0.00     0.104 A 
ENDROOT
BRANCH   8  11
HETATM   11  C7  UNL     1      25.869   4.760  49.616  1.00  0.00     0.059 A 
HETATM   12  C8  UNL     1      25.735   6.107  49.643  1.00  0.00     0.034 A 
HETATM   13  C9  UNL     1      26.621   7.026  49.129  1.00  0.00     0.044 A 
HETATM   14  C10 UNL     1      27.771   6.575  48.517  1.00  0.00     0.116 A 
HETATM   15  F1  UNL     1      28.677   7.404  47.996  1.00  0.00    -0.206 F 
HETATM   16  C11 UNL     1      27.980   5.220  48.449  1.00  0.00     0.044 A 
HETATM   17  C12 UNL     1      27.053   4.359  48.983  1.00  0.00     0.034 A 
ENDBRANCH   8  11
BRANCH   1  18
HETATM   18  O1  UNL     1      28.404   1.708  52.635  1.00  0.00    -0.352 OA
HETATM   19  C1  UNL     1      28.823   2.413  53.789  1.00  0.00     0.210 C 
ENDBRANCH   1  18
BRANCH  10  20
HETATM   20  O2  UNL     1      26.737  -0.377  53.583  1.00  0.00    -0.353 OA
HETATM   21  C15 UNL     1      27.250  -1.593  53.054  1.00  0.00     0.210 C 
ENDBRANCH  10  20
TORSDOF 3
ENDMDL
MODEL 7
REMARK VINA RESULT:      -6.7      1.696      2.065
REMARK  3 active torsions:
REMARK  status: ('A' for Active; 'I' for Inactive)
REMARK    1  A    between atoms: O1_2  and  C2_3 
REMARK    2  A    between atoms: N3_10  and  C7_11 
REMARK    3  A    between atoms: C14_19  and  O2_20 
ROOT
HETATM    1  C2  UNL     1      21.477   0.999  51.886  1.00  0.00     0.115 A 
HETATM    2  C3  UNL     1      22.597   0.708  52.441  1.00  0.00     0.047 A 
HETATM    3  C4  UNL     1      22.668  -0.109  53.448  1.00  0.00     0.102 A 
HETATM    4  C5  UNL     1      21.414  -0.650  53.911  1.00  0.00     0.090 A 
HETATM    5  N1  UNL     1      21.457  -1.462  54.921  1.00  0.00    -0.238 NA
HETATM    6  C6  UNL     1      22.742  -1.763  55.504  1.00  0.00     0.256 A 
HETATM    7  N2  UNL     1      23.859  -1.281  55.090  1.00  0.00    -0.160 NA
HETATM    8  N3  UNL     1      23.938  -0.397  54.009  1.00  0.00    -0.230 N 
HETATM    9  C13 UNL     1      20.137  -0.325  53.301  1.00  0.00     0.073 A 
HETATM   10  C14 UNL     1      20.159   0.510  52.274  1.00  0.00     0.104 A 
ENDROOT
BRANCH   8  11
HETATM   11  C7  UNL     1      25.189   0.114  53.600  1.00  0.00     0.059 A 
HETATM   12  C8  UNL     1      25.626   0.595  52.412  1.00  0.00     0.034 A 
HETATM   13  C9  UNL     1      26.884   1.084  52.141  1.00  0.00     0.044 A 
HETATM   14  C10 UNL     1      27.823   1.104  53.149  1.00  0.00     0.116 A 
HETATM   15  F1  UNL     1      29.063   1.563  52.964  1.00  0.00    -0.206 F 
HETATM   16  C11 UNL     1      27.458   0.632  54.385  1.00  0.00     0.044 A 
HETATM   17  C12 UNL     1      26.185   0.158  54.585  1.00  0.00     0.034 A 
ENDBRANCH   8  11
BRANCH   1  18
HETATM   18  O1  UNL     1      21.472   1.877  50.786  1.00  0.00    -0.352 OA
HETATM   19  C1  UNL     1      22.539   1.936  49.858  1.00  0.00     0.210 C 
ENDBRANCH   1  18
BRANCH  10  20
HETATM   20  O2  UNL     1      18.979   0.851  51.660  1.00  0.00    -0.353 OA
HETATM   21  C15 UNL     1      17.877  -0.046  51.690  1.00  0.00     0.210 C 
ENDBRANCH  10  20
TORSDOF 3
ENDMDL
MODEL 8
REMARK VINA RESULT:      -6.7      3.106      5.394
REMARK  3 active torsions:
REMARK  status: ('A' for Active; 'I' for Inactive)
REMARK    1  A    between atoms: O1_2  and  C2_3 
REMARK    2  A    between atoms: N3_10  and  C7_11 
REMARK    3  A    between atoms: C14_19  and  O2_20 
ROOT
HETATM    1  C2  UNL     1      24.326   3.173  50.760  1.00  0.00     0.115 A 
HETATM    2  C3  UNL     1      23.887   2.162  51.416  1.00  0.00     0.047 A 
HETATM    3  C4  UNL     1      24.690   1.296  51.955  1.00  0.00     0.102 A 
HETATM    4  C5  UNL     1      26.098   1.532  51.754  1.00  0.00     0.090 A 
HETATM    5  N1  UNL     1      26.922   0.677  52.275  1.00  0.00    -0.238 NA
HETATM    6  C6  UNL     1      26.377  -0.438  53.011  1.00  0.00     0.256 A 
HETATM    7  N2  UNL     1      25.122  -0.647  53.190  1.00  0.00    -0.160 NA
HETATM    8  N3  UNL     1      24.140   0.206  52.676  1.00  0.00    -0.230 N 
HETATM    9  C13 UNL     1      26.614   2.665  51.006  1.00  0.00     0.073 A 
HETATM   10  C14 UNL     1      25.722   3.503  50.499  1.00  0.00     0.104 A 
ENDROOT
BRANCH   8  11
HETATM   11  C7  UNL     1      22.773  -0.074  52.892  1.00  0.00     0.059 A 
HETATM   12  C8  UNL     1      21.658   0.275  52.206  1.00  0.00     0.034 A 
HETATM   13  C9  UNL     1      20.364  -0.079  52.515  1.00  0.00     0.044 A 
HETATM   14  C10 UNL     1      20.135  -0.864  53.624  1.00  0.00     0.116 A 
HETATM   15  F1  UNL     1      18.910  -1.249  53.988  1.00  0.00    -0.206 F 
HETATM   16  C11 UNL     1      21.214  -1.260  54.374  1.00  0.00     0.044 A 
HETATM   17  C12 UNL     1      22.479  -0.870  54.007  1.00  0.00     0.034 A 
ENDBRANCH   8  11
BRANCH   1  18
HETATM   18  O1  UNL     1      23.402   4.085  50.216  1.00  0.00    -0.352 OA
HETATM   19  C1  UNL     1      22.444   4.759  51.013  1.00  0.00     0.210 C 
ENDBRANCH   1  18
BRANCH  10  20
HETATM   20  O2  UNL     1      26.156   4.592  49.782  1.00  0.00    -0.353 OA
HETATM   21  C15 UNL     1      27.296   4.482  48.942  1.00  0.00     0.210 C 
ENDBRANCH  10  20
TORSDOF 3
ENDMDL
MODEL 9
REMARK VINA RESULT:      -6.6      3.416      5.512
REMARK  3 active torsions:
REMARK  status: ('A' for Active; 'I' for Inactive)
REMARK    1  A    between atoms: O1_2  and  C2_3 
REMARK    2  A    between atoms: N3_10  and  C7_11 
REMARK    3  A    between atoms: C14_19  and  O2_20 
ROOT
HETATM    1  C2  UNL     1      24.371   0.630  52.653  1.00  0.00     0.115 A 
HETATM    2  C3  UNL     1      24.464   1.664  51.899  1.00  0.00     0.047 A 
HETATM    3  C4  UNL     1      23.454   2.454  51.696  1.00  0.00     0.102 A 
HETATM    4  C5  UNL     1      22.223   2.085  52.352  1.00  0.00     0.090 A 
HETATM    5  N1  UNL     1      21.196   2.852  52.158  1.00  0.00    -0.238 NA
HETATM    6  C6  UNL     1      21.355   4.008  51.309  1.00  0.00     0.256 A 
HETATM    7  N2  UNL     1      22.452   4.337  50.726  1.00  0.00    -0.160 NA
HETATM    8  N3  UNL     1      23.625   3.587  50.861  1.00  0.00    -0.230 N 
HETATM    9  C13 UNL     1      22.097   0.913  53.200  1.00  0.00     0.073 A 
HETATM   10  C14 UNL     1      23.181   0.169  53.358  1.00  0.00     0.104 A 
ENDROOT
BRANCH   8  11
HETATM   11  C7  UNL     1      24.802   3.984  50.190  1.00  0.00     0.059 A 
HETATM   12  C8  UNL     1      25.934   3.311  49.871  1.00  0.00     0.034 A 
HETATM   13  C9  UNL     1      27.020   3.815  49.192  1.00  0.00     0.044 A 
HETATM   14  C10 UNL     1      26.997   5.129  48.777  1.00  0.00     0.116 A 
HETATM   15  F1  UNL     1      28.011   5.688  48.114  1.00  0.00    -0.206 F 
HETATM   16  C11 UNL     1      25.883   5.880  49.062  1.00  0.00     0.044 A 
HETATM   17  C12 UNL     1      24.835   5.312  49.745  1.00  0.00     0.034 A 
ENDBRANCH   8  11
BRANCH   1  18
HETATM   18  O1  UNL     1      25.511  -0.174  52.847  1.00  0.00    -0.352 OA
HETATM   19  C1  UNL     1      26.660  -0.071  52.026  1.00  0.00     0.210 C 
ENDBRANCH   1  18
BRANCH  10  20
HETATM   20  O2  UNL     1      23.118  -0.951  54.151  1.00  0.00    -0.353 OA
HETATM   21  C15 UNL     1      21.862  -1.406  54.639  1.00  0.00     0.210 C 
ENDBRANCH  10  20
TORSDOF 3
ENDMDL
