MODEL 1
REMARK VINA RESULT:      -8.2      0.000      0.000
REMARK  2 active torsions:
REMARK  status: ('A' for Active; 'I' for Inactive)
REMARK    1  A    between atoms: N1_2  and  C2_3 
REMARK    2  A    between atoms: N5_12  and  N6_13 
ROOT
HETATM    1  C2  UNL     1      27.091   2.031  53.286  1.00  0.00     0.131 C 
HETATM    2  C3  UNL     1      28.587   2.279  53.340  1.00  0.00     0.299 C 
HETATM    3  N2  UNL     1      29.203   1.195  54.094  1.00  0.00     0.096 N 
HETATM    4  C4  UNL     1      29.737   0.122  53.263  1.00  0.00     0.301 C 
HETATM    5  C5  UNL     1      29.591  -1.199  53.922  1.00  0.00     0.021 C 
HETATM    6  C6  UNL     1      28.879  -2.276  53.611  1.00  0.00     0.107 C 
HETATM    7  N3  UNL     1      27.966  -2.810  52.661  1.00  0.00    -0.289 N 
HETATM    8  N4  UNL     1      27.210  -1.760  53.046  1.00  0.00    -0.169 NA
HETATM    9  C7  UNL     1      26.049  -1.494  52.691  1.00  0.00     0.249 C 
HETATM   10  N5  UNL     1      26.027  -0.267  53.537  1.00  0.00    -0.273 N 
HETATM   11  C14 UNL     1      27.132   0.586  53.541  1.00  0.00     0.161 C 
HETATM   12  C15 UNL     1      28.035   0.558  54.756  1.00  0.00     0.302 C 
HETATM   13  H12 UNL     1      28.194  -3.670  52.117  1.00  0.00     0.188 HD
ENDROOT
BRANCH  10  14
HETATM   14  N6  UNL     1      24.753  -0.571  54.000  1.00  0.00    -0.287 N 
HETATM   15  C8  UNL     1      24.715  -1.284  55.226  1.00  0.00     0.176 A 
HETATM   16  C9  UNL     1      23.301  -1.530  55.604  1.00  0.00    -0.002 A 
HETATM   17  C10 UNL     1      22.163  -1.213  55.018  1.00  0.00     0.042 A 
HETATM   18  C11 UNL     1      22.327  -0.487  53.770  1.00  0.00     0.140 A 
HETATM   19  F1  UNL     1      21.234  -0.104  53.070  1.00  0.00    -0.204 F 
HETATM   20  C12 UNL     1      23.548  -0.189  53.295  1.00  0.00     0.063 A 
HETATM   21  C13 UNL     1      23.674   0.556  52.011  1.00  0.00     0.073 C 
ENDBRANCH  10  14
BRANCH   1  22
HETATM   22  N1  UNL     1      26.229   2.858  53.952  1.00  0.00    -0.418 N 
HETATM   23  C1  UNL     1      24.951   3.227  53.608  1.00  0.00     0.140 C 
HETATM   24  H4  UNL     1      26.594   3.331  54.818  1.00  0.00     0.153 HD
ENDBRANCH   1  22
TORSDOF 2
ENDMDL
MODEL 2
REMARK VINA RESULT:      -8.0      2.513      5.270
REMARK  2 active torsions:
REMARK  status: ('A' for Active; 'I' for Inactive)
REMARK    1  A    between atoms: N1_2  and  C2_3 
REMARK    2  A    between atoms: N5_12  and  N6_13 
ROOT
HETATM    1  C2  UNL     1      25.340   2.562  52.606  1.00  0.00     0.131 C 
HETATM    2  C3  UNL     1      23.989   3.152  52.244  1.00  0.00     0.299 C 
HETATM    3  N2  UNL     1      23.097   2.058  51.883  1.00  0.00     0.096 N 
HETATM    4  C4  UNL     1      22.244   1.603  52.975  1.00  0.00     0.301 C 
HETATM    5  C5  UNL     1      22.004   0.141  52.902  1.00  0.00     0.021 C 
HETATM    6  C6  UNL     1      22.352  -0.860  53.703  1.00  0.00     0.107 C 
HETATM    7  N3  UNL     1      23.038  -1.179  54.907  1.00  0.00    -0.289 N 
HETATM    8  N4  UNL     1      24.084  -0.618  54.262  1.00  0.00    -0.169 NA
HETATM    9  C7  UNL     1      25.261  -0.547  54.653  1.00  0.00     0.249 C 
HETATM   10  N5  UNL     1      25.673   0.172  53.414  1.00  0.00    -0.273 N 
HETATM   11  C14 UNL     1      24.874   1.207  52.922  1.00  0.00     0.161 C 
HETATM   12  C15 UNL     1      24.036   0.923  51.693  1.00  0.00     0.302 C 
HETATM   13  H12 UNL     1      22.549  -1.647  55.699  1.00  0.00     0.188 HD
ENDROOT
BRANCH  10  14
HETATM   14  N6  UNL     1      26.808  -0.619  53.293  1.00  0.00    -0.287 N 
HETATM   15  C8  UNL     1      26.586  -1.906  52.739  1.00  0.00     0.176 A 
HETATM   16  C9  UNL     1      27.878  -2.632  52.659  1.00  0.00    -0.002 A 
HETATM   17  C10 UNL     1      29.104  -2.290  53.000  1.00  0.00     0.042 A 
HETATM   18  C11 UNL     1      29.209  -0.952  53.557  1.00  0.00     0.140 A 
HETATM   19  F1  UNL     1      30.416  -0.482  53.947  1.00  0.00    -0.204 F 
HETATM   20  C12 UNL     1      28.124  -0.171  53.693  1.00  0.00     0.063 A 
HETATM   21  C13 UNL     1      28.273   1.196  54.270  1.00  0.00     0.073 C 
ENDBRANCH  10  14
BRANCH   1  22
HETATM   22  N1  UNL     1      26.427   2.785  51.806  1.00  0.00    -0.418 N 
HETATM   23  C1  UNL     1      26.466   3.276  50.524  1.00  0.00     0.140 C 
HETATM   24  H4  UNL     1      27.367   2.497  52.185  1.00  0.00     0.153 HD
ENDBRANCH   1  22
TORSDOF 2
ENDMDL
MODEL 3
REMARK VINA RESULT:      -7.8      2.744      5.883
REMARK  2 active torsions:
REMARK  status: ('A' for Active; 'I' for Inactive)
REMARK    1  A    between atoms: N1_2  and  C2_3 
REMARK    2  A    between atoms: N5_12  and  N6_13 
ROOT
HETATM    1  C2  UNL     1      23.584   0.445  52.586  1.00  0.00     0.131 C 
HETATM    2  C3  UNL     1      22.284   1.181  52.313  1.00  0.00     0.299 C 
HETATM    3  N2  UNL     1      22.554   2.613  52.353  1.00  0.00     0.096 N 
HETATM    4  C4  UNL     1      22.792   3.209  51.044  1.00  0.00     0.301 C 
HETATM    5  C5  UNL     1      23.789   4.304  51.120  1.00  0.00     0.021 C 
HETATM    6  C6  UNL     1      25.010   4.435  50.612  1.00  0.00     0.107 C 
HETATM    7  N3  UNL     1      25.999   3.783  49.826  1.00  0.00    -0.289 N 
HETATM    8  N4  UNL     1      25.921   2.852  50.801  1.00  0.00    -0.169 NA
HETATM    9  C7  UNL     1      26.616   1.830  50.927  1.00  0.00     0.249 C 
HETATM   10  N5  UNL     1      25.889   1.438  52.169  1.00  0.00    -0.273 N 
HETATM   11  C14 UNL     1      24.496   1.531  52.209  1.00  0.00     0.161 C 
HETATM   12  C15 UNL     1      23.892   2.672  52.998  1.00  0.00     0.302 C 
HETATM   13  H12 UNL     1      26.349   4.204  48.939  1.00  0.00     0.188 HD
ENDROOT
BRANCH  10  14
HETATM   14  N6  UNL     1      27.082   1.122  52.806  1.00  0.00    -0.287 N 
HETATM   15  C8  UNL     1      27.790   2.231  53.338  1.00  0.00     0.176 A 
HETATM   16  C9  UNL     1      29.030   1.749  53.996  1.00  0.00    -0.002 A 
HETATM   17  C10 UNL     1      29.536   0.541  54.146  1.00  0.00     0.042 A 
HETATM   18  C11 UNL     1      28.726  -0.513  53.558  1.00  0.00     0.140 A 
HETATM   19  F1  UNL     1      29.137  -1.800  53.644  1.00  0.00    -0.204 F 
HETATM   20  C12 UNL     1      27.573  -0.233  52.928  1.00  0.00     0.063 A 
HETATM   21  C13 UNL     1      26.771  -1.343  52.338  1.00  0.00     0.073 C 
ENDBRANCH  10  14
BRANCH   1  22
HETATM   22  N1  UNL     1      23.745  -0.264  53.745  1.00  0.00    -0.418 N 
HETATM   23  C1  UNL     1      22.797  -0.925  54.488  1.00  0.00     0.140 C 
HETATM   24  H4  UNL     1      24.707  -0.271  54.171  1.00  0.00     0.153 HD
ENDBRANCH   1  22
TORSDOF 2
ENDMDL
MODEL 4
REMARK VINA RESULT:      -7.4      3.585      6.104
REMARK  2 active torsions:
REMARK  status: ('A' for Active; 'I' for Inactive)
REMARK    1  A    between atoms: N1_2  and  C2_3 
REMARK    2  A    between atoms: N5_12  and  N6_13 
ROOT
HETATM    1  C2  UNL     1      26.759   1.497  52.277  1.00  0.00     0.131 C 
HETATM    2  C3  UNL     1      26.589   0.280  53.167  1.00  0.00     0.299 C 
HETATM    3  N2  UNL     1      25.283   0.363  53.809  1.00  0.00     0.096 N 
HETATM    4  C4  UNL     1      24.238  -0.391  53.127  1.00  0.00     0.301 C 
HETATM    5  C5  UNL     1      22.923   0.288  53.232  1.00  0.00     0.021 C 
HETATM    6  C6  UNL     1      22.131   0.841  52.320  1.00  0.00     0.107 C 
HETATM    7  N3  UNL     1      22.001   1.117  50.931  1.00  0.00    -0.289 N 
HETATM    8  N4  UNL     1      23.149   1.800  51.130  1.00  0.00    -0.169 NA
HETATM    9  C7  UNL     1      23.762   2.501  50.308  1.00  0.00     0.249 C 
HETATM   10  N5  UNL     1      24.816   2.827  51.310  1.00  0.00    -0.273 N 
HETATM   11  C14 UNL     1      25.334   1.813  52.118  1.00  0.00     0.161 C 
HETATM   12  C15 UNL     1      24.892   1.776  53.566  1.00  0.00     0.302 C 
HETATM   13  H12 UNL     1      21.199   0.744  50.379  1.00  0.00     0.188 HD
ENDROOT
BRANCH  10  14
HETATM   14  N6  UNL     1      24.800   4.166  50.940  1.00  0.00    -0.287 N 
HETATM   15  C8  UNL     1      23.806   4.952  51.579  1.00  0.00     0.176 A 
HETATM   16  C9  UNL     1      23.911   6.353  51.100  1.00  0.00    -0.002 A 
HETATM   17  C10 UNL     1      24.722   6.932  50.237  1.00  0.00     0.042 A 
HETATM   18  C11 UNL     1      25.694   6.028  49.646  1.00  0.00     0.140 A 
HETATM   19  F1  UNL     1      26.585   6.501  48.742  1.00  0.00    -0.204 F 
HETATM   20  C12 UNL     1      25.725   4.727  49.980  1.00  0.00     0.063 A 
HETATM   21  C13 UNL     1      26.737   3.832  49.351  1.00  0.00     0.073 C 
ENDBRANCH  10  14
BRANCH   1  22
HETATM   22  N1  UNL     1      27.682   2.457  52.588  1.00  0.00    -0.418 N 
HETATM   23  C1  UNL     1      28.619   2.457  53.593  1.00  0.00     0.140 C 
HETATM   24  H4  UNL     1      27.650   3.349  52.030  1.00  0.00     0.153 HD
ENDBRANCH   1  22
TORSDOF 2
ENDMDL
MODEL 5
REMARK VINA RESULT:      -7.2      3.707      6.397
REMARK  2 active torsions:
REMARK  status: ('A' for Active; 'I' for Inactive)
REMARK    1  A    between atoms: N1_2  and  C2_3 
REMARK    2  A    between atoms: N5_12  and  N6_13 
ROOT
HETATM    1  C2  UNL     1      26.668   1.622  52.179  1.00  0.00     0.131 C 
HETATM    2  C3  UNL     1      26.257   0.496  53.109  1.00  0.00     0.299 C 
HETATM    3  N2  UNL     1      24.901   0.761  53.574  1.00  0.00     0.096 N 
HETATM    4  C4  UNL     1      23.867   0.074  52.810  1.00  0.00     0.301 C 
HETATM    5  C5  UNL     1      22.634   0.893  52.707  1.00  0.00     0.021 C 
HETATM    6  C6  UNL     1      22.025   1.460  51.672  1.00  0.00     0.107 C 
HETATM    7  N3  UNL     1      22.094   1.648  50.264  1.00  0.00    -0.289 N 
HETATM    8  N4  UNL     1      23.279   2.219  50.567  1.00  0.00    -0.169 NA
HETATM    9  C7  UNL     1      24.062   2.792  49.791  1.00  0.00     0.249 C 
HETATM   10  N5  UNL     1      25.019   3.076  50.898  1.00  0.00    -0.273 N 
HETATM   11  C14 UNL     1      25.318   2.074  51.823  1.00  0.00     0.161 C 
HETATM   12  C15 UNL     1      24.705   2.186  53.202  1.00  0.00     0.302 C 
HETATM   13  H12 UNL     1      21.327   1.323  49.637  1.00  0.00     0.188 HD
ENDROOT
BRANCH  10  14
HETATM   14  N6  UNL     1      25.198   4.379  50.452  1.00  0.00    -0.287 N 
HETATM   15  C8  UNL     1      26.154   4.532  49.415  1.00  0.00     0.176 A 
HETATM   16  C9  UNL     1      26.233   5.964  49.031  1.00  0.00    -0.002 A 
HETATM   17  C10 UNL     1      25.601   7.032  49.476  1.00  0.00     0.042 A 
HETATM   18  C11 UNL     1      24.650   6.753  50.538  1.00  0.00     0.140 A 
HETATM   19  F1  UNL     1      23.936   7.768  51.080  1.00  0.00    -0.204 F 
HETATM   20  C12 UNL     1      24.465   5.503  50.994  1.00  0.00     0.063 A 
HETATM   21  C13 UNL     1      23.480   5.259  52.085  1.00  0.00     0.073 C 
ENDBRANCH  10  14
BRANCH   1  22
HETATM   22  N1  UNL     1      27.650   2.500  52.549  1.00  0.00    -0.418 N 
HETATM   23  C1  UNL     1      28.550   2.399  53.582  1.00  0.00     0.140 C 
HETATM   24  H4  UNL     1      27.705   3.408  52.018  1.00  0.00     0.153 HD
ENDBRANCH   1  22
TORSDOF 2
ENDMDL
MODEL 6
REMARK VINA RESULT:      -7.0      3.985      6.056
REMARK  2 active torsions:
REMARK  status: ('A' for Active; 'I' for Inactive)
REMARK    1  A    between atoms: N1_2  and  C2_3 
REMARK    2  A    between atoms: N5_12  and  N6_13 
ROOT
HETATM    1  C2  UNL     1      26.205   2.417  50.854  1.00  0.00     0.131 C 
HETATM    2  C3  UNL     1      26.800   1.509  51.915  1.00  0.00     0.299 C 
HETATM    3  N2  UNL     1      25.841   1.395  53.006  1.00  0.00     0.096 N 
HETATM    4  C4  UNL     1      24.992   0.212  52.930  1.00  0.00     0.301 C 
HETATM    5  C5  UNL     1      23.630   0.487  53.448  1.00  0.00     0.021 C 
HETATM    6  C6  UNL     1      22.440   0.506  52.858  1.00  0.00     0.107 C 
HETATM    7  N3  UNL     1      21.774   0.325  51.614  1.00  0.00    -0.289 N 
HETATM    8  N4  UNL     1      22.582   1.334  51.225  1.00  0.00    -0.169 NA
HETATM    9  C7  UNL     1      22.588   1.917  50.128  1.00  0.00     0.249 C 
HETATM   10  N5  UNL     1      23.708   2.802  50.557  1.00  0.00    -0.273 N 
HETATM   11  C14 UNL     1      24.798   2.254  51.235  1.00  0.00     0.161 C 
HETATM   12  C15 UNL     1      24.896   2.507  52.725  1.00  0.00     0.302 C 
HETATM   13  H12 UNL     1      21.037  -0.403  51.497  1.00  0.00     0.188 HD
ENDROOT
BRANCH  10  14
HETATM   14  N6  UNL     1      23.074   3.916  50.021  1.00  0.00    -0.287 N 
HETATM   15  C8  UNL     1      23.080   3.986  48.603  1.00  0.00     0.176 A 
HETATM   16  C9  UNL     1      22.365   5.212  48.172  1.00  0.00    -0.002 A 
HETATM   17  C10 UNL     1      21.773   6.173  48.853  1.00  0.00     0.042 A 
HETATM   18  C11 UNL     1      21.832   5.996  50.294  1.00  0.00     0.140 A 
HETATM   19  F1  UNL     1      21.260   6.916  51.105  1.00  0.00    -0.204 F 
HETATM   20  C12 UNL     1      22.447   4.932  50.837  1.00  0.00     0.063 A 
HETATM   21  C13 UNL     1      22.487   4.787  52.320  1.00  0.00     0.073 C 
ENDBRANCH  10  14
BRANCH   1  22
HETATM   22  N1  UNL     1      26.751   3.648  50.614  1.00  0.00    -0.418 N 
HETATM   23  C1  UNL     1      26.832   4.337  49.428  1.00  0.00     0.140 C 
HETATM   24  H4  UNL     1      27.228   4.125  51.422  1.00  0.00     0.153 HD
ENDBRANCH   1  22
TORSDOF 2
ENDMDL
MODEL 7
REMARK VINA RESULT:      -6.9      2.939      5.611
REMARK  2 active torsions:
REMARK  status: ('A' for Active; 'I' for Inactive)
REMARK    1  A    between atoms: N1_2  and  C2_3 
REMARK    2  A    between atoms: N5_12  and  N6_13 
ROOT
HETATM    1  C2  UNL     1      22.194   1.262  52.983  1.00  0.00     0.131 C 
HETATM    2  C3  UNL     1      21.892  -0.019  53.739  1.00  0.00     0.299 C 
HETATM    3  N2  UNL     1      23.074  -0.869  53.686  1.00  0.00     0.096 N 
HETATM    4  C4  UNL     1      23.935  -0.762  54.858  1.00  0.00     0.301 C 
HETATM    5  C5  UNL     1      25.366  -0.915  54.496  1.00  0.00     0.021 C 
HETATM    6  C6  UNL     1      26.392  -0.073  54.547  1.00  0.00     0.107 C 
HETATM    7  N3  UNL     1      26.770   1.253  54.895  1.00  0.00    -0.289 N 
HETATM    8  N4  UNL     1      25.852   1.581  53.960  1.00  0.00    -0.169 NA
HETATM    9  C7  UNL     1      25.576   2.717  53.539  1.00  0.00     0.249 C 
HETATM   10  N5  UNL     1      24.543   2.169  52.615  1.00  0.00    -0.273 N 
HETATM   11  C14 UNL     1      23.657   1.192  53.075  1.00  0.00     0.161 C 
HETATM   12  C15 UNL     1      23.883  -0.232  52.615  1.00  0.00     0.302 C 
HETATM   13  H12 UNL     1      27.493   1.435  55.623  1.00  0.00     0.188 HD
ENDROOT
BRANCH  10  14
HETATM   14  N6  UNL     1      24.992   2.980  51.580  1.00  0.00    -0.287 N 
HETATM   15  C8  UNL     1      26.109   2.477  50.865  1.00  0.00     0.176 A 
HETATM   16  C9  UNL     1      26.471   3.434  49.790  1.00  0.00    -0.002 A 
HETATM   17  C10 UNL     1      25.954   4.591  49.428  1.00  0.00     0.042 A 
HETATM   18  C11 UNL     1      24.817   5.004  50.233  1.00  0.00     0.140 A 
HETATM   19  F1  UNL     1      24.196   6.176  49.962  1.00  0.00    -0.204 F 
HETATM   20  C12 UNL     1      24.369   4.242  51.245  1.00  0.00     0.063 A 
HETATM   21  C13 UNL     1      23.200   4.702  52.047  1.00  0.00     0.073 C 
ENDBRANCH  10  14
BRANCH   1  22
HETATM   22  N1  UNL     1      21.556   1.536  51.805  1.00  0.00    -0.418 N 
HETATM   23  C1  UNL     1      20.686   0.746  51.094  1.00  0.00     0.140 C 
HETATM   24  H4  UNL     1      21.791   2.447  51.334  1.00  0.00     0.153 HD
ENDBRANCH   1  22
TORSDOF 2
ENDMDL
MODEL 8
REMARK VINA RESULT:      -6.8      4.079      6.794
REMARK  2 active torsions:
REMARK  status: ('A' for Active; 'I' for Inactive)
REMARK    1  A    between atoms: N1_2  and  C2_3 
REMARK    2  A    between atoms: N5_12  and  N6_13 
ROOT
HETATM    1  C2  UNL     1      20.743   1.839  52.567  1.00  0.00     0.131 C 
HETATM    2  C3  UNL     1      20.955   0.407  53.025  1.00  0.00     0.299 C 
HETATM    3  N2  UNL     1      22.246  -0.045  52.522  1.00  0.00     0.096 N 
HETATM    4  C4  UNL     1      23.335   0.082  53.483  1.00  0.00     0.301 C 
HETATM    5  C5  UNL     1      24.615   0.414  52.811  1.00  0.00     0.021 C 
HETATM    6  C6  UNL     1      25.394   1.489  52.860  1.00  0.00     0.107 C 
HETATM    7  N3  UNL     1      25.532   2.778  53.443  1.00  0.00    -0.289 N 
HETATM    8  N4  UNL     1      24.352   3.000  52.826  1.00  0.00    -0.169 NA
HETATM    9  C7  UNL     1      23.719   4.067  52.767  1.00  0.00     0.249 C 
HETATM   10  N5  UNL     1      22.636   3.429  51.966  1.00  0.00    -0.273 N 
HETATM   11  C14 UNL     1      22.153   2.173  52.338  1.00  0.00     0.161 C 
HETATM   12  C15 UNL     1      22.575   0.984  51.502  1.00  0.00     0.302 C 
HETATM   13  H12 UNL     1      26.359   3.020  54.030  1.00  0.00     0.188 HD
ENDROOT
BRANCH  10  14
HETATM   14  N6  UNL     1      22.596   4.513  51.097  1.00  0.00    -0.287 N 
HETATM   15  C8  UNL     1      21.917   5.655  51.594  1.00  0.00     0.176 A 
HETATM   16  C9  UNL     1      21.962   6.732  50.574  1.00  0.00    -0.002 A 
HETATM   17  C10 UNL     1      22.494   6.783  49.368  1.00  0.00     0.042 A 
HETATM   18  C11 UNL     1      23.160   5.556  48.967  1.00  0.00     0.140 A 
HETATM   19  F1  UNL     1      23.747   5.480  47.749  1.00  0.00    -0.204 F 
HETATM   20  C12 UNL     1      23.204   4.490  49.785  1.00  0.00     0.063 A 
HETATM   21  C13 UNL     1      23.897   3.250  49.335  1.00  0.00     0.073 C 
ENDBRANCH  10  14
BRANCH   1  22
HETATM   22  N1  UNL     1      19.772   2.134  51.650  1.00  0.00    -0.418 N 
HETATM   23  C1  UNL     1      18.958   3.239  51.583  1.00  0.00     0.140 C 
HETATM   24  H4  UNL     1      19.566   1.403  50.920  1.00  0.00     0.153 HD
ENDBRANCH   1  22
TORSDOF 2
ENDMDL
MODEL 9
REMARK VINA RESULT:      -6.7      9.534     12.113
REMARK  2 active torsions:
REMARK  status: ('A' for Active; 'I' for Inactive)
REMARK    1  A    between atoms: N1_2  and  C2_3 
REMARK    2  A    between atoms: N5_12  and  N6_13 
ROOT
HETATM    1  C2  UNL     1      30.441   7.707  47.728  1.00  0.00     0.131 C 
HETATM    2  C3  UNL     1      30.494   9.193  48.031  1.00  0.00     0.299 C 
HETATM    3  N2  UNL     1      31.882   9.557  48.282  1.00  0.00     0.096 N 
HETATM    4  C4  UNL     1      32.574  10.098  47.118  1.00  0.00     0.301 C 
HETATM    5  C5  UNL     1      34.005   9.705  47.107  1.00  0.00     0.021 C 
HETATM    6  C6  UNL     1      34.712   8.939  46.283  1.00  0.00     0.107 C 
HETATM    7  N3  UNL     1      34.631   8.137  45.112  1.00  0.00    -0.289 N 
HETATM    8  N4  UNL     1      33.732   7.448  45.847  1.00  0.00    -0.169 NA
HETATM    9  C7  UNL     1      33.150   6.396  45.536  1.00  0.00     0.249 C 
HETATM   10  N5  UNL     1      32.413   6.372  46.831  1.00  0.00    -0.273 N 
HETATM   11  C14 UNL     1      31.841   7.548  47.320  1.00  0.00     0.161 C 
HETATM   12  C15 UNL     1      32.534   8.236  48.477  1.00  0.00     0.302 C 
HETATM   13  H12 UNL     1      35.204   8.354  44.268  1.00  0.00     0.188 HD
ENDROOT
BRANCH  10  14
HETATM   14  N6  UNL     1      32.665   5.015  46.986  1.00  0.00    -0.287 N 
HETATM   15  C8  UNL     1      31.772   4.155  46.296  1.00  0.00     0.176 A 
HETATM   16  C9  UNL     1      32.164   2.745  46.540  1.00  0.00    -0.002 A 
HETATM   17  C10 UNL     1      33.140   2.211  47.249  1.00  0.00     0.042 A 
HETATM   18  C11 UNL     1      33.987   3.187  47.912  1.00  0.00     0.140 A 
HETATM   19  F1  UNL     1      35.026   2.766  48.671  1.00  0.00    -0.204 F 
HETATM   20  C12 UNL     1      33.759   4.505  47.785  1.00  0.00     0.063 A 
HETATM   21  C13 UNL     1      34.651   5.474  48.482  1.00  0.00     0.073 C 
ENDBRANCH  10  14
BRANCH   1  22
HETATM   22  N1  UNL     1      29.841   6.845  48.605  1.00  0.00    -0.418 N 
HETATM   23  C1  UNL     1      29.077   5.735  48.335  1.00  0.00     0.140 C 
HETATM   24  H4  UNL     1      29.917   7.076  49.629  1.00  0.00     0.153 HD
ENDBRANCH   1  22
TORSDOF 2
ENDMDL
