MODEL 1
REMARK VINA RESULT:      -8.1      0.000      0.000
REMARK  7 active torsions:
REMARK  status: ('A' for Active; 'I' for Inactive)
REMARK    1  A    between atoms: C3_3  and  C4_5 
REMARK    2  A    between atoms: C9_11  and  N2_12 
REMARK    3  A    between atoms: N2_12  and  C10_13 
REMARK    4  A    between atoms: C14_17  and  O1_18 
REMARK    5  A    between atoms: O1_18  and  C15_19 
REMARK    6  A    between atoms: C15_19  and  C16_22 
REMARK    7  A    between atoms: C16_22  and  N3_23 
ROOT
HETATM    1  C10 UNL     1      24.292   2.196  52.494  1.00  0.00     0.036 A 
HETATM    2  C11 UNL     1      24.859   3.034  53.432  1.00  0.00     0.029 A 
HETATM    3  C12 UNL     1      26.098   2.714  53.941  1.00  0.00     0.005 A 
HETATM    4  C13 UNL     1      26.732   1.579  53.505  1.00  0.00     0.037 A 
HETATM    5  C14 UNL     1      26.216   0.709  52.572  1.00  0.00     0.077 A 
HETATM    6  C17 UNL     1      24.966   1.058  52.078  1.00  0.00     0.066 A 
ENDROOT
BRANCH   1   7
HETATM    7  N2  UNL     1      22.986   2.576  51.994  1.00  0.00    -0.341 N 
HETATM    8  H10 UNL     1      22.166   3.078  52.463  1.00  0.00     0.167 HD
BRANCH   7   9
HETATM    9  C9  UNL     1      22.658   2.261  50.620  1.00  0.00     0.134 A 
HETATM   10  C5  UNL     1      21.783   1.108  50.395  1.00  0.00    -0.007 A 
HETATM   11  C4  UNL     1      21.311   0.300  51.299  1.00  0.00     0.033 C 
HETATM   12  C6  UNL     1      21.391   0.814  48.971  1.00  0.00     0.071 A 
HETATM   13  C7  UNL     1      22.055   1.796  48.117  1.00  0.00    -0.003 A 
HETATM   14  C8  UNL     1      22.851   2.819  48.349  1.00  0.00     0.115 A 
HETATM   15  N1  UNL     1      23.164   3.059  49.711  1.00  0.00    -0.243 NA
BRANCH  11  16
HETATM   16  C3  UNL     1      21.262  -0.011  52.679  1.00  0.00     0.015 A 
HETATM   17  C2  UNL     1      21.870  -0.968  53.322  1.00  0.00     0.004 A 
HETATM   18  C1  UNL     1      21.849  -1.308  54.744  1.00  0.00     0.144 A 
HETATM   19 CL1  UNL     1      20.717   0.276  54.309  1.00  0.00    -0.186 Cl
ENDBRANCH  11  16
ENDBRANCH   7   9
ENDBRANCH   1   7
BRANCH   5  20
HETATM   20  O1  UNL     1      26.628  -0.447  51.984  1.00  0.00    -0.280 OA
BRANCH  20  21
HETATM   21  C15 UNL     1      26.911  -1.683  52.556  1.00  0.00     0.407 C 
HETATM   22  F1  UNL     1      26.056  -1.944  53.613  1.00  0.00    -0.170 F 
HETATM   23  F2  UNL     1      26.524  -2.687  51.614  1.00  0.00    -0.170 F 
BRANCH  21  24
HETATM   24  C16 UNL     1      28.332  -1.967  52.889  1.00  0.00     0.367 C 
HETATM   25  F3  UNL     1      28.801  -1.108  53.884  1.00  0.00    -0.218 F 
BRANCH  24  26
HETATM   26  N3  UNL     1      28.674  -3.293  53.250  1.00  0.00    -0.395 N 
HETATM   27  H15 UNL     1      28.815  -3.938  52.465  1.00  0.00     0.152 HD
HETATM   28  H16 UNL     1      28.125  -3.675  54.029  1.00  0.00     0.152 HD
ENDBRANCH  24  26
ENDBRANCH  21  24
ENDBRANCH  20  21
ENDBRANCH   5  20
TORSDOF 7
ENDMDL
MODEL 2
REMARK VINA RESULT:      -8.0      3.681      6.538
REMARK  7 active torsions:
REMARK  status: ('A' for Active; 'I' for Inactive)
REMARK    1  A    between atoms: C3_3  and  C4_5 
REMARK    2  A    between atoms: C9_11  and  N2_12 
REMARK    3  A    between atoms: N2_12  and  C10_13 
REMARK    4  A    between atoms: C14_17  and  O1_18 
REMARK    5  A    between atoms: O1_18  and  C15_19 
REMARK    6  A    between atoms: C15_19  and  C16_22 
REMARK    7  A    between atoms: C16_22  and  N3_23 
ROOT
HETATM    1  C10 UNL     1      23.930   2.868  52.987  1.00  0.00     0.036 A 
HETATM    2  C11 UNL     1      23.272   3.995  52.541  1.00  0.00     0.029 A 
HETATM    3  C12 UNL     1      21.956   3.880  52.151  1.00  0.00     0.005 A 
HETATM    4  C13 UNL     1      21.338   2.658  52.217  1.00  0.00     0.037 A 
HETATM    5  C14 UNL     1      21.944   1.503  52.654  1.00  0.00     0.077 A 
HETATM    6  C17 UNL     1      23.269   1.650  53.040  1.00  0.00     0.066 A 
ENDROOT
BRANCH   1   7
HETATM    7  N2  UNL     1      25.314   3.041  53.381  1.00  0.00    -0.341 N 
HETATM    8  H10 UNL     1      25.880   3.919  53.613  1.00  0.00     0.167 HD
BRANCH   7   9
HETATM    9  C9  UNL     1      26.144   1.863  53.513  1.00  0.00     0.134 A 
HETATM   10  C5  UNL     1      26.817   1.387  52.303  1.00  0.00    -0.007 A 
HETATM   11  C4  UNL     1      26.706   1.881  51.104  1.00  0.00     0.033 C 
HETATM   12  C6  UNL     1      27.729   0.198  52.450  1.00  0.00     0.071 A 
HETATM   13  C7  UNL     1      27.679  -0.229  53.845  1.00  0.00    -0.003 A 
HETATM   14  C8  UNL     1      27.050   0.213  54.914  1.00  0.00     0.115 A 
HETATM   15  N1  UNL     1      26.226   1.350  54.717  1.00  0.00    -0.243 NA
BRANCH  11  16
HETATM   16  C3  UNL     1      26.099   2.876  50.301  1.00  0.00     0.015 A 
HETATM   17  C2  UNL     1      26.611   3.989  49.855  1.00  0.00     0.004 A 
HETATM   18  C1  UNL     1      26.016   5.029  49.017  1.00  0.00     0.144 A 
HETATM   19 CL1  UNL     1      24.760   3.528  49.396  1.00  0.00    -0.186 Cl
ENDBRANCH  11  16
ENDBRANCH   7   9
ENDBRANCH   1   7
BRANCH   5  20
HETATM   20  O1  UNL     1      21.566   0.205  52.816  1.00  0.00    -0.280 OA
BRANCH  20  21
HETATM   21  C15 UNL     1      20.693  -0.358  53.740  1.00  0.00     0.407 C 
HETATM   22  F1  UNL     1      21.229  -1.514  54.283  1.00  0.00    -0.170 F 
HETATM   23  F2  UNL     1      20.660   0.508  54.877  1.00  0.00    -0.170 F 
BRANCH  21  24
HETATM   24  C16 UNL     1      19.278  -0.530  53.319  1.00  0.00     0.367 C 
HETATM   25  F3  UNL     1      19.155  -0.510  51.930  1.00  0.00    -0.218 F 
BRANCH  24  26
HETATM   26  N3  UNL     1      18.574  -1.658  53.811  1.00  0.00    -0.395 N 
HETATM   27  H15 UNL     1      18.786  -1.917  54.781  1.00  0.00     0.152 HD
HETATM   28  H16 UNL     1      18.526  -2.445  53.154  1.00  0.00     0.152 HD
ENDBRANCH  24  26
ENDBRANCH  21  24
ENDBRANCH  20  21
ENDBRANCH   5  20
TORSDOF 7
ENDMDL
MODEL 3
REMARK VINA RESULT:      -7.8      3.736      6.588
REMARK  7 active torsions:
REMARK  status: ('A' for Active; 'I' for Inactive)
REMARK    1  A    between atoms: C3_3  and  C4_5 
REMARK    2  A    between atoms: C9_11  and  N2_12 
REMARK    3  A    between atoms: N2_12  and  C10_13 
REMARK    4  A    between atoms: C14_17  and  O1_18 
REMARK    5  A    between atoms: O1_18  and  C15_19 
REMARK    6  A    between atoms: C15_19  and  C16_22 
REMARK    7  A    between atoms: C16_22  and  N3_23 
ROOT
HETATM    1  C10 UNL     1      24.792  -0.764  53.529  1.00  0.00     0.036 A 
HETATM    2  C11 UNL     1      25.152  -0.896  54.855  1.00  0.00     0.029 A 
HETATM    3  C12 UNL     1      24.165  -1.129  55.787  1.00  0.00     0.005 A 
HETATM    4  C13 UNL     1      22.860  -1.223  55.377  1.00  0.00     0.037 A 
HETATM    5  C14 UNL     1      22.444  -1.102  54.071  1.00  0.00     0.077 A 
HETATM    6  C17 UNL     1      23.460  -0.868  53.155  1.00  0.00     0.066 A 
ENDROOT
BRANCH   1   7
HETATM    7  N2  UNL     1      25.866  -0.516  52.590  1.00  0.00    -0.341 N 
HETATM    8  H10 UNL     1      25.928  -0.655  51.530  1.00  0.00     0.167 HD
BRANCH   7   9
HETATM    9  C9  UNL     1      27.110   0.024  53.095  1.00  0.00     0.134 A 
HETATM   10  C5  UNL     1      27.223   1.483  53.155  1.00  0.00    -0.007 A 
HETATM   11  C4  UNL     1      26.343   2.350  52.750  1.00  0.00     0.033 C 
HETATM   12  C6  UNL     1      28.493   2.047  53.736  1.00  0.00     0.071 A 
HETATM   13  C7  UNL     1      29.360   0.923  54.082  1.00  0.00    -0.003 A 
HETATM   14  C8  UNL     1      29.235  -0.385  54.004  1.00  0.00     0.115 A 
HETATM   15  N1  UNL     1      28.008  -0.855  53.470  1.00  0.00    -0.243 NA
BRANCH  11  16
HETATM   16  C3  UNL     1      25.068   2.536  52.163  1.00  0.00     0.015 A 
HETATM   17  C2  UNL     1      23.941   2.847  52.740  1.00  0.00     0.004 A 
HETATM   18  C1  UNL     1      22.614   3.056  52.162  1.00  0.00     0.144 A 
HETATM   19 CL1  UNL     1      23.990   2.592  50.795  1.00  0.00    -0.186 Cl
ENDBRANCH  11  16
ENDBRANCH   7   9
ENDBRANCH   1   7
BRANCH   5  20
HETATM   20  O1  UNL     1      21.250  -1.157  53.419  1.00  0.00    -0.280 OA
BRANCH  20  21
HETATM   21  C15 UNL     1      20.347  -0.139  53.133  1.00  0.00     0.407 C 
HETATM   22  F1  UNL     1      20.577   0.964  53.938  1.00  0.00    -0.170 F 
HETATM   23  F2  UNL     1      20.676   0.373  51.839  1.00  0.00    -0.170 F 
BRANCH  21  24
HETATM   24  C16 UNL     1      18.908  -0.507  53.070  1.00  0.00     0.367 C 
HETATM   25  F3  UNL     1      18.492  -0.705  51.753  1.00  0.00    -0.218 F 
BRANCH  24  26
HETATM   26  N3  UNL     1      18.473  -1.611  53.844  1.00  0.00    -0.395 N 
HETATM   27  H15 UNL     1      17.594  -2.041  53.538  1.00  0.00     0.152 HD
HETATM   28  H16 UNL     1      18.558  -1.476  54.858  1.00  0.00     0.152 HD
ENDBRANCH  24  26
ENDBRANCH  21  24
ENDBRANCH  20  21
ENDBRANCH   5  20
TORSDOF 7
ENDMDL
MODEL 4
REMARK VINA RESULT:      -7.7      2.125      2.340
REMARK  7 active torsions:
REMARK  status: ('A' for Active; 'I' for Inactive)
REMARK    1  A    between atoms: C3_3  and  C4_5 
REMARK    2  A    between atoms: C9_11  and  N2_12 
REMARK    3  A    between atoms: N2_12  and  C10_13 
REMARK    4  A    between atoms: C14_17  and  O1_18 
REMARK    5  A    between atoms: O1_18  and  C15_19 
REMARK    6  A    between atoms: C15_19  and  C16_22 
REMARK    7  A    between atoms: C16_22  and  N3_23 
ROOT
HETATM    1  C10 UNL     1      24.051   2.704  52.028  1.00  0.00     0.036 A 
HETATM    2  C11 UNL     1      24.578   2.951  50.776  1.00  0.00     0.029 A 
HETATM    3  C12 UNL     1      25.935   2.809  50.591  1.00  0.00     0.005 A 
HETATM    4  C13 UNL     1      26.723   2.430  51.647  1.00  0.00     0.037 A 
HETATM    5  C14 UNL     1      26.253   2.170  52.915  1.00  0.00     0.077 A 
HETATM    6  C17 UNL     1      24.882   2.321  53.070  1.00  0.00     0.066 A 
ENDROOT
BRANCH   1   7
HETATM    7  N2  UNL     1      22.619   2.871  52.170  1.00  0.00    -0.341 N 
HETATM    8  H10 UNL     1      22.017   3.133  53.015  1.00  0.00     0.167 HD
BRANCH   7   9
HETATM    9  C9  UNL     1      21.785   2.672  51.005  1.00  0.00     0.134 A 
HETATM   10  C5  UNL     1      21.249   1.325  50.797  1.00  0.00    -0.007 A 
HETATM   11  C4  UNL     1      21.487   0.271  51.520  1.00  0.00     0.033 C 
HETATM   12  C6  UNL     1      20.331   1.129  49.619  1.00  0.00     0.071 A 
HETATM   13  C7  UNL     1      20.231   2.407  48.917  1.00  0.00    -0.003 A 
HETATM   14  C8  UNL     1      20.738   3.604  49.123  1.00  0.00     0.115 A 
HETATM   15  N1  UNL     1      21.574   3.731  50.261  1.00  0.00    -0.243 NA
BRANCH  11  16
HETATM   16  C3  UNL     1      22.173  -0.244  52.646  1.00  0.00     0.015 A 
HETATM   17  C2  UNL     1      21.694  -0.579  53.811  1.00  0.00     0.004 A 
HETATM   18  C1  UNL     1      22.372  -1.122  54.987  1.00  0.00     0.144 A 
HETATM   19 CL1  UNL     1      23.613  -0.792  53.461  1.00  0.00    -0.186 Cl
ENDBRANCH  11  16
ENDBRANCH   7   9
ENDBRANCH   1   7
BRANCH   5  20
HETATM   20  O1  UNL     1      26.804   1.787  54.099  1.00  0.00    -0.280 OA
BRANCH  20  21
HETATM   21  C15 UNL     1      27.513   0.634  54.418  1.00  0.00     0.407 C 
HETATM   22  F1  UNL     1      26.905  -0.047  55.459  1.00  0.00    -0.170 F 
HETATM   23  F2  UNL     1      27.345  -0.283  53.334  1.00  0.00    -0.170 F 
BRANCH  21  24
HETATM   24  C16 UNL     1      28.981   0.772  54.609  1.00  0.00     0.367 C 
HETATM   25  F3  UNL     1      29.688  -0.011  53.696  1.00  0.00    -0.218 F 
BRANCH  24  26
HETATM   26  N3  UNL     1      29.530   2.078  54.592  1.00  0.00    -0.395 N 
HETATM   27  H15 UNL     1      30.246   2.261  55.304  1.00  0.00     0.152 HD
HETATM   28  H16 UNL     1      28.838   2.827  54.474  1.00  0.00     0.152 HD
ENDBRANCH  24  26
ENDBRANCH  21  24
ENDBRANCH  20  21
ENDBRANCH   5  20
TORSDOF 7
ENDMDL
MODEL 5
REMARK VINA RESULT:      -7.6      4.560      6.816
REMARK  7 active torsions:
REMARK  status: ('A' for Active; 'I' for Inactive)
REMARK    1  A    between atoms: C3_3  and  C4_5 
REMARK    2  A    between atoms: C9_11  and  N2_12 
REMARK    3  A    between atoms: N2_12  and  C10_13 
REMARK    4  A    between atoms: C14_17  and  O1_18 
REMARK    5  A    between atoms: O1_18  and  C15_19 
REMARK    6  A    between atoms: C15_19  and  C16_22 
REMARK    7  A    between atoms: C16_22  and  N3_23 
ROOT
HETATM    1  C10 UNL     1      25.517   2.969  52.089  1.00  0.00     0.036 A 
HETATM    2  C11 UNL     1      26.492   2.688  51.154  1.00  0.00     0.029 A 
HETATM    3  C12 UNL     1      26.283   3.068  49.847  1.00  0.00     0.005 A 
HETATM    4  C13 UNL     1      25.121   3.712  49.510  1.00  0.00     0.037 A 
HETATM    5  C14 UNL     1      24.116   4.020  50.399  1.00  0.00     0.077 A 
HETATM    6  C17 UNL     1      24.355   3.623  51.708  1.00  0.00     0.066 A 
ENDROOT
BRANCH   1   7
HETATM    7  N2  UNL     1      25.783   2.544  53.448  1.00  0.00    -0.341 N 
HETATM    8  H10 UNL     1      25.256   2.721  54.362  1.00  0.00     0.167 HD
BRANCH   7   9
HETATM    9  C9  UNL     1      26.950   1.725  53.696  1.00  0.00     0.134 A 
HETATM   10  C5  UNL     1      26.758   0.273  53.666  1.00  0.00    -0.007 A 
HETATM   11  C4  UNL     1      25.637  -0.361  53.493  1.00  0.00     0.033 C 
HETATM   12  C6  UNL     1      27.982  -0.582  53.864  1.00  0.00     0.071 A 
HETATM   13  C7  UNL     1      29.116   0.311  54.086  1.00  0.00    -0.003 A 
HETATM   14  C8  UNL     1      29.255   1.620  54.120  1.00  0.00     0.115 A 
HETATM   15  N1  UNL     1      28.072   2.370  53.903  1.00  0.00    -0.243 NA
BRANCH  11  16
HETATM   16  C3  UNL     1      24.243  -0.236  53.275  1.00  0.00     0.015 A 
HETATM   17  C2  UNL     1      23.260  -0.741  53.967  1.00  0.00     0.004 A 
HETATM   18  C1  UNL     1      21.816  -0.621  53.775  1.00  0.00     0.144 A 
HETATM   19 CL1  UNL     1      22.865   0.371  52.399  1.00  0.00    -0.186 Cl
ENDBRANCH  11  16
ENDBRANCH   7   9
ENDBRANCH   1   7
BRANCH   5  20
HETATM   20  O1  UNL     1      22.905   4.636  50.326  1.00  0.00    -0.280 OA
BRANCH  20  21
HETATM   21  C15 UNL     1      22.561   5.956  50.598  1.00  0.00     0.407 C 
HETATM   22  F1  UNL     1      21.545   6.383  49.759  1.00  0.00    -0.170 F 
HETATM   23  F2  UNL     1      21.913   5.974  51.872  1.00  0.00    -0.170 F 
BRANCH  21  24
HETATM   24  C16 UNL     1      23.671   6.939  50.693  1.00  0.00     0.367 C 
HETATM   25  F3  UNL     1      23.275   8.198  50.241  1.00  0.00    -0.218 F 
BRANCH  24  26
HETATM   26  N3  UNL     1      24.308   7.099  51.949  1.00  0.00    -0.395 N 
HETATM   27  H15 UNL     1      23.679   7.284  52.738  1.00  0.00     0.152 HD
HETATM   28  H16 UNL     1      25.153   7.681  51.924  1.00  0.00     0.152 HD
ENDBRANCH  24  26
ENDBRANCH  21  24
ENDBRANCH  20  21
ENDBRANCH   5  20
TORSDOF 7
ENDMDL
MODEL 6
REMARK VINA RESULT:      -7.6      2.656      4.121
REMARK  7 active torsions:
REMARK  status: ('A' for Active; 'I' for Inactive)
REMARK    1  A    between atoms: C3_3  and  C4_5 
REMARK    2  A    between atoms: C9_11  and  N2_12 
REMARK    3  A    between atoms: N2_12  and  C10_13 
REMARK    4  A    between atoms: C14_17  and  O1_18 
REMARK    5  A    between atoms: O1_18  and  C15_19 
REMARK    6  A    between atoms: C15_19  and  C16_22 
REMARK    7  A    between atoms: C16_22  and  N3_23 
ROOT
HETATM    1  C10 UNL     1      23.606   1.819  52.760  1.00  0.00     0.036 A 
HETATM    2  C11 UNL     1      23.138   0.526  52.883  1.00  0.00     0.029 A 
HETATM    3  C12 UNL     1      23.949  -0.416  53.475  1.00  0.00     0.005 A 
HETATM    4  C13 UNL     1      25.192  -0.049  53.924  1.00  0.00     0.037 A 
HETATM    5  C14 UNL     1      25.709   1.223  53.829  1.00  0.00     0.077 A 
HETATM    6  C17 UNL     1      24.868   2.150  53.228  1.00  0.00     0.066 A 
ENDROOT
BRANCH   1   7
HETATM    7  N2  UNL     1      22.716   2.770  52.126  1.00  0.00    -0.341 N 
HETATM    8  H10 UNL     1      22.659   3.837  52.188  1.00  0.00     0.167 HD
BRANCH   7   9
HETATM    9  C9  UNL     1      21.698   2.267  51.229  1.00  0.00     0.134 A 
HETATM   10  C5  UNL     1      22.042   2.201  49.807  1.00  0.00    -0.007 A 
HETATM   11  C4  UNL     1      23.151   2.598  49.254  1.00  0.00     0.033 C 
HETATM   12  C6  UNL     1      21.007   1.622  48.879  1.00  0.00     0.071 A 
HETATM   13  C7  UNL     1      19.833   1.285  49.679  1.00  0.00    -0.003 A 
HETATM   14  C8  UNL     1      19.547   1.369  50.962  1.00  0.00     0.115 A 
HETATM   15  N1  UNL     1      20.570   1.900  51.787  1.00  0.00    -0.243 NA
BRANCH  11  16
HETATM   16  C3  UNL     1      24.424   3.179  49.471  1.00  0.00     0.015 A 
HETATM   17  C2  UNL     1      24.796   4.416  49.298  1.00  0.00     0.004 A 
HETATM   18  C1  UNL     1      26.095   5.048  49.522  1.00  0.00     0.144 A 
HETATM   19 CL1  UNL     1      26.094   3.102  49.959  1.00  0.00    -0.186 Cl
ENDBRANCH  11  16
ENDBRANCH   7   9
ENDBRANCH   1   7
BRANCH   5  20
HETATM   20  O1  UNL     1      26.873   1.832  54.187  1.00  0.00    -0.280 OA
BRANCH  20  21
HETATM   21  C15 UNL     1      28.154   1.672  53.671  1.00  0.00     0.407 C 
HETATM   22  F1  UNL     1      28.111   1.457  52.303  1.00  0.00    -0.170 F 
HETATM   23  F2  UNL     1      28.805   2.943  53.745  1.00  0.00    -0.170 F 
BRANCH  21  24
HETATM   24  C16 UNL     1      29.052   0.715  54.369  1.00  0.00     0.367 C 
HETATM   25  F3  UNL     1      28.346  -0.073  55.279  1.00  0.00    -0.218 F 
BRANCH  24  26
HETATM   26  N3  UNL     1      29.856  -0.139  53.573  1.00  0.00    -0.395 N 
HETATM   27  H15 UNL     1      29.341  -0.812  52.995  1.00  0.00     0.152 HD
HETATM   28  H16 UNL     1      30.673  -0.524  54.060  1.00  0.00     0.152 HD
ENDBRANCH  24  26
ENDBRANCH  21  24
ENDBRANCH  20  21
ENDBRANCH   5  20
TORSDOF 7
ENDMDL
MODEL 7
REMARK VINA RESULT:      -7.5      4.472      6.581
REMARK  7 active torsions:
REMARK  status: ('A' for Active; 'I' for Inactive)
REMARK    1  A    between atoms: C3_3  and  C4_5 
REMARK    2  A    between atoms: C9_11  and  N2_12 
REMARK    3  A    between atoms: N2_12  and  C10_13 
REMARK    4  A    between atoms: C14_17  and  O1_18 
REMARK    5  A    between atoms: O1_18  and  C15_19 
REMARK    6  A    between atoms: C15_19  and  C16_22 
REMARK    7  A    between atoms: C16_22  and  N3_23 
ROOT
HETATM    1  C10 UNL     1      24.859   2.699  51.833  1.00  0.00     0.036 A 
HETATM    2  C11 UNL     1      24.162   3.095  52.955  1.00  0.00     0.029 A 
HETATM    3  C12 UNL     1      23.531   4.319  52.943  1.00  0.00     0.005 A 
HETATM    4  C13 UNL     1      23.610   5.107  51.823  1.00  0.00     0.037 A 
HETATM    5  C14 UNL     1      24.288   4.762  50.676  1.00  0.00     0.077 A 
HETATM    6  C17 UNL     1      24.914   3.524  50.719  1.00  0.00     0.066 A 
ENDROOT
BRANCH   1   7
HETATM    7  N2  UNL     1      25.508   1.405  51.898  1.00  0.00    -0.341 N 
HETATM    8  H10 UNL     1      25.326   0.493  51.368  1.00  0.00     0.167 HD
BRANCH   7   9
HETATM    9  C9  UNL     1      26.613   1.236  52.817  1.00  0.00     0.134 A 
HETATM   10  C5  UNL     1      26.399   0.337  53.953  1.00  0.00    -0.007 A 
HETATM   11  C4  UNL     1      25.299  -0.287  54.257  1.00  0.00     0.033 C 
HETATM   12  C6  UNL     1      27.567   0.113  54.877  1.00  0.00     0.071 A 
HETATM   13  C7  UNL     1      28.678   0.930  54.394  1.00  0.00    -0.003 A 
HETATM   14  C8  UNL     1      28.836   1.743  53.371  1.00  0.00     0.115 A 
HETATM   15  N1  UNL     1      27.709   1.894  52.525  1.00  0.00    -0.243 NA
BRANCH  11  16
HETATM   16  C3  UNL     1      23.951  -0.525  53.894  1.00  0.00     0.015 A 
HETATM   17  C2  UNL     1      22.986  -1.015  54.620  1.00  0.00     0.004 A 
HETATM   18  C1  UNL     1      21.586  -1.264  54.280  1.00  0.00     0.144 A 
HETATM   19 CL1  UNL     1      22.626  -0.492  52.764  1.00  0.00    -0.186 Cl
ENDBRANCH  11  16
ENDBRANCH   7   9
ENDBRANCH   1   7
BRANCH   5  20
HETATM   20  O1  UNL     1      24.512   5.341  49.465  1.00  0.00    -0.280 OA
BRANCH  20  21
HETATM   21  C15 UNL     1      25.567   6.142  49.044  1.00  0.00     0.407 C 
HETATM   22  F1  UNL     1      26.596   5.372  48.529  1.00  0.00    -0.170 F 
HETATM   23  F2  UNL     1      25.127   6.852  47.883  1.00  0.00    -0.170 F 
BRANCH  21  24
HETATM   24  C16 UNL     1      26.052   7.178  49.993  1.00  0.00     0.367 C 
HETATM   25  F3  UNL     1      27.203   7.807  49.515  1.00  0.00    -0.218 F 
BRANCH  24  26
HETATM   26  N3  UNL     1      25.138   8.179  50.404  1.00  0.00    -0.395 N 
HETATM   27  H15 UNL     1      25.147   9.038  49.842  1.00  0.00     0.152 HD
HETATM   28  H16 UNL     1      25.101   8.328  51.419  1.00  0.00     0.152 HD
ENDBRANCH  24  26
ENDBRANCH  21  24
ENDBRANCH  20  21
ENDBRANCH   5  20
TORSDOF 7
ENDMDL
MODEL 8
REMARK VINA RESULT:      -7.4      3.290      5.766
REMARK  7 active torsions:
REMARK  status: ('A' for Active; 'I' for Inactive)
REMARK    1  A    between atoms: C3_3  and  C4_5 
REMARK    2  A    between atoms: C9_11  and  N2_12 
REMARK    3  A    between atoms: N2_12  and  C10_13 
REMARK    4  A    between atoms: C14_17  and  O1_18 
REMARK    5  A    between atoms: O1_18  and  C15_19 
REMARK    6  A    between atoms: C15_19  and  C16_22 
REMARK    7  A    between atoms: C16_22  and  N3_23 
ROOT
HETATM    1  C10 UNL     1      23.996   3.061  52.520  1.00  0.00     0.036 A 
HETATM    2  C11 UNL     1      23.629   4.363  52.794  1.00  0.00     0.029 A 
HETATM    3  C12 UNL     1      23.144   5.143  51.767  1.00  0.00     0.005 A 
HETATM    4  C13 UNL     1      23.039   4.610  50.508  1.00  0.00     0.037 A 
HETATM    5  C14 UNL     1      23.388   3.320  50.178  1.00  0.00     0.077 A 
HETATM    6  C17 UNL     1      23.873   2.559  51.233  1.00  0.00     0.066 A 
ENDROOT
BRANCH   1   7
HETATM    7  N2  UNL     1      24.504   2.285  53.633  1.00  0.00    -0.341 N 
HETATM    8  H10 UNL     1      24.162   2.186  54.642  1.00  0.00     0.167 HD
BRANCH   7   9
HETATM    9  C9  UNL     1      25.677   1.465  53.421  1.00  0.00     0.134 A 
HETATM   10  C5  UNL     1      25.463   0.020  53.306  1.00  0.00    -0.007 A 
HETATM   11  C4  UNL     1      24.333  -0.612  53.429  1.00  0.00     0.033 C 
HETATM   12  C6  UNL     1      26.674  -0.830  53.025  1.00  0.00     0.071 A 
HETATM   13  C7  UNL     1      27.834   0.055  52.971  1.00  0.00    -0.003 A 
HETATM   14  C8  UNL     1      27.997   1.356  53.091  1.00  0.00     0.115 A 
HETATM   15  N1  UNL     1      26.817   2.105  53.331  1.00  0.00    -0.243 NA
BRANCH  11  16
HETATM   16  C3  UNL     1      22.944  -0.489  53.671  1.00  0.00     0.015 A 
HETATM   17  C2  UNL     1      21.983  -0.269  52.818  1.00  0.00     0.004 A 
HETATM   18  C1  UNL     1      20.542  -0.148  53.033  1.00  0.00     0.144 A 
HETATM   19 CL1  UNL     1      21.552  -0.489  54.719  1.00  0.00    -0.186 Cl
ENDBRANCH  11  16
ENDBRANCH   7   9
ENDBRANCH   1   7
BRANCH   5  20
HETATM   20  O1  UNL     1      23.379   2.568  49.043  1.00  0.00    -0.280 OA
BRANCH  20  21
HETATM   21  C15 UNL     1      22.343   2.319  48.150  1.00  0.00     0.407 C 
HETATM   22  F1  UNL     1      21.880   3.500  47.593  1.00  0.00    -0.170 F 
HETATM   23  F2  UNL     1      22.908   1.664  47.013  1.00  0.00    -0.170 F 
BRANCH  21  24
HETATM   24  C16 UNL     1      21.240   1.440  48.619  1.00  0.00     0.367 C 
HETATM   25  F3  UNL     1      21.694   0.510  49.555  1.00  0.00    -0.218 F 
BRANCH  24  26
HETATM   26  N3  UNL     1      20.075   2.059  49.137  1.00  0.00    -0.395 N 
HETATM   27  H15 UNL     1      19.498   2.553  48.448  1.00  0.00     0.152 HD
HETATM   28  H16 UNL     1      20.222   2.564  50.019  1.00  0.00     0.152 HD
ENDBRANCH  24  26
ENDBRANCH  21  24
ENDBRANCH  20  21
ENDBRANCH   5  20
TORSDOF 7
ENDMDL
MODEL 9
REMARK VINA RESULT:      -7.2      5.119      7.236
REMARK  7 active torsions:
REMARK  status: ('A' for Active; 'I' for Inactive)
REMARK    1  A    between atoms: C3_3  and  C4_5 
REMARK    2  A    between atoms: C9_11  and  N2_12 
REMARK    3  A    between atoms: N2_12  and  C10_13 
REMARK    4  A    between atoms: C14_17  and  O1_18 
REMARK    5  A    between atoms: O1_18  and  C15_19 
REMARK    6  A    between atoms: C15_19  and  C16_22 
REMARK    7  A    between atoms: C16_22  and  N3_23 
ROOT
HETATM    1  C10 UNL     1      26.478   4.058  49.352  1.00  0.00     0.036 A 
HETATM    2  C11 UNL     1      27.698   4.419  48.817  1.00  0.00     0.029 A 
HETATM    3  C12 UNL     1      27.864   5.709  48.363  1.00  0.00     0.005 A 
HETATM    4  C13 UNL     1      26.821   6.594  48.453  1.00  0.00     0.037 A 
HETATM    5  C14 UNL     1      25.585   6.290  48.978  1.00  0.00     0.077 A 
HETATM    6  C17 UNL     1      25.449   4.984  49.427  1.00  0.00     0.066 A 
ENDROOT
BRANCH   1   7
HETATM    7  N2  UNL     1      26.354   2.689  49.811  1.00  0.00    -0.341 N 
HETATM    8  H10 UNL     1      26.245   1.769  49.276  1.00  0.00     0.167 HD
BRANCH   7   9
HETATM    9  C9  UNL     1      26.380   2.438  51.236  1.00  0.00     0.134 A 
HETATM   10  C5  UNL     1      25.113   2.056  51.864  1.00  0.00    -0.007 A 
HETATM   11  C4  UNL     1      23.951   1.972  51.287  1.00  0.00     0.033 C 
HETATM   12  C6  UNL     1      25.149   1.735  53.335  1.00  0.00     0.071 A 
HETATM   13  C7  UNL     1      26.520   1.933  53.799  1.00  0.00    -0.003 A 
HETATM   14  C8  UNL     1      27.641   2.291  53.209  1.00  0.00     0.115 A 
HETATM   15  N1  UNL     1      27.548   2.557  51.820  1.00  0.00    -0.243 NA
BRANCH  11  16
HETATM   16  C3  UNL     1      23.235   2.113  50.074  1.00  0.00     0.015 A 
HETATM   17  C2  UNL     1      22.122   1.539  49.711  1.00  0.00     0.004 A 
HETATM   18  C1  UNL     1      21.354   1.672  48.474  1.00  0.00     0.144 A 
HETATM   19 CL1  UNL     1      22.999   2.799  48.490  1.00  0.00    -0.186 Cl
ENDBRANCH  11  16
ENDBRANCH   7   9
ENDBRANCH   1   7
BRANCH   5  20
HETATM   20  O1  UNL     1      24.420   6.963  49.180  1.00  0.00    -0.280 OA
BRANCH  20  21
HETATM   21  C15 UNL     1      23.784   7.301  50.370  1.00  0.00     0.407 C 
HETATM   22  F1  UNL     1      24.693   7.368  51.412  1.00  0.00    -0.170 F 
HETATM   23  F2  UNL     1      23.367   8.664  50.259  1.00  0.00    -0.170 F 
BRANCH  21  24
HETATM   24  C16 UNL     1      22.563   6.532  50.728  1.00  0.00     0.367 C 
HETATM   25  F3  UNL     1      22.855   5.505  51.627  1.00  0.00    -0.218 F 
BRANCH  24  26
HETATM   26  N3  UNL     1      21.449   7.253  51.224  1.00  0.00    -0.395 N 
HETATM   27  H15 UNL     1      20.745   6.689  51.712  1.00  0.00     0.152 HD
HETATM   28  H16 UNL     1      21.069   7.947  50.570  1.00  0.00     0.152 HD
ENDBRANCH  24  26
ENDBRANCH  21  24
ENDBRANCH  20  21
ENDBRANCH   5  20
TORSDOF 7
ENDMDL
