MODEL 1
REMARK VINA RESULT:      -8.0      0.000      0.000
REMARK  7 active torsions:
REMARK  status: ('A' for Active; 'I' for Inactive)
REMARK    1  A    between atoms: O1_2  and  C2_3 
REMARK    2  A    between atoms: C6_8  and  N2_10 
REMARK    3  A    between atoms: N2_10  and  C7_11 
REMARK    4  A    between atoms: C15_20  and  O2_21 
REMARK    5  A    between atoms: O2_21  and  C16_22 
REMARK    6  A    between atoms: C16_22  and  C17_23 
REMARK    7  A    between atoms: C17_23  and  N3_24 
ROOT
HETATM    1  C2  UNL     1      19.306  -0.173  52.402  1.00  0.00     0.118 C 
HETATM    2  C3  UNL     1      19.775  -0.669  53.535  1.00  0.00     0.155 C 
HETATM    3  N1  UNL     1      21.022  -0.707  54.217  1.00  0.00    -0.270 NA
HETATM    4  C4  UNL     1      22.216  -0.262  54.029  1.00  0.00     0.127 C 
HETATM    5  C5  UNL     1      22.755   0.521  52.926  1.00  0.00     0.002 C 
HETATM    6  C6  UNL     1      24.096   0.451  52.969  1.00  0.00     0.112 C 
HETATM    7 CL1  UNL     1      25.181   1.254  51.818  1.00  0.00    -0.064 Cl
HETATM    8  C13 UNL     1      22.432   1.364  51.776  1.00  0.00     0.073 C 
HETATM    9  C14 UNL     1      21.103   1.130  51.172  1.00  0.00     0.018 C 
HETATM   10  C15 UNL     1      19.905   0.589  51.312  1.00  0.00     0.100 C 
ENDROOT
BRANCH   6  11
HETATM   11  N2  UNL     1      25.103  -0.154  53.764  1.00  0.00    -0.346 N 
HETATM   12  H6  UNL     1      24.955  -0.553  54.729  1.00  0.00     0.167 HD
BRANCH  11  13
HETATM   13  C7  UNL     1      26.480  -0.459  53.702  1.00  0.00     0.033 A 
HETATM   14  C8  UNL     1      27.156  -1.353  52.920  1.00  0.00     0.032 A 
HETATM   15  C9  UNL     1      28.521  -1.520  53.010  1.00  0.00     0.044 A 
HETATM   16  C10 UNL     1      29.248  -0.765  53.918  1.00  0.00     0.116 A 
HETATM   17  F1  UNL     1      30.566  -1.027  53.903  1.00  0.00    -0.206 F 
HETATM   18  C11 UNL     1      28.605   0.148  54.725  1.00  0.00     0.044 A 
HETATM   19  C12 UNL     1      27.231   0.293  54.611  1.00  0.00     0.032 A 
ENDBRANCH  11  13
ENDBRANCH   6  11
BRANCH  10  20
HETATM   20  O2  UNL     1      19.013   0.741  50.265  1.00  0.00    -0.347 OA
BRANCH  20  21
HETATM   21  C16 UNL     1      18.712   2.067  49.826  1.00  0.00     0.196 C 
BRANCH  21  22
HETATM   22  C17 UNL     1      17.218   2.176  49.701  1.00  0.00     0.156 C 
BRANCH  22  23
HETATM   23  N3  UNL     1      16.691   2.879  50.846  1.00  0.00    -0.348 N 
HETATM   24  C18 UNL     1      15.641   2.408  51.545  1.00  0.00     0.111 A 
HETATM   25  C19 UNL     1      15.356   3.271  52.573  1.00  0.00     0.135 A 
HETATM   26  N4  UNL     1      16.255   4.284  52.492  1.00  0.00    -0.255 NA
HETATM   27  C20 UNL     1      17.062   4.028  51.432  1.00  0.00     0.209 A 
ENDBRANCH  22  23
ENDBRANCH  21  22
ENDBRANCH  20  21
ENDBRANCH  10  20
BRANCH   1  28
HETATM   28  O1  UNL     1      17.960  -0.407  52.165  1.00  0.00    -0.352 OA
HETATM   29  C1  UNL     1      17.292  -1.275  53.060  1.00  0.00     0.210 C 
ENDBRANCH   1  28
TORSDOF 7
ENDMDL
MODEL 2
REMARK VINA RESULT:      -8.0      4.676      9.384
REMARK  7 active torsions:
REMARK  status: ('A' for Active; 'I' for Inactive)
REMARK    1  A    between atoms: O1_2  and  C2_3 
REMARK    2  A    between atoms: C6_8  and  N2_10 
REMARK    3  A    between atoms: N2_10  and  C7_11 
REMARK    4  A    between atoms: C15_20  and  O2_21 
REMARK    5  A    between atoms: O2_21  and  C16_22 
REMARK    6  A    between atoms: C16_22  and  C17_23 
REMARK    7  A    between atoms: C17_23  and  N3_24 
ROOT
HETATM    1  C2  UNL     1      23.935  -0.605  54.515  1.00  0.00     0.118 C 
HETATM    2  C3  UNL     1      23.108  -1.462  55.090  1.00  0.00     0.155 C 
HETATM    3  N1  UNL     1      21.757  -1.874  54.926  1.00  0.00    -0.270 NA
HETATM    4  C4  UNL     1      20.774  -1.599  54.139  1.00  0.00     0.127 C 
HETATM    5  C5  UNL     1      20.706  -0.666  53.024  1.00  0.00     0.002 C 
HETATM    6  C6  UNL     1      19.414  -0.448  52.730  1.00  0.00     0.112 C 
HETATM    7 CL1  UNL     1      18.846   0.624  51.435  1.00  0.00    -0.064 Cl
HETATM    8  C13 UNL     1      21.478   0.141  52.080  1.00  0.00     0.073 C 
HETATM    9  C14 UNL     1      22.827   0.536  52.538  1.00  0.00     0.018 C 
HETATM   10  C15 UNL     1      23.802   0.332  53.406  1.00  0.00     0.100 C 
ENDROOT
BRANCH   6  11
HETATM   11  N2  UNL     1      18.136  -0.858  53.188  1.00  0.00    -0.346 N 
HETATM   12  H6  UNL     1      17.482  -0.268  53.767  1.00  0.00     0.167 HD
BRANCH  11  13
HETATM   13  C7  UNL     1      17.287  -1.985  53.131  1.00  0.00     0.033 A 
HETATM   14  C8  UNL     1      17.445  -3.241  53.646  1.00  0.00     0.032 A 
HETATM   15  C9  UNL     1      16.496  -4.227  53.477  1.00  0.00     0.044 A 
HETATM   16  C10 UNL     1      15.339  -3.953  52.762  1.00  0.00     0.116 A 
HETATM   17  F1  UNL     1      14.502  -5.001  52.672  1.00  0.00    -0.206 F 
HETATM   18  C11 UNL     1      15.142  -2.700  52.226  1.00  0.00     0.044 A 
HETATM   19  C12 UNL     1      16.113  -1.729  52.414  1.00  0.00     0.032 A 
ENDBRANCH  11  13
ENDBRANCH   6  11
BRANCH  10  20
HETATM   20  O2  UNL     1      24.932   1.123  53.288  1.00  0.00    -0.347 OA
BRANCH  20  21
HETATM   21  C16 UNL     1      25.502   1.290  51.989  1.00  0.00     0.196 C 
BRANCH  21  22
HETATM   22  C17 UNL     1      26.797   0.527  51.959  1.00  0.00     0.156 C 
BRANCH  22  23
HETATM   23  N3  UNL     1      27.702   1.081  52.939  1.00  0.00    -0.348 N 
HETATM   24  C18 UNL     1      28.379   0.298  53.799  1.00  0.00     0.111 A 
HETATM   25  C19 UNL     1      29.159   1.083  54.611  1.00  0.00     0.135 A 
HETATM   26  N4  UNL     1      28.945   2.368  54.230  1.00  0.00    -0.255 NA
HETATM   27  C20 UNL     1      28.053   2.347  53.208  1.00  0.00     0.209 A 
ENDBRANCH  22  23
ENDBRANCH  21  22
ENDBRANCH  20  21
ENDBRANCH  10  20
BRANCH   1  28
HETATM   28  O1  UNL     1      25.211  -0.560  55.056  1.00  0.00    -0.352 OA
HETATM   29  C1  UNL     1      25.336  -0.856  56.434  1.00  0.00     0.210 C 
ENDBRANCH   1  28
TORSDOF 7
ENDMDL
MODEL 3
REMARK VINA RESULT:      -7.9      2.309      3.345
REMARK  7 active torsions:
REMARK  status: ('A' for Active; 'I' for Inactive)
REMARK    1  A    between atoms: O1_2  and  C2_3 
REMARK    2  A    between atoms: C6_8  and  N2_10 
REMARK    3  A    between atoms: N2_10  and  C7_11 
REMARK    4  A    between atoms: C15_20  and  O2_21 
REMARK    5  A    between atoms: O2_21  and  C16_22 
REMARK    6  A    between atoms: C16_22  and  C17_23 
REMARK    7  A    between atoms: C17_23  and  N3_24 
ROOT
HETATM    1  C2  UNL     1      21.874   4.293  51.995  1.00  0.00     0.118 C 
HETATM    2  C3  UNL     1      23.187   4.232  52.144  1.00  0.00     0.155 C 
HETATM    3  N1  UNL     1      24.150   3.248  52.497  1.00  0.00    -0.270 NA
HETATM    4  C4  UNL     1      24.153   1.997  52.806  1.00  0.00     0.127 C 
HETATM    5  C5  UNL     1      23.043   1.060  52.910  1.00  0.00     0.002 C 
HETATM    6  C6  UNL     1      23.458  -0.018  53.594  1.00  0.00     0.112 C 
HETATM    7 CL1  UNL     1      22.442  -1.424  53.966  1.00  0.00    -0.064 Cl
HETATM    8  C13 UNL     1      21.643   0.809  52.569  1.00  0.00     0.073 C 
HETATM    9  C14 UNL     1      20.816   2.015  52.355  1.00  0.00     0.018 C 
HETATM   10  C15 UNL     1      20.799   3.319  52.139  1.00  0.00     0.100 C 
ENDROOT
BRANCH   6  11
HETATM   11  N2  UNL     1      24.639  -0.485  54.226  1.00  0.00    -0.346 N 
HETATM   12  H6  UNL     1      24.681  -0.925  55.184  1.00  0.00     0.167 HD
BRANCH  11  13
HETATM   13  C7  UNL     1      26.025  -0.579  53.974  1.00  0.00     0.033 A 
HETATM   14  C8  UNL     1      26.708  -1.277  53.018  1.00  0.00     0.032 A 
HETATM   15  C9  UNL     1      28.083  -1.253  52.935  1.00  0.00     0.044 A 
HETATM   16  C10 UNL     1      28.815  -0.501  53.843  1.00  0.00     0.116 A 
HETATM   17  F1  UNL     1      30.143  -0.567  53.649  1.00  0.00    -0.206 F 
HETATM   18  C11 UNL     1      28.165   0.217  54.823  1.00  0.00     0.044 A 
HETATM   19  C12 UNL     1      26.781   0.173  54.881  1.00  0.00     0.032 A 
ENDBRANCH  11  13
ENDBRANCH   6  11
BRANCH  10  20
HETATM   20  O2  UNL     1      19.561   3.925  52.017  1.00  0.00    -0.347 OA
BRANCH  20  21
HETATM   21  C16 UNL     1      18.493   3.165  51.448  1.00  0.00     0.196 C 
BRANCH  21  22
HETATM   22  C17 UNL     1      17.300   4.072  51.334  1.00  0.00     0.156 C 
BRANCH  22  23
HETATM   23  N3  UNL     1      16.163   3.450  51.970  1.00  0.00    -0.348 N 
HETATM   24  C18 UNL     1      15.860   2.154  51.768  1.00  0.00     0.111 A 
HETATM   25  C19 UNL     1      14.739   1.831  52.491  1.00  0.00     0.135 A 
HETATM   26  N4  UNL     1      14.360   2.959  53.144  1.00  0.00    -0.255 NA
HETATM   27  C20 UNL     1      15.241   3.937  52.814  1.00  0.00     0.209 A 
ENDBRANCH  22  23
ENDBRANCH  21  22
ENDBRANCH  20  21
ENDBRANCH  10  20
BRANCH   1  28
HETATM   28  O1  UNL     1      21.376   5.533  51.623  1.00  0.00    -0.352 OA
HETATM   29  C1  UNL     1      22.243   6.380  50.892  1.00  0.00     0.210 C 
ENDBRANCH   1  28
TORSDOF 7
ENDMDL
MODEL 4
REMARK VINA RESULT:      -7.8      6.317      9.402
REMARK  7 active torsions:
REMARK  status: ('A' for Active; 'I' for Inactive)
REMARK    1  A    between atoms: O1_2  and  C2_3 
REMARK    2  A    between atoms: C6_8  and  N2_10 
REMARK    3  A    between atoms: N2_10  and  C7_11 
REMARK    4  A    between atoms: C15_20  and  O2_21 
REMARK    5  A    between atoms: O2_21  and  C16_22 
REMARK    6  A    between atoms: C16_22  and  C17_23 
REMARK    7  A    between atoms: C17_23  and  N3_24 
ROOT
HETATM    1  C2  UNL     1      25.021   5.461  50.205  1.00  0.00     0.118 C 
HETATM    2  C3  UNL     1      24.128   5.314  51.168  1.00  0.00     0.155 C 
HETATM    3  N1  UNL     1      23.798   4.330  52.140  1.00  0.00    -0.270 NA
HETATM    4  C4  UNL     1      24.238   3.174  52.502  1.00  0.00     0.127 C 
HETATM    5  C5  UNL     1      25.352   2.395  51.978  1.00  0.00     0.002 C 
HETATM    6  C6  UNL     1      25.222   1.128  52.405  1.00  0.00     0.112 C 
HETATM    7 CL1  UNL     1      26.352  -0.183  52.014  1.00  0.00    -0.064 Cl
HETATM    8  C13 UNL     1      26.569   2.428  51.169  1.00  0.00     0.073 C 
HETATM    9  C14 UNL     1      26.620   3.491  50.143  1.00  0.00     0.018 C 
HETATM   10  C15 UNL     1      26.108   4.627  49.703  1.00  0.00     0.100 C 
ENDROOT
BRANCH   6  11
HETATM   11  N2  UNL     1      24.332   0.359  53.197  1.00  0.00    -0.346 N 
HETATM   12  H6  UNL     1      24.602  -0.177  54.064  1.00  0.00     0.167 HD
BRANCH  11  13
HETATM   13  C7  UNL     1      22.969  -0.005  53.232  1.00  0.00     0.033 A 
HETATM   14  C8  UNL     1      21.938   0.336  52.401  1.00  0.00     0.032 A 
HETATM   15  C9  UNL     1      20.652  -0.117  52.604  1.00  0.00     0.044 A 
HETATM   16  C10 UNL     1      20.377  -0.945  53.682  1.00  0.00     0.116 A 
HETATM   17  F1  UNL     1      19.086  -1.312  53.763  1.00  0.00    -0.206 F 
HETATM   18  C11 UNL     1      21.387  -1.312  54.543  1.00  0.00     0.044 A 
HETATM   19  C12 UNL     1      22.670  -0.841  54.312  1.00  0.00     0.032 A 
ENDBRANCH  11  13
ENDBRANCH   6  11
BRANCH  10  20
HETATM   20  O2  UNL     1      26.665   5.174  48.561  1.00  0.00    -0.347 OA
BRANCH  20  21
HETATM   21  C16 UNL     1      28.090   5.240  48.474  1.00  0.00     0.196 C 
BRANCH  21  22
HETATM   22  C17 UNL     1      28.451   6.609  47.966  1.00  0.00     0.156 C 
BRANCH  22  23
HETATM   23  N3  UNL     1      29.720   7.007  48.525  1.00  0.00    -0.348 N 
HETATM   24  C18 UNL     1      30.685   6.110  48.802  1.00  0.00     0.111 A 
HETATM   25  C19 UNL     1      31.776   6.761  49.321  1.00  0.00     0.135 A 
HETATM   26  N4  UNL     1      31.461   8.081  49.357  1.00  0.00    -0.255 NA
HETATM   27  C20 UNL     1      30.202   8.212  48.867  1.00  0.00     0.209 A 
ENDBRANCH  22  23
ENDBRANCH  21  22
ENDBRANCH  20  21
ENDBRANCH  10  20
BRANCH   1  28
HETATM   28  O1  UNL     1      24.938   6.650  49.496  1.00  0.00    -0.352 OA
HETATM   29  C1  UNL     1      24.651   7.821  50.238  1.00  0.00     0.210 C 
ENDBRANCH   1  28
TORSDOF 7
ENDMDL
MODEL 5
REMARK VINA RESULT:      -7.8      1.702      2.383
REMARK  7 active torsions:
REMARK  status: ('A' for Active; 'I' for Inactive)
REMARK    1  A    between atoms: O1_2  and  C2_3 
REMARK    2  A    between atoms: C6_8  and  N2_10 
REMARK    3  A    between atoms: N2_10  and  C7_11 
REMARK    4  A    between atoms: C15_20  and  O2_21 
REMARK    5  A    between atoms: O2_21  and  C16_22 
REMARK    6  A    between atoms: C16_22  and  C17_23 
REMARK    7  A    between atoms: C17_23  and  N3_24 
ROOT
HETATM    1  C2  UNL     1      19.561  -0.677  53.375  1.00  0.00     0.118 C 
HETATM    2  C3  UNL     1      20.231  -1.439  54.224  1.00  0.00     0.155 C 
HETATM    3  N1  UNL     1      21.583  -1.605  54.629  1.00  0.00    -0.270 NA
HETATM    4  C4  UNL     1      22.724  -1.074  54.352  1.00  0.00     0.127 C 
HETATM    5  C5  UNL     1      23.052  -0.000  53.424  1.00  0.00     0.002 C 
HETATM    6  C6  UNL     1      24.377  -0.022  53.200  1.00  0.00     0.112 C 
HETATM    7 CL1  UNL     1      25.232   1.107  52.131  1.00  0.00    -0.064 Cl
HETATM    8  C13 UNL     1      22.525   1.106  52.628  1.00  0.00     0.073 C 
HETATM    9  C14 UNL     1      21.104   0.986  52.238  1.00  0.00     0.018 C 
HETATM   10  C15 UNL     1      19.950   0.375  52.443  1.00  0.00     0.100 C 
ENDROOT
BRANCH   6  11
HETATM   11  N2  UNL     1      25.510  -0.774  53.600  1.00  0.00    -0.346 N 
HETATM   12  H6  UNL     1      25.486  -1.776  53.929  1.00  0.00     0.167 HD
BRANCH  11  13
HETATM   13  C7  UNL     1      26.906  -0.619  53.740  1.00  0.00     0.033 A 
HETATM   14  C8  UNL     1      27.630   0.322  54.415  1.00  0.00     0.032 A 
HETATM   15  C9  UNL     1      29.009   0.316  54.429  1.00  0.00     0.044 A 
HETATM   16  C10 UNL     1      29.699  -0.670  53.740  1.00  0.00     0.116 A 
HETATM   17  F1  UNL     1      31.035  -0.558  53.836  1.00  0.00    -0.206 F 
HETATM   18  C11 UNL     1      29.007  -1.638  53.047  1.00  0.00     0.044 A 
HETATM   19  C12 UNL     1      27.621  -1.605  53.052  1.00  0.00     0.032 A 
ENDBRANCH  11  13
ENDBRANCH   6  11
BRANCH  10  20
HETATM   20  O2  UNL     1      18.877   0.765  51.660  1.00  0.00    -0.347 OA
BRANCH  20  21
HETATM   21  C16 UNL     1      19.069   0.834  50.246  1.00  0.00     0.196 C 
BRANCH  21  22
HETATM   22  C17 UNL     1      18.535   2.159  49.779  1.00  0.00     0.156 C 
BRANCH  22  23
HETATM   23  N3  UNL     1      19.532   3.180  49.996  1.00  0.00    -0.348 N 
HETATM   24  C18 UNL     1      20.654   3.242  49.255  1.00  0.00     0.111 A 
HETATM   25  C19 UNL     1      21.417   4.303  49.674  1.00  0.00     0.135 A 
HETATM   26  N4  UNL     1      20.738   4.893  50.691  1.00  0.00    -0.255 NA
HETATM   27  C20 UNL     1      19.590   4.194  50.873  1.00  0.00     0.209 A 
ENDBRANCH  22  23
ENDBRANCH  21  22
ENDBRANCH  20  21
ENDBRANCH  10  20
BRANCH   1  28
HETATM   28  O1  UNL     1      18.192  -0.897  53.335  1.00  0.00    -0.352 OA
HETATM   29  C1  UNL     1      17.749  -2.227  53.529  1.00  0.00     0.210 C 
ENDBRANCH   1  28
TORSDOF 7
ENDMDL
MODEL 6
REMARK VINA RESULT:      -7.8      6.180      8.330
REMARK  7 active torsions:
REMARK  status: ('A' for Active; 'I' for Inactive)
REMARK    1  A    between atoms: O1_2  and  C2_3 
REMARK    2  A    between atoms: C6_8  and  N2_10 
REMARK    3  A    between atoms: N2_10  and  C7_11 
REMARK    4  A    between atoms: C15_20  and  O2_21 
REMARK    5  A    between atoms: O2_21  and  C16_22 
REMARK    6  A    between atoms: C16_22  and  C17_23 
REMARK    7  A    between atoms: C17_23  and  N3_24 
ROOT
HETATM    1  C2  UNL     1      24.546   5.522  50.584  1.00  0.00     0.118 C 
HETATM    2  C3  UNL     1      23.775   5.223  51.616  1.00  0.00     0.155 C 
HETATM    3  N1  UNL     1      23.640   4.148  52.537  1.00  0.00    -0.270 NA
HETATM    4  C4  UNL     1      24.219   3.019  52.763  1.00  0.00     0.127 C 
HETATM    5  C5  UNL     1      25.338   2.391  52.075  1.00  0.00     0.002 C 
HETATM    6  C6  UNL     1      25.369   1.091  52.412  1.00  0.00     0.112 C 
HETATM    7 CL1  UNL     1      26.566  -0.073  51.813  1.00  0.00    -0.064 Cl
HETATM    8  C13 UNL     1      26.455   2.597  51.155  1.00  0.00     0.073 C 
HETATM    9  C14 UNL     1      26.302   3.727  50.214  1.00  0.00     0.018 C 
HETATM   10  C15 UNL     1      25.645   4.835  49.916  1.00  0.00     0.100 C 
ENDROOT
BRANCH   6  11
HETATM   11  N2  UNL     1      24.641   0.187  53.226  1.00  0.00    -0.346 N 
HETATM   12  H6  UNL     1      25.067  -0.480  53.923  1.00  0.00     0.167 HD
BRANCH  11  13
HETATM   13  C7  UNL     1      23.305  -0.202  53.467  1.00  0.00     0.033 A 
HETATM   14  C8  UNL     1      22.755  -0.881  54.518  1.00  0.00     0.032 A 
HETATM   15  C9  UNL     1      21.411  -1.182  54.574  1.00  0.00     0.044 A 
HETATM   16  C10 UNL     1      20.575  -0.792  53.538  1.00  0.00     0.116 A 
HETATM   17  F1  UNL     1      19.293  -1.150  53.718  1.00  0.00    -0.206 F 
HETATM   18  C11 UNL     1      21.090  -0.107  52.460  1.00  0.00     0.044 A 
HETATM   19  C12 UNL     1      22.446   0.182  52.433  1.00  0.00     0.032 A 
ENDBRANCH  11  13
ENDBRANCH   6  11
BRANCH  10  20
HETATM   20  O2  UNL     1      26.028   5.510  48.770  1.00  0.00    -0.347 OA
BRANCH  20  21
HETATM   21  C16 UNL     1      27.414   5.808  48.597  1.00  0.00     0.196 C 
BRANCH  21  22
HETATM   22  C17 UNL     1      27.511   7.038  47.737  1.00  0.00     0.156 C 
BRANCH  22  23
HETATM   23  N3  UNL     1      27.045   8.182  48.483  1.00  0.00    -0.348 N 
HETATM   24  C18 UNL     1      26.154   9.049  47.966  1.00  0.00     0.111 A 
HETATM   25  C19 UNL     1      25.892  10.033  48.887  1.00  0.00     0.135 A 
HETATM   26  N4  UNL     1      26.641   9.750  49.983  1.00  0.00    -0.255 NA
HETATM   27  C20 UNL     1      27.338   8.617  49.718  1.00  0.00     0.209 A 
ENDBRANCH  22  23
ENDBRANCH  21  22
ENDBRANCH  20  21
ENDBRANCH  10  20
BRANCH   1  28
HETATM   28  O1  UNL     1      24.281   6.743  49.981  1.00  0.00    -0.352 OA
HETATM   29  C1  UNL     1      23.739   7.760  50.802  1.00  0.00     0.210 C 
ENDBRANCH   1  28
TORSDOF 7
ENDMDL
MODEL 7
REMARK VINA RESULT:      -7.8      4.346      9.141
REMARK  7 active torsions:
REMARK  status: ('A' for Active; 'I' for Inactive)
REMARK    1  A    between atoms: O1_2  and  C2_3 
REMARK    2  A    between atoms: C6_8  and  N2_10 
REMARK    3  A    between atoms: N2_10  and  C7_11 
REMARK    4  A    between atoms: C15_20  and  O2_21 
REMARK    5  A    between atoms: O2_21  and  C16_22 
REMARK    6  A    between atoms: C16_22  and  C17_23 
REMARK    7  A    between atoms: C17_23  and  N3_24 
ROOT
HETATM    1  C2  UNL     1      22.904   3.403  51.717  1.00  0.00     0.118 C 
HETATM    2  C3  UNL     1      21.607   3.569  51.913  1.00  0.00     0.155 C 
HETATM    3  N1  UNL     1      20.541   2.835  52.501  1.00  0.00    -0.270 NA
HETATM    4  C4  UNL     1      20.390   1.706  53.104  1.00  0.00     0.127 C 
HETATM    5  C5  UNL     1      21.375   0.683  53.425  1.00  0.00     0.002 C 
HETATM    6  C6  UNL     1      20.726  -0.454  53.725  1.00  0.00     0.112 C 
HETATM    7 CL1  UNL     1      21.520  -1.974  54.181  1.00  0.00    -0.064 Cl
HETATM    8  C13 UNL     1      22.800   0.382  53.557  1.00  0.00     0.073 C 
HETATM    9  C14 UNL     1      23.704   1.227  52.749  1.00  0.00     0.018 C 
HETATM   10  C15 UNL     1      23.842   2.335  52.041  1.00  0.00     0.100 C 
ENDROOT
BRANCH   6  11
HETATM   11  N2  UNL     1      19.390  -0.922  53.814  1.00  0.00    -0.346 N 
HETATM   12  H6  UNL     1      18.948  -1.333  54.679  1.00  0.00     0.167 HD
BRANCH  11  13
HETATM   13  C7  UNL     1      18.245  -1.058  53.000  1.00  0.00     0.033 A 
HETATM   14  C8  UNL     1      17.810  -0.303  51.947  1.00  0.00     0.032 A 
HETATM   15  C9  UNL     1      16.644  -0.589  51.271  1.00  0.00     0.044 A 
HETATM   16  C10 UNL     1      15.873  -1.674  51.659  1.00  0.00     0.116 A 
HETATM   17  F1  UNL     1      14.764  -1.839  50.918  1.00  0.00    -0.206 F 
HETATM   18  C11 UNL     1      16.274  -2.461  52.716  1.00  0.00     0.044 A 
HETATM   19  C12 UNL     1      17.453  -2.148  53.376  1.00  0.00     0.032 A 
ENDBRANCH  11  13
ENDBRANCH   6  11
BRANCH  10  20
HETATM   20  O2  UNL     1      25.084   2.579  51.480  1.00  0.00    -0.347 OA
BRANCH  20  21
HETATM   21  C16 UNL     1      26.076   1.554  51.573  1.00  0.00     0.196 C 
BRANCH  21  22
HETATM   22  C17 UNL     1      27.241   2.118  52.337  1.00  0.00     0.156 C 
BRANCH  22  23
HETATM   23  N3  UNL     1      27.645   1.178  53.355  1.00  0.00    -0.348 N 
HETATM   24  C18 UNL     1      28.937   0.843  53.537  1.00  0.00     0.111 A 
HETATM   25  C19 UNL     1      29.031  -0.063  54.564  1.00  0.00     0.135 A 
HETATM   26  N4  UNL     1      27.767  -0.278  55.010  1.00  0.00    -0.255 NA
HETATM   27  C20 UNL     1      26.935   0.488  54.261  1.00  0.00     0.209 A 
ENDBRANCH  22  23
ENDBRANCH  21  22
ENDBRANCH  20  21
ENDBRANCH  10  20
BRANCH   1  28
HETATM   28  O1  UNL     1      23.544   4.448  51.068  1.00  0.00    -0.352 OA
HETATM   29  C1  UNL     1      23.297   5.754  51.555  1.00  0.00     0.210 C 
ENDBRANCH   1  28
TORSDOF 7
ENDMDL
MODEL 8
REMARK VINA RESULT:      -7.7      4.570      9.826
REMARK  7 active torsions:
REMARK  status: ('A' for Active; 'I' for Inactive)
REMARK    1  A    between atoms: O1_2  and  C2_3 
REMARK    2  A    between atoms: C6_8  and  N2_10 
REMARK    3  A    between atoms: N2_10  and  C7_11 
REMARK    4  A    between atoms: C15_20  and  O2_21 
REMARK    5  A    between atoms: O2_21  and  C16_22 
REMARK    6  A    between atoms: C16_22  and  C17_23 
REMARK    7  A    between atoms: C17_23  and  N3_24 
ROOT
HETATM    1  C2  UNL     1      25.986   3.036  50.491  1.00  0.00     0.118 C 
HETATM    2  C3  UNL     1      24.946   3.254  49.704  1.00  0.00     0.155 C 
HETATM    3  N1  UNL     1      23.572   2.891  49.670  1.00  0.00    -0.270 NA
HETATM    4  C4  UNL     1      22.757   2.211  50.400  1.00  0.00     0.127 C 
HETATM    5  C5  UNL     1      22.993   1.502  51.650  1.00  0.00     0.002 C 
HETATM    6  C6  UNL     1      21.972   0.655  51.859  1.00  0.00     0.112 C 
HETATM    7 CL1  UNL     1      21.831  -0.421  53.263  1.00  0.00    -0.064 Cl
HETATM    8  C13 UNL     1      23.898   1.333  52.786  1.00  0.00     0.073 C 
HETATM    9  C14 UNL     1      25.312   1.680  52.528  1.00  0.00     0.018 C 
HETATM   10  C15 UNL     1      26.172   2.289  51.730  1.00  0.00     0.100 C 
ENDROOT
BRANCH   6  11
HETATM   11  N2  UNL     1      20.766   0.268  51.222  1.00  0.00    -0.346 N 
HETATM   12  H6  UNL     1      20.703  -0.300  50.335  1.00  0.00     0.167 HD
BRANCH  11  13
HETATM   13  C7  UNL     1      19.371   0.407  51.391  1.00  0.00     0.033 A 
HETATM   14  C8  UNL     1      18.446  -0.468  51.887  1.00  0.00     0.032 A 
HETATM   15  C9  UNL     1      17.107  -0.152  51.966  1.00  0.00     0.044 A 
HETATM   16  C10 UNL     1      16.665   1.089  51.531  1.00  0.00     0.116 A 
HETATM   17  F1  UNL     1      15.340   1.266  51.664  1.00  0.00    -0.206 F 
HETATM   18  C11 UNL     1      17.565   2.000  51.024  1.00  0.00     0.044 A 
HETATM   19  C12 UNL     1      18.906   1.654  50.958  1.00  0.00     0.032 A 
ENDBRANCH  11  13
ENDBRANCH   6  11
BRANCH  10  20
HETATM   20  O2  UNL     1      27.509   2.244  52.086  1.00  0.00    -0.347 OA
BRANCH  20  21
HETATM   21  C16 UNL     1      27.832   2.179  53.476  1.00  0.00     0.196 C 
BRANCH  21  22
HETATM   22  C17 UNL     1      29.136   1.441  53.605  1.00  0.00     0.156 C 
BRANCH  22  23
HETATM   23  N3  UNL     1      28.895   0.022  53.500  1.00  0.00    -0.348 N 
HETATM   24  C18 UNL     1      29.907  -0.866  53.453  1.00  0.00     0.111 A 
HETATM   25  C19 UNL     1      29.393  -2.135  53.354  1.00  0.00     0.135 A 
HETATM   26  N4  UNL     1      28.042  -2.007  53.342  1.00  0.00    -0.255 NA
HETATM   27  C20 UNL     1      27.756  -0.684  53.432  1.00  0.00     0.209 A 
ENDBRANCH  22  23
ENDBRANCH  21  22
ENDBRANCH  20  21
ENDBRANCH  10  20
BRANCH   1  28
HETATM   28  O1  UNL     1      27.172   3.630  50.085  1.00  0.00    -0.352 OA
HETATM   29  C1  UNL     1      27.105   4.503  48.974  1.00  0.00     0.210 C 
ENDBRANCH   1  28
TORSDOF 7
ENDMDL
MODEL 9
REMARK VINA RESULT:      -7.6      7.673     10.190
REMARK  7 active torsions:
REMARK  status: ('A' for Active; 'I' for Inactive)
REMARK    1  A    between atoms: O1_2  and  C2_3 
REMARK    2  A    between atoms: C6_8  and  N2_10 
REMARK    3  A    between atoms: N2_10  and  C7_11 
REMARK    4  A    between atoms: C15_20  and  O2_21 
REMARK    5  A    between atoms: O2_21  and  C16_22 
REMARK    6  A    between atoms: C16_22  and  C17_23 
REMARK    7  A    between atoms: C17_23  and  N3_24 
ROOT
HETATM    1  C2  UNL     1      24.091   4.744  50.460  1.00  0.00     0.118 C 
HETATM    2  C3  UNL     1      23.922   5.911  49.862  1.00  0.00     0.155 C 
HETATM    3  N1  UNL     1      24.688   6.779  49.036  1.00  0.00    -0.270 NA
HETATM    4  C4  UNL     1      25.864   6.786  48.508  1.00  0.00     0.127 C 
HETATM    5  C5  UNL     1      26.928   5.795  48.589  1.00  0.00     0.002 C 
HETATM    6  C6  UNL     1      28.076   6.371  48.195  1.00  0.00     0.112 C 
HETATM    7 CL1  UNL     1      29.643   5.542  48.129  1.00  0.00    -0.064 Cl
HETATM    8  C13 UNL     1      27.263   4.413  48.925  1.00  0.00     0.073 C 
HETATM    9  C14 UNL     1      26.363   3.761  49.901  1.00  0.00     0.018 C 
HETATM   10  C15 UNL     1      25.200   3.798  50.526  1.00  0.00     0.100 C 
ENDROOT
BRANCH   6  11
HETATM   11  N2  UNL     1      28.528   7.635  47.739  1.00  0.00    -0.346 N 
HETATM   12  H6  UNL     1      28.417   8.000  46.755  1.00  0.00     0.167 HD
BRANCH  11  13
HETATM   13  C7  UNL     1      29.199   8.776  48.230  1.00  0.00     0.033 A 
HETATM   14  C8  UNL     1      30.188   8.889  49.167  1.00  0.00     0.032 A 
HETATM   15  C9  UNL     1      30.720  10.108  49.528  1.00  0.00     0.044 A 
HETATM   16  C10 UNL     1      30.247  11.268  48.933  1.00  0.00     0.116 A 
HETATM   17  F1  UNL     1      30.850  12.384  49.377  1.00  0.00    -0.206 F 
HETATM   18  C11 UNL     1      29.251  11.199  47.985  1.00  0.00     0.044 A 
HETATM   19  C12 UNL     1      28.736   9.958  47.642  1.00  0.00     0.032 A 
ENDBRANCH  11  13
ENDBRANCH   6  11
BRANCH  10  20
HETATM   20  O2  UNL     1      24.927   2.777  51.420  1.00  0.00    -0.347 OA
BRANCH  20  21
HETATM   21  C16 UNL     1      26.021   1.988  51.892  1.00  0.00     0.196 C 
BRANCH  21  22
HETATM   22  C17 UNL     1      25.999   2.034  53.394  1.00  0.00     0.156 C 
BRANCH  22  23
HETATM   23  N3  UNL     1      27.080   1.231  53.913  1.00  0.00    -0.348 N 
HETATM   24  C18 UNL     1      28.356   1.429  53.531  1.00  0.00     0.111 A 
HETATM   25  C19 UNL     1      29.168   0.531  54.177  1.00  0.00     0.135 A 
HETATM   26  N4  UNL     1      28.363  -0.225  54.966  1.00  0.00    -0.255 NA
HETATM   27  C20 UNL     1      27.092   0.216  54.792  1.00  0.00     0.209 A 
ENDBRANCH  22  23
ENDBRANCH  21  22
ENDBRANCH  20  21
ENDBRANCH  10  20
BRANCH   1  28
HETATM   28  O1  UNL     1      23.003   4.287  51.188  1.00  0.00    -0.352 OA
HETATM   29  C1  UNL     1      22.180   5.266  51.794  1.00  0.00     0.210 C 
ENDBRANCH   1  28
TORSDOF 7
ENDMDL
