MODEL 1
REMARK VINA RESULT:      -8.3      0.000      0.000
REMARK  6 active torsions:
REMARK  status: ('A' for Active; 'I' for Inactive)
REMARK    1  A    between atoms: C2_2  and  C3_3 
REMARK    2  A    between atoms: C8_8  and  O1_9 
REMARK    3  A    between atoms: O1_9  and  C9_10 
REMARK    4  A    between atoms: C9_10  and  C10_11 
REMARK    5  A    between atoms: C10_11  and  C11_13 
REMARK    6  A    between atoms: C11_13  and  C12_14 
ROOT
HETATM    1  C11 UNL     1      23.983   2.663  51.735  1.00  0.00     0.083 C 
HETATM    2  C14 UNL     1      23.773   3.718  52.768  1.00  0.00     0.055 C 
HETATM    3  C15 UNL     1      22.972   4.859  52.296  1.00  0.00    -0.025 C 
HETATM    4  C16 UNL     1      23.189   5.822  51.415  1.00  0.00    -0.000 C 
HETATM    5  C17 UNL     1      24.237   6.258  50.502  1.00  0.00     0.051 C 
HETATM    6  C18 UNL     1      25.288   5.660  49.966  1.00  0.00     0.135 A 
HETATM    7  N1  UNL     1      25.915   6.657  49.148  1.00  0.00    -0.224 NA
HETATM    8  C19 UNL     1      26.998   6.359  48.479  1.00  0.00     0.236 A 
HETATM    9  N2  UNL     1      27.576   5.050  48.545  1.00  0.00    -0.237 NA
HETATM   10  C20 UNL     1      27.042   4.104  49.277  1.00  0.00     0.216 A 
HETATM   11  N3  UNL     1      25.861   4.359  50.033  1.00  0.00    -0.301 N 
HETATM   12  P1  UNL     1      25.560   2.809  50.819  1.00  0.00     0.002 P 
HETATM   13  H19 UNL     1      25.564   1.776  49.796  1.00  0.00     0.082 HD
ENDROOT
BRANCH   1  14
HETATM   14  C10 UNL     1      24.026   1.341  52.441  1.00  0.00     0.169 C 
HETATM   15  O2  UNL     1      22.952   1.171  52.986  1.00  0.00    -0.294 OA
BRANCH  14  16
HETATM   16  C9  UNL     1      25.386   0.771  52.183  1.00  0.00     0.255 C 
BRANCH  16  17
HETATM   17  O1  UNL     1      25.979   0.313  53.377  1.00  0.00    -0.343 OA
BRANCH  17  18
HETATM   18  C8  UNL     1      27.064  -0.542  53.304  1.00  0.00     0.079 A 
HETATM   19  C3  UNL     1      28.253  -0.020  53.784  1.00  0.00    -0.006 A 
HETATM   20  C4  UNL     1      29.441  -0.719  53.793  1.00  0.00     0.014 A 
HETATM   21  C5  UNL     1      29.479  -2.022  53.300  1.00  0.00     0.001 A 
HETATM   22  C6  UNL     1      28.299  -2.550  52.820  1.00  0.00     0.003 A 
HETATM   23  C7  UNL     1      27.124  -1.827  52.823  1.00  0.00     0.037 A 
BRANCH  19  24
HETATM   24  C2  UNL     1      28.331   1.332  54.323  1.00  0.00    -0.012 C 
HETATM   25  C1  UNL     1      28.701   2.340  53.552  1.00  0.00     0.032 C 
ENDBRANCH  19  24
ENDBRANCH  17  18
ENDBRANCH  16  17
ENDBRANCH  14  16
ENDBRANCH   1  14
BRANCH   1  26
HETATM   26  C12 UNL     1      22.795   2.614  50.820  1.00  0.00     0.005 C 
HETATM   27  C13 UNL     1      22.850   2.386  49.514  1.00  0.00     0.053 C 
HETATM   28 BR1  UNL     1      21.400   2.306  48.279  1.00  0.00    -0.064 Br
ENDBRANCH   1  26
TORSDOF 6
ENDMDL
MODEL 2
REMARK VINA RESULT:      -7.8      1.076      2.120
REMARK  6 active torsions:
REMARK  status: ('A' for Active; 'I' for Inactive)
REMARK    1  A    between atoms: C2_2  and  C3_3 
REMARK    2  A    between atoms: C8_8  and  O1_9 
REMARK    3  A    between atoms: O1_9  and  C9_10 
REMARK    4  A    between atoms: C9_10  and  C10_11 
REMARK    5  A    between atoms: C10_11  and  C11_13 
REMARK    6  A    between atoms: C11_13  and  C12_14 
ROOT
HETATM    1  C11 UNL     1      23.861   3.733  50.980  1.00  0.00     0.083 C 
HETATM    2  C14 UNL     1      23.608   4.888  51.889  1.00  0.00     0.055 C 
HETATM    3  C15 UNL     1      23.016   6.055  51.216  1.00  0.00    -0.025 C 
HETATM    4  C16 UNL     1      23.468   6.914  50.316  1.00  0.00    -0.000 C 
HETATM    5  C17 UNL     1      24.685   7.168  49.556  1.00  0.00     0.051 C 
HETATM    6  C18 UNL     1      25.736   6.429  49.240  1.00  0.00     0.135 A 
HETATM    7  N1  UNL     1      26.584   7.289  48.467  1.00  0.00    -0.224 NA
HETATM    8  C19 UNL     1      27.719   6.833  48.005  1.00  0.00     0.236 A 
HETATM    9  N2  UNL     1      28.136   5.486  48.255  1.00  0.00    -0.237 NA
HETATM   10  C20 UNL     1      27.398   4.661  48.955  1.00  0.00     0.216 A 
HETATM   11  N3  UNL     1      26.148   5.091  49.490  1.00  0.00    -0.301 N 
HETATM   12  P1  UNL     1      25.566   3.650  50.323  1.00  0.00     0.002 P 
HETATM   13  H19 UNL     1      25.616   2.537  49.389  1.00  0.00     0.082 HD
ENDROOT
BRANCH   1  14
HETATM   14  C10 UNL     1      23.652   2.479  51.774  1.00  0.00     0.169 C 
HETATM   15  O2  UNL     1      22.544   2.530  52.274  1.00  0.00    -0.294 OA
BRANCH  14  16
HETATM   16  C9  UNL     1      24.905   1.673  51.624  1.00  0.00     0.255 C 
BRANCH  16  17
HETATM   17  O1  UNL     1      25.312   1.133  52.861  1.00  0.00    -0.343 OA
BRANCH  17  18
HETATM   18  C8  UNL     1      26.657   1.132  53.184  1.00  0.00     0.079 A 
HETATM   19  C3  UNL     1      27.257  -0.116  53.186  1.00  0.00    -0.006 A 
HETATM   20  C4  UNL     1      28.587  -0.319  53.484  1.00  0.00     0.014 A 
HETATM   21  C5  UNL     1      29.397   0.769  53.803  1.00  0.00     0.001 A 
HETATM   22  C6  UNL     1      28.808   2.016  53.804  1.00  0.00     0.003 A 
HETATM   23  C7  UNL     1      27.473   2.190  53.502  1.00  0.00     0.037 A 
BRANCH  19  24
HETATM   24  C2  UNL     1      26.507  -1.324  52.867  1.00  0.00    -0.012 C 
HETATM   25  C1  UNL     1      27.131  -2.406  52.435  1.00  0.00     0.032 C 
ENDBRANCH  19  24
ENDBRANCH  17  18
ENDBRANCH  16  17
ENDBRANCH  14  16
ENDBRANCH   1  14
BRANCH   1  26
HETATM   26  C12 UNL     1      22.829   3.719  49.891  1.00  0.00     0.005 C 
HETATM   27  C13 UNL     1      23.036   3.286  48.653  1.00  0.00     0.053 C 
HETATM   28 BR1  UNL     1      21.791   3.230  47.211  1.00  0.00    -0.064 Br
ENDBRANCH   1  26
TORSDOF 6
ENDMDL
MODEL 3
REMARK VINA RESULT:      -7.7      2.060      3.477
REMARK  6 active torsions:
REMARK  status: ('A' for Active; 'I' for Inactive)
REMARK    1  A    between atoms: C2_2  and  C3_3 
REMARK    2  A    between atoms: C8_8  and  O1_9 
REMARK    3  A    between atoms: O1_9  and  C9_10 
REMARK    4  A    between atoms: C9_10  and  C10_11 
REMARK    5  A    between atoms: C10_11  and  C11_13 
REMARK    6  A    between atoms: C11_13  and  C12_14 
ROOT
HETATM    1  C11 UNL     1      23.621   5.254  50.311  1.00  0.00     0.083 C 
HETATM    2  C14 UNL     1      23.767   6.311  51.352  1.00  0.00     0.055 C 
HETATM    3  C15 UNL     1      23.851   7.675  50.805  1.00  0.00    -0.025 C 
HETATM    4  C16 UNL     1      24.761   8.313  50.087  1.00  0.00    -0.000 C 
HETATM    5  C17 UNL     1      26.064   8.057  49.489  1.00  0.00     0.051 C 
HETATM    6  C18 UNL     1      26.721   6.954  49.167  1.00  0.00     0.135 A 
HETATM    7  N1  UNL     1      27.963   7.403  48.609  1.00  0.00    -0.224 NA
HETATM    8  C19 UNL     1      28.840   6.527  48.192  1.00  0.00     0.236 A 
HETATM    9  N2  UNL     1      28.584   5.121  48.280  1.00  0.00    -0.237 NA
HETATM   10  C20 UNL     1      27.465   4.660  48.780  1.00  0.00     0.216 A 
HETATM   11  N3  UNL     1      26.465   5.558  49.254  1.00  0.00    -0.301 N 
HETATM   12  P1  UNL     1      25.195   4.468  49.810  1.00  0.00     0.002 P 
HETATM   13  H19 UNL     1      24.892   3.541  48.731  1.00  0.00     0.082 HD
ENDROOT
BRANCH   1  14
HETATM   14  C10 UNL     1      22.770   4.163  50.890  1.00  0.00     0.169 C 
HETATM   15  O2  UNL     1      21.723   4.659  51.260  1.00  0.00    -0.294 OA
BRANCH  14  16
HETATM   16  C9  UNL     1      23.568   2.901  50.774  1.00  0.00     0.255 C 
BRANCH  16  17
HETATM   17  O1  UNL     1      23.515   2.156  51.969  1.00  0.00    -0.343 OA
BRANCH  17  18
HETATM   18  C8  UNL     1      24.525   1.251  52.242  1.00  0.00     0.079 A 
HETATM   19  C3  UNL     1      24.162   0.201  53.069  1.00  0.00    -0.006 A 
HETATM   20  C4  UNL     1      25.030  -0.797  53.454  1.00  0.00     0.014 A 
HETATM   21  C5  UNL     1      26.349  -0.778  53.004  1.00  0.00     0.001 A 
HETATM   22  C6  UNL     1      26.719   0.265  52.180  1.00  0.00     0.003 A 
HETATM   23  C7  UNL     1      25.829   1.251  51.810  1.00  0.00     0.037 A 
BRANCH  19  24
HETATM   24  C2  UNL     1      22.810   0.079  53.599  1.00  0.00    -0.012 C 
HETATM   25  C1  UNL     1      22.503  -0.901  54.431  1.00  0.00     0.032 C 
ENDBRANCH  19  24
ENDBRANCH  17  18
ENDBRANCH  16  17
ENDBRANCH  14  16
ENDBRANCH   1  14
BRANCH   1  26
HETATM   26  C12 UNL     1      22.861   5.805  49.141  1.00  0.00     0.005 C 
HETATM   27  C13 UNL     1      23.092   5.497  47.871  1.00  0.00     0.053 C 
HETATM   28 BR1  UNL     1      22.182   6.145  46.326  1.00  0.00    -0.064 Br
ENDBRANCH   1  26
TORSDOF 6
ENDMDL
MODEL 4
REMARK VINA RESULT:      -7.7      3.593      5.416
REMARK  6 active torsions:
REMARK  status: ('A' for Active; 'I' for Inactive)
REMARK    1  A    between atoms: C2_2  and  C3_3 
REMARK    2  A    between atoms: C8_8  and  O1_9 
REMARK    3  A    between atoms: O1_9  and  C9_10 
REMARK    4  A    between atoms: C9_10  and  C10_11 
REMARK    5  A    between atoms: C10_11  and  C11_13 
REMARK    6  A    between atoms: C11_13  and  C12_14 
ROOT
HETATM    1  C11 UNL     1      22.768   2.554  51.917  1.00  0.00     0.083 C 
HETATM    2  C14 UNL     1      22.809   1.364  52.814  1.00  0.00     0.055 C 
HETATM    3  C15 UNL     1      22.342   0.123  52.175  1.00  0.00    -0.025 C 
HETATM    4  C16 UNL     1      21.160  -0.292  51.746  1.00  0.00    -0.000 C 
HETATM    5  C17 UNL     1      19.789   0.194  51.667  1.00  0.00     0.051 C 
HETATM    6  C18 UNL     1      19.242   1.397  51.721  1.00  0.00     0.135 A 
HETATM    7  N1  UNL     1      17.832   1.178  51.578  1.00  0.00    -0.224 NA
HETATM    8  C19 UNL     1      17.013   2.198  51.594  1.00  0.00     0.236 A 
HETATM    9  N2  UNL     1      17.497   3.537  51.750  1.00  0.00    -0.237 NA
HETATM   10  C20 UNL     1      18.775   3.790  51.884  1.00  0.00     0.216 A 
HETATM   11  N3  UNL     1      19.724   2.727  51.877  1.00  0.00    -0.301 N 
HETATM   12  P1  UNL     1      21.258   3.572  52.084  1.00  0.00     0.002 P 
HETATM   13  H19 UNL     1      21.332   4.623  51.082  1.00  0.00     0.082 HD
ENDROOT
BRANCH   1  14
HETATM   14  C10 UNL     1      23.918   3.441  52.290  1.00  0.00     0.169 C 
HETATM   15  O2  UNL     1      23.723   4.536  51.798  1.00  0.00    -0.294 OA
BRANCH  14  16
HETATM   16  C9  UNL     1      24.843   2.605  53.119  1.00  0.00     0.255 C 
BRANCH  16  17
HETATM   17  O1  UNL     1      25.900   2.093  52.340  1.00  0.00    -0.343 OA
BRANCH  17  18
HETATM   18  C8  UNL     1      27.073   1.712  52.967  1.00  0.00     0.079 A 
HETATM   19  C3  UNL     1      27.245   0.346  53.107  1.00  0.00    -0.006 A 
HETATM   20  C4  UNL     1      28.348  -0.223  53.706  1.00  0.00     0.014 A 
HETATM   21  C5  UNL     1      29.361   0.593  54.205  1.00  0.00     0.001 A 
HETATM   22  C6  UNL     1      29.198   1.956  54.071  1.00  0.00     0.003 A 
HETATM   23  C7  UNL     1      28.083   2.498  53.467  1.00  0.00     0.037 A 
BRANCH  19  24
HETATM   24  C2  UNL     1      26.250  -0.602  52.622  1.00  0.00    -0.012 C 
HETATM   25  C1  UNL     1      26.605  -1.830  52.284  1.00  0.00     0.032 C 
ENDBRANCH  19  24
ENDBRANCH  17  18
ENDBRANCH  16  17
ENDBRANCH  14  16
ENDBRANCH   1  14
BRANCH   1  26
HETATM   26  C12 UNL     1      23.011   2.122  50.501  1.00  0.00     0.005 C 
HETATM   27  C13 UNL     1      22.262   2.468  49.461  1.00  0.00     0.053 C 
HETATM   28 BR1  UNL     1      22.494   1.970  47.636  1.00  0.00    -0.064 Br
ENDBRANCH   1  26
TORSDOF 6
ENDMDL
MODEL 5
REMARK VINA RESULT:      -7.5      3.219      4.534
REMARK  6 active torsions:
REMARK  status: ('A' for Active; 'I' for Inactive)
REMARK    1  A    between atoms: C2_2  and  C3_3 
REMARK    2  A    between atoms: C8_8  and  O1_9 
REMARK    3  A    between atoms: O1_9  and  C9_10 
REMARK    4  A    between atoms: C9_10  and  C10_11 
REMARK    5  A    between atoms: C10_11  and  C11_13 
REMARK    6  A    between atoms: C11_13  and  C12_14 
ROOT
HETATM    1  C11 UNL     1      23.279   4.647  50.726  1.00  0.00     0.083 C 
HETATM    2  C14 UNL     1      23.331   5.852  51.603  1.00  0.00     0.055 C 
HETATM    3  C15 UNL     1      23.254   7.125  50.867  1.00  0.00    -0.025 C 
HETATM    4  C16 UNL     1      24.074   7.746  50.034  1.00  0.00    -0.000 C 
HETATM    5  C17 UNL     1      25.384   7.545  49.430  1.00  0.00     0.051 C 
HETATM    6  C18 UNL     1      26.150   6.482  49.242  1.00  0.00     0.135 A 
HETATM    7  N1  UNL     1      27.324   6.975  48.583  1.00  0.00    -0.224 NA
HETATM    8  C19 UNL     1      28.282   6.145  48.261  1.00  0.00     0.236 A 
HETATM    9  N2  UNL     1      28.183   4.746  48.554  1.00  0.00    -0.237 NA
HETATM   10  C20 UNL     1      27.132   4.247  49.154  1.00  0.00     0.216 A 
HETATM   11  N3  UNL     1      26.050   5.094  49.534  1.00  0.00    -0.301 N 
HETATM   12  P1  UNL     1      24.918   3.967  50.283  1.00  0.00     0.002 P 
HETATM   13  H19 UNL     1      24.696   2.869  49.356  1.00  0.00     0.082 HD
ENDROOT
BRANCH   1  14
HETATM   14  C10 UNL     1      22.565   3.567  51.482  1.00  0.00     0.169 C 
HETATM   15  O2  UNL     1      21.581   4.060  52.002  1.00  0.00    -0.294 OA
BRANCH  14  16
HETATM   16  C9  UNL     1      23.365   2.317  51.287  1.00  0.00     0.255 C 
BRANCH  16  17
HETATM   17  O1  UNL     1      22.528   1.184  51.232  1.00  0.00    -0.343 OA
BRANCH  17  18
HETATM   18  C8  UNL     1      22.363   0.414  52.370  1.00  0.00     0.079 A 
HETATM   19  C3  UNL     1      21.048   0.185  52.736  1.00  0.00    -0.006 A 
HETATM   20  C4  UNL     1      20.684  -0.555  53.839  1.00  0.00     0.014 A 
HETATM   21  C5  UNL     1      21.669  -1.117  54.649  1.00  0.00     0.001 A 
HETATM   22  C6  UNL     1      22.983  -0.894  54.293  1.00  0.00     0.003 A 
HETATM   23  C7  UNL     1      23.318  -0.147  53.182  1.00  0.00     0.037 A 
BRANCH  19  24
HETATM   24  C2  UNL     1      19.936   0.724  51.962  1.00  0.00    -0.012 C 
HETATM   25  C1  UNL     1      18.857  -0.007  51.742  1.00  0.00     0.032 C 
ENDBRANCH  19  24
ENDBRANCH  17  18
ENDBRANCH  16  17
ENDBRANCH  14  16
ENDBRANCH   1  14
BRANCH   1  26
HETATM   26  C12 UNL     1      22.439   4.942  49.518  1.00  0.00     0.005 C 
HETATM   27  C13 UNL     1      22.719   4.547  48.282  1.00  0.00     0.053 C 
HETATM   28 BR1  UNL     1      21.715   4.873  46.695  1.00  0.00    -0.064 Br
ENDBRANCH   1  26
TORSDOF 6
ENDMDL
MODEL 6
REMARK VINA RESULT:      -7.4      2.836      4.184
REMARK  6 active torsions:
REMARK  status: ('A' for Active; 'I' for Inactive)
REMARK    1  A    between atoms: C2_2  and  C3_3 
REMARK    2  A    between atoms: C8_8  and  O1_9 
REMARK    3  A    between atoms: O1_9  and  C9_10 
REMARK    4  A    between atoms: C9_10  and  C10_11 
REMARK    5  A    between atoms: C10_11  and  C11_13 
REMARK    6  A    between atoms: C11_13  and  C12_14 
ROOT
HETATM    1  C11 UNL     1      23.860   3.864  50.581  1.00  0.00     0.083 C 
HETATM    2  C14 UNL     1      23.012   2.827  49.929  1.00  0.00     0.055 C 
HETATM    3  C15 UNL     1      22.945   2.950  48.463  1.00  0.00    -0.025 C 
HETATM    4  C16 UNL     1      22.408   3.844  47.648  1.00  0.00    -0.000 C 
HETATM    5  C17 UNL     1      21.655   5.088  47.727  1.00  0.00     0.051 C 
HETATM    6  C18 UNL     1      21.476   5.989  48.680  1.00  0.00     0.135 A 
HETATM    7  N1  UNL     1      20.616   6.981  48.105  1.00  0.00    -0.224 NA
HETATM    8  C19 UNL     1      20.254   8.016  48.818  1.00  0.00     0.236 A 
HETATM    9  N2  UNL     1      20.702   8.181  50.168  1.00  0.00    -0.237 NA
HETATM   10  C20 UNL     1      21.490   7.304  50.739  1.00  0.00     0.216 A 
HETATM   11  N3  UNL     1      21.923   6.152  50.021  1.00  0.00    -0.301 N 
HETATM   12  P1  UNL     1      22.933   5.315  51.200  1.00  0.00     0.002 P 
HETATM   13  H19 UNL     1      23.907   6.265  51.713  1.00  0.00     0.082 HD
ENDROOT
BRANCH   1  14
HETATM   14  C10 UNL     1      24.505   3.234  51.779  1.00  0.00     0.169 C 
HETATM   15  O2  UNL     1      23.902   3.605  52.769  1.00  0.00    -0.294 OA
BRANCH  14  16
HETATM   16  C9  UNL     1      25.635   2.402  51.260  1.00  0.00     0.255 C 
BRANCH  16  17
HETATM   17  O1  UNL     1      25.858   1.279  52.082  1.00  0.00    -0.343 OA
BRANCH  17  18
HETATM   18  C8  UNL     1      27.031   1.204  52.813  1.00  0.00     0.079 A 
HETATM   19  C3  UNL     1      27.388  -0.071  53.217  1.00  0.00    -0.006 A 
HETATM   20  C4  UNL     1      28.520  -0.346  53.954  1.00  0.00     0.014 A 
HETATM   21  C5  UNL     1      29.370   0.693  54.326  1.00  0.00     0.001 A 
HETATM   22  C6  UNL     1      29.022   1.968  53.928  1.00  0.00     0.003 A 
HETATM   23  C7  UNL     1      27.882   2.213  53.191  1.00  0.00     0.037 A 
BRANCH  19  24
HETATM   24  C2  UNL     1      26.573  -1.233  52.885  1.00  0.00    -0.012 C 
HETATM   25  C1  UNL     1      27.138  -2.340  52.433  1.00  0.00     0.032 C 
ENDBRANCH  19  24
ENDBRANCH  17  18
ENDBRANCH  16  17
ENDBRANCH  14  16
ENDBRANCH   1  14
BRANCH   1  26
HETATM   26  C12 UNL     1      24.976   4.253  49.657  1.00  0.00     0.005 C 
HETATM   27  C13 UNL     1      25.615   5.416  49.682  1.00  0.00     0.053 C 
HETATM   28 BR1  UNL     1      27.037   5.994  48.553  1.00  0.00    -0.064 Br
ENDBRANCH   1  26
TORSDOF 6
ENDMDL
MODEL 7
REMARK VINA RESULT:      -7.3      2.008      3.125
REMARK  6 active torsions:
REMARK  status: ('A' for Active; 'I' for Inactive)
REMARK    1  A    between atoms: C2_2  and  C3_3 
REMARK    2  A    between atoms: C8_8  and  O1_9 
REMARK    3  A    between atoms: O1_9  and  C9_10 
REMARK    4  A    between atoms: C9_10  and  C10_11 
REMARK    5  A    between atoms: C10_11  and  C11_13 
REMARK    6  A    between atoms: C11_13  and  C12_14 
ROOT
HETATM    1  C11 UNL     1      22.503   2.299  51.918  1.00  0.00     0.083 C 
HETATM    2  C14 UNL     1      21.214   2.507  52.636  1.00  0.00     0.055 C 
HETATM    3  C15 UNL     1      20.110   2.939  51.763  1.00  0.00    -0.025 C 
HETATM    4  C16 UNL     1      19.866   4.051  51.086  1.00  0.00    -0.000 C 
HETATM    5  C17 UNL     1      20.486   5.346  50.844  1.00  0.00     0.051 C 
HETATM    6  C18 UNL     1      21.720   5.807  50.971  1.00  0.00     0.135 A 
HETATM    7  N1  UNL     1      21.655   7.179  50.562  1.00  0.00    -0.224 NA
HETATM    8  C19 UNL     1      22.739   7.912  50.579  1.00  0.00     0.236 A 
HETATM    9  N2  UNL     1      23.996   7.369  50.998  1.00  0.00    -0.237 NA
HETATM   10  C20 UNL     1      24.108   6.121  51.380  1.00  0.00     0.216 A 
HETATM   11  N3  UNL     1      22.968   5.266  51.387  1.00  0.00    -0.301 N 
HETATM   12  P1  UNL     1      23.632   3.738  51.965  1.00  0.00     0.002 P 
HETATM   13  H19 UNL     1      24.787   3.409  51.145  1.00  0.00     0.082 HD
ENDROOT
BRANCH   1  14
HETATM   14  C10 UNL     1      23.224   1.175  52.599  1.00  0.00     0.169 C 
HETATM   15  O2  UNL     1      22.427   0.595  53.312  1.00  0.00    -0.294 OA
BRANCH  14  16
HETATM   16  C9  UNL     1      24.640   1.230  52.117  1.00  0.00     0.255 C 
BRANCH  16  17
HETATM   17  O1  UNL     1      25.451   0.315  52.819  1.00  0.00    -0.343 OA
BRANCH  17  18
HETATM   18  C8  UNL     1      26.744   0.680  53.151  1.00  0.00     0.079 A 
HETATM   19  C3  UNL     1      27.664  -0.354  53.141  1.00  0.00    -0.006 A 
HETATM   20  C4  UNL     1      28.998  -0.186  53.445  1.00  0.00     0.014 A 
HETATM   21  C5  UNL     1      29.475   1.078  53.784  1.00  0.00     0.001 A 
HETATM   22  C6  UNL     1      28.565   2.115  53.797  1.00  0.00     0.003 A 
HETATM   23  C7  UNL     1      27.235   1.918  53.488  1.00  0.00     0.037 A 
BRANCH  19  24
HETATM   24  C2  UNL     1      27.277  -1.717  52.801  1.00  0.00    -0.012 C 
HETATM   25  C1  UNL     1      28.150  -2.705  52.897  1.00  0.00     0.032 C 
ENDBRANCH  19  24
ENDBRANCH  17  18
ENDBRANCH  16  17
ENDBRANCH  14  16
ENDBRANCH   1  14
BRANCH   1  26
HETATM   26  C12 UNL     1      22.228   1.837  50.517  1.00  0.00     0.005 C 
HETATM   27  C13 UNL     1      22.662   2.441  49.418  1.00  0.00     0.053 C 
HETATM   28 BR1  UNL     1      22.362   1.928  47.607  1.00  0.00    -0.064 Br
ENDBRANCH   1  26
TORSDOF 6
ENDMDL
MODEL 8
REMARK VINA RESULT:      -7.1      3.423      5.521
REMARK  6 active torsions:
REMARK  status: ('A' for Active; 'I' for Inactive)
REMARK    1  A    between atoms: C2_2  and  C3_3 
REMARK    2  A    between atoms: C8_8  and  O1_9 
REMARK    3  A    between atoms: O1_9  and  C9_10 
REMARK    4  A    between atoms: C9_10  and  C10_11 
REMARK    5  A    between atoms: C10_11  and  C11_13 
REMARK    6  A    between atoms: C11_13  and  C12_14 
ROOT
HETATM    1  C11 UNL     1      23.655   3.741  51.004  1.00  0.00     0.083 C 
HETATM    2  C14 UNL     1      24.043   3.130  49.701  1.00  0.00     0.055 C 
HETATM    3  C15 UNL     1      25.497   2.990  49.520  1.00  0.00    -0.025 C 
HETATM    4  C16 UNL     1      26.482   3.860  49.359  1.00  0.00    -0.000 C 
HETATM    5  C17 UNL     1      26.670   5.302  49.278  1.00  0.00     0.051 C 
HETATM    6  C18 UNL     1      25.941   6.341  49.652  1.00  0.00     0.135 A 
HETATM    7  N1  UNL     1      26.708   7.494  49.281  1.00  0.00    -0.224 NA
HETATM    8  C19 UNL     1      26.239   8.690  49.525  1.00  0.00     0.236 A 
HETATM    9  N2  UNL     1      24.969   8.874  50.161  1.00  0.00    -0.237 NA
HETATM   10  C20 UNL     1      24.230   7.853  50.520  1.00  0.00     0.216 A 
HETATM   11  N3  UNL     1      24.679   6.522  50.284  1.00  0.00    -0.301 N 
HETATM   12  P1  UNL     1      23.362   5.545  50.932  1.00  0.00     0.002 P 
HETATM   13  H19 UNL     1      23.093   5.995  52.289  1.00  0.00     0.082 HD
ENDROOT
BRANCH   1  14
HETATM   14  C10 UNL     1      22.358   3.119  51.428  1.00  0.00     0.169 C 
HETATM   15  O2  UNL     1      21.934   3.747  52.381  1.00  0.00    -0.294 OA
BRANCH  14  16
HETATM   16  C9  UNL     1      22.118   1.971  50.499  1.00  0.00     0.255 C 
BRANCH  16  17
HETATM   17  O1  UNL     1      22.084   0.749  51.200  1.00  0.00    -0.343 OA
BRANCH  17  18
HETATM   18  C8  UNL     1      20.879   0.299  51.708  1.00  0.00     0.079 A 
HETATM   19  C3  UNL     1      20.966  -0.364  52.920  1.00  0.00    -0.006 A 
HETATM   20  C4  UNL     1      19.874  -0.886  53.581  1.00  0.00     0.014 A 
HETATM   21  C5  UNL     1      18.603  -0.753  53.026  1.00  0.00     0.001 A 
HETATM   22  C6  UNL     1      18.507  -0.094  51.818  1.00  0.00     0.003 A 
HETATM   23  C7  UNL     1      19.617   0.418  51.178  1.00  0.00     0.037 A 
BRANCH  19  24
HETATM   24  C2  UNL     1      22.244  -0.561  53.592  1.00  0.00    -0.012 C 
HETATM   25  C1  UNL     1      22.283  -0.892  54.872  1.00  0.00     0.032 C 
ENDBRANCH  19  24
ENDBRANCH  17  18
ENDBRANCH  16  17
ENDBRANCH  14  16
ENDBRANCH   1  14
BRANCH   1  26
HETATM   26  C12 UNL     1      24.663   3.370  52.052  1.00  0.00     0.005 C 
HETATM   27  C13 UNL     1      24.830   2.151  52.549  1.00  0.00     0.053 C 
HETATM   28 BR1  UNL     1      26.079   1.589  53.875  1.00  0.00    -0.064 Br
ENDBRANCH   1  26
TORSDOF 6
ENDMDL
MODEL 9
REMARK VINA RESULT:      -7.1      5.901      9.048
REMARK  6 active torsions:
REMARK  status: ('A' for Active; 'I' for Inactive)
REMARK    1  A    between atoms: C2_2  and  C3_3 
REMARK    2  A    between atoms: C8_8  and  O1_9 
REMARK    3  A    between atoms: O1_9  and  C9_10 
REMARK    4  A    between atoms: C9_10  and  C10_11 
REMARK    5  A    between atoms: C10_11  and  C11_13 
REMARK    6  A    between atoms: C11_13  and  C12_14 
ROOT
HETATM    1  C11 UNL     1      30.951   7.417  48.074  1.00  0.00     0.083 C 
HETATM    2  C14 UNL     1      31.696   7.947  49.251  1.00  0.00     0.055 C 
HETATM    3  C15 UNL     1      33.061   8.400  48.935  1.00  0.00    -0.025 C 
HETATM    4  C16 UNL     1      34.167   7.771  48.570  1.00  0.00    -0.000 C 
HETATM    5  C17 UNL     1      34.619   6.413  48.298  1.00  0.00     0.051 C 
HETATM    6  C18 UNL     1      33.994   5.283  48.010  1.00  0.00     0.135 A 
HETATM    7  N1  UNL     1      35.032   4.306  47.858  1.00  0.00    -0.224 NA
HETATM    8  C19 UNL     1      34.719   3.069  47.566  1.00  0.00     0.236 A 
HETATM    9  N2  UNL     1      33.355   2.669  47.393  1.00  0.00    -0.237 NA
HETATM   10  C20 UNL     1      32.371   3.524  47.520  1.00  0.00     0.216 A 
HETATM   11  N3  UNL     1      32.638   4.887  47.837  1.00  0.00    -0.301 N 
HETATM   12  P1  UNL     1      31.025   5.598  47.893  1.00  0.00     0.002 P 
HETATM   13  H19 UNL     1      30.340   5.257  46.657  1.00  0.00     0.082 HD
ENDROOT
BRANCH   1  14
HETATM   14  C10 UNL     1      29.505   7.764  48.260  1.00  0.00     0.169 C 
HETATM   15  O2  UNL     1      29.442   8.913  48.656  1.00  0.00    -0.294 OA
BRANCH  14  16
HETATM   16  C9  UNL     1      28.727   6.543  47.879  1.00  0.00     0.255 C 
BRANCH  16  17
HETATM   17  O1  UNL     1      27.379   6.657  48.275  1.00  0.00    -0.343 OA
BRANCH  17  18
HETATM   18  C8  UNL     1      26.716   5.532  48.734  1.00  0.00     0.079 A 
HETATM   19  C3  UNL     1      25.345   5.674  48.866  1.00  0.00    -0.006 A 
HETATM   20  C4  UNL     1      24.517   4.666  49.309  1.00  0.00     0.014 A 
HETATM   21  C5  UNL     1      25.057   3.427  49.649  1.00  0.00     0.001 A 
HETATM   22  C6  UNL     1      26.422   3.277  49.521  1.00  0.00     0.003 A 
HETATM   23  C7  UNL     1      27.228   4.303  49.075  1.00  0.00     0.037 A 
BRANCH  19  24
HETATM   24  C2  UNL     1      24.672   6.925  48.539  1.00  0.00    -0.012 C 
HETATM   25  C1  UNL     1      24.217   7.711  49.499  1.00  0.00     0.032 C 
ENDBRANCH  19  24
ENDBRANCH  17  18
ENDBRANCH  16  17
ENDBRANCH  14  16
ENDBRANCH   1  14
BRANCH   1  26
HETATM   26  C12 UNL     1      31.400   8.131  46.833  1.00  0.00     0.005 C 
HETATM   27  C13 UNL     1      31.565   7.562  45.645  1.00  0.00     0.053 C 
HETATM   28 BR1  UNL     1      32.129   8.387  44.022  1.00  0.00    -0.064 Br
ENDBRANCH   1  26
TORSDOF 6
ENDMDL
