MODEL 1
REMARK VINA RESULT:      -7.5      0.000      0.000
REMARK  6 active torsions:
REMARK  status: ('A' for Active; 'I' for Inactive)
REMARK    1  A    between atoms: C7_7  and  O1_8 
REMARK    2  A    between atoms: O1_8  and  C8_9 
REMARK    3  A    between atoms: C10_11  and  C11_12 
REMARK    4  A    between atoms: C11_12  and  C12_14 
REMARK    5  A    between atoms: C12_14  and  C13_15 
REMARK    6  A    between atoms: C13_15  and  N1_16 
ROOT
HETATM    1  C8  UNL     1      25.007  -0.342  53.471  1.00  0.00     0.058 A 
HETATM    2  C9  UNL     1      23.696  -0.309  53.174  1.00  0.00     0.048 A 
HETATM    3  C10 UNL     1      23.029  -0.782  54.379  1.00  0.00     0.009 A 
HETATM    4  C16 UNL     1      23.906  -1.074  55.323  1.00  0.00    -0.005 A 
HETATM    5  C17 UNL     1      25.297  -0.824  54.848  1.00  0.00     0.093 A 
ENDROOT
BRANCH   1   6
HETATM    6  O1  UNL     1      26.034   0.035  52.590  1.00  0.00    -0.314 OA
BRANCH   6   7
HETATM    7  C7  UNL     1      27.359  -0.283  52.946  1.00  0.00     0.081 A 
HETATM    8  C2  UNL     1      28.267   0.684  53.378  1.00  0.00    -0.028 A 
HETATM    9  C1  UNL     1      27.835   2.098  53.466  1.00  0.00     0.051 C 
HETATM   10  C3  UNL     1      29.569   0.322  53.721  1.00  0.00     0.009 A 
HETATM   11  C4  UNL     1      29.961  -0.989  53.636  1.00  0.00     0.001 A 
HETATM   12  C5  UNL     1      29.090  -1.970  53.214  1.00  0.00     0.003 A 
HETATM   13  C6  UNL     1      27.810  -1.582  52.882  1.00  0.00     0.038 A 
ENDBRANCH   6   7
ENDBRANCH   1   6
BRANCH   3  14
HETATM   14  C11 UNL     1      21.577  -0.879  54.427  1.00  0.00     0.161 C 
HETATM   15  O2  UNL     1      21.080  -1.975  54.874  1.00  0.00    -0.292 OA
BRANCH  14  16
HETATM   16  C12 UNL     1      20.448  -0.027  54.088  1.00  0.00     0.114 C 
BRANCH  16  17
HETATM   17  C13 UNL     1      19.991  -0.071  52.660  1.00  0.00     0.279 C 
BRANCH  17  18
HETATM   18  N1  UNL     1      18.554  -0.241  52.544  1.00  0.00     0.080 N 
HETATM   19  C14 UNL     1      18.113  -0.149  51.168  1.00  0.00     0.309 C 
HETATM   20  C15 UNL     1      18.024  -1.356  53.254  1.00  0.00     0.309 C 
ENDBRANCH  17  18
ENDBRANCH  16  17
ENDBRANCH  14  16
ENDBRANCH   3  14
TORSDOF 6
ENDMDL
MODEL 2
REMARK VINA RESULT:      -7.2      3.903      7.016
REMARK  6 active torsions:
REMARK  status: ('A' for Active; 'I' for Inactive)
REMARK    1  A    between atoms: C7_7  and  O1_8 
REMARK    2  A    between atoms: O1_8  and  C8_9 
REMARK    3  A    between atoms: C10_11  and  C11_12 
REMARK    4  A    between atoms: C11_12  and  C12_14 
REMARK    5  A    between atoms: C12_14  and  C13_15 
REMARK    6  A    between atoms: C13_15  and  N1_16 
ROOT
HETATM    1  C8  UNL     1      22.618   1.056  52.755  1.00  0.00     0.058 A 
HETATM    2  C9  UNL     1      23.948   0.866  52.803  1.00  0.00     0.048 A 
HETATM    3  C10 UNL     1      24.126  -0.310  53.645  1.00  0.00     0.009 A 
HETATM    4  C16 UNL     1      22.962  -0.775  54.062  1.00  0.00    -0.005 A 
HETATM    5  C17 UNL     1      21.841   0.055  53.535  1.00  0.00     0.093 A 
ENDROOT
BRANCH   1   6
HETATM    6  O1  UNL     1      21.985   2.090  52.045  1.00  0.00    -0.314 OA
BRANCH   6   7
HETATM    7  C7  UNL     1      22.128   2.112  50.645  1.00  0.00     0.081 A 
HETATM    8  C2  UNL     1      22.937   3.044  49.993  1.00  0.00    -0.028 A 
HETATM    9  C1  UNL     1      23.674   4.050  50.791  1.00  0.00     0.051 C 
HETATM   10  C3  UNL     1      23.048   3.027  48.603  1.00  0.00     0.009 A 
HETATM   11  C4  UNL     1      22.362   2.092  47.871  1.00  0.00     0.001 A 
HETATM   12  C5  UNL     1      21.555   1.157  48.482  1.00  0.00     0.003 A 
HETATM   13  C6  UNL     1      21.464   1.198  49.857  1.00  0.00     0.038 A 
ENDBRANCH   6   7
ENDBRANCH   1   6
BRANCH   3  14
HETATM   14  C11 UNL     1      25.460  -0.820  53.923  1.00  0.00     0.161 C 
HETATM   15  O2  UNL     1      25.747  -1.064  55.150  1.00  0.00    -0.292 OA
BRANCH  14  16
HETATM   16  C12 UNL     1      26.647  -1.157  53.152  1.00  0.00     0.114 C 
BRANCH  16  17
HETATM   17  C13 UNL     1      27.544  -0.012  52.784  1.00  0.00     0.279 C 
BRANCH  17  18
HETATM   18  N1  UNL     1      28.839  -0.093  53.434  1.00  0.00     0.080 N 
HETATM   19  C14 UNL     1      28.847   0.609  54.700  1.00  0.00     0.309 C 
HETATM   20  C15 UNL     1      29.402  -1.401  53.488  1.00  0.00     0.309 C 
ENDBRANCH  17  18
ENDBRANCH  16  17
ENDBRANCH  14  16
ENDBRANCH   3  14
TORSDOF 6
ENDMDL
MODEL 3
REMARK VINA RESULT:      -7.0      3.775      5.696
REMARK  6 active torsions:
REMARK  status: ('A' for Active; 'I' for Inactive)
REMARK    1  A    between atoms: C7_7  and  O1_8 
REMARK    2  A    between atoms: O1_8  and  C8_9 
REMARK    3  A    between atoms: C10_11  and  C11_12 
REMARK    4  A    between atoms: C11_12  and  C12_14 
REMARK    5  A    between atoms: C12_14  and  C13_15 
REMARK    6  A    between atoms: C13_15  and  N1_16 
ROOT
HETATM    1  C8  UNL     1      24.635   0.272  53.197  1.00  0.00     0.058 A 
HETATM    2  C9  UNL     1      25.100   1.348  52.539  1.00  0.00     0.048 A 
HETATM    3  C10 UNL     1      23.961   1.837  51.773  1.00  0.00     0.009 A 
HETATM    4  C16 UNL     1      22.894   1.084  51.976  1.00  0.00    -0.005 A 
HETATM    5  C17 UNL     1      23.202  -0.024  52.926  1.00  0.00     0.093 A 
ENDROOT
BRANCH   1   6
HETATM    6  O1  UNL     1      25.400  -0.523  54.067  1.00  0.00    -0.314 OA
BRANCH   6   7
HETATM    7  C7  UNL     1      26.802  -0.435  53.978  1.00  0.00     0.081 A 
HETATM    8  C2  UNL     1      27.550  -1.270  53.147  1.00  0.00    -0.028 A 
HETATM    9  C1  UNL     1      26.856  -2.288  52.326  1.00  0.00     0.051 C 
HETATM   10  C3  UNL     1      28.938  -1.146  53.091  1.00  0.00     0.009 A 
HETATM   11  C4  UNL     1      29.574  -0.202  53.855  1.00  0.00     0.001 A 
HETATM   12  C5  UNL     1      28.866   0.640  54.687  1.00  0.00     0.003 A 
HETATM   13  C6  UNL     1      27.496   0.494  54.721  1.00  0.00     0.038 A 
ENDBRANCH   6   7
ENDBRANCH   1   6
BRANCH   3  14
HETATM   14  C11 UNL     1      24.094   3.014  50.926  1.00  0.00     0.161 C 
HETATM   15  O2  UNL     1      23.527   4.091  51.332  1.00  0.00    -0.292 OA
BRANCH  14  16
HETATM   16  C12 UNL     1      24.732   3.340  49.660  1.00  0.00     0.114 C 
BRANCH  16  17
HETATM   17  C13 UNL     1      26.215   3.564  49.705  1.00  0.00     0.279 C 
BRANCH  17  18
HETATM   18  N1  UNL     1      26.579   4.926  49.362  1.00  0.00     0.080 N 
HETATM   19  C14 UNL     1      27.787   4.974  48.565  1.00  0.00     0.309 C 
HETATM   20  C15 UNL     1      25.512   5.721  48.851  1.00  0.00     0.309 C 
ENDBRANCH  17  18
ENDBRANCH  16  17
ENDBRANCH  14  16
ENDBRANCH   3  14
TORSDOF 6
ENDMDL
MODEL 4
REMARK VINA RESULT:      -6.9      4.548      6.947
REMARK  6 active torsions:
REMARK  status: ('A' for Active; 'I' for Inactive)
REMARK    1  A    between atoms: C7_7  and  O1_8 
REMARK    2  A    between atoms: O1_8  and  C8_9 
REMARK    3  A    between atoms: C10_11  and  C11_12 
REMARK    4  A    between atoms: C11_12  and  C12_14 
REMARK    5  A    between atoms: C12_14  and  C13_15 
REMARK    6  A    between atoms: C13_15  and  N1_16 
ROOT
HETATM    1  C8  UNL     1      25.929   1.641  52.541  1.00  0.00     0.058 A 
HETATM    2  C9  UNL     1      26.692   2.498  51.839  1.00  0.00     0.048 A 
HETATM    3  C10 UNL     1      25.813   3.010  50.797  1.00  0.00     0.009 A 
HETATM    4  C16 UNL     1      24.607   2.479  50.888  1.00  0.00    -0.005 A 
HETATM    5  C17 UNL     1      24.536   1.525  52.032  1.00  0.00     0.093 A 
ENDROOT
BRANCH   1   6
HETATM    6  O1  UNL     1      26.372   0.907  53.655  1.00  0.00    -0.314 OA
BRANCH   6   7
HETATM    7  C7  UNL     1      27.225  -0.189  53.425  1.00  0.00     0.081 A 
HETATM    8  C2  UNL     1      28.584  -0.155  53.741  1.00  0.00    -0.028 A 
HETATM    9  C1  UNL     1      29.160   1.072  54.337  1.00  0.00     0.051 C 
HETATM   10  C3  UNL     1      29.389  -1.266  53.496  1.00  0.00     0.009 A 
HETATM   11  C4  UNL     1      28.848  -2.398  52.944  1.00  0.00     0.001 A 
HETATM   12  C5  UNL     1      27.510  -2.466  52.620  1.00  0.00     0.003 A 
HETATM   13  C6  UNL     1      26.738  -1.353  52.873  1.00  0.00     0.038 A 
ENDBRANCH   6   7
ENDBRANCH   1   6
BRANCH   3  14
HETATM   14  C11 UNL     1      26.306   3.982  49.831  1.00  0.00     0.161 C 
HETATM   15  O2  UNL     1      27.347   3.656  49.155  1.00  0.00    -0.292 OA
BRANCH  14  16
HETATM   16  C12 UNL     1      25.928   5.313  49.382  1.00  0.00     0.114 C 
BRANCH  16  17
HETATM   17  C13 UNL     1      26.937   6.040  48.543  1.00  0.00     0.279 C 
BRANCH  17  18
HETATM   18  N1  UNL     1      26.949   7.468  48.804  1.00  0.00     0.080 N 
HETATM   19  C14 UNL     1      26.209   7.799  50.004  1.00  0.00     0.309 C 
HETATM   20  C15 UNL     1      28.231   8.082  48.721  1.00  0.00     0.309 C 
ENDBRANCH  17  18
ENDBRANCH  16  17
ENDBRANCH  14  16
ENDBRANCH   3  14
TORSDOF 6
ENDMDL
MODEL 5
REMARK VINA RESULT:      -6.8      4.736      6.995
REMARK  6 active torsions:
REMARK  status: ('A' for Active; 'I' for Inactive)
REMARK    1  A    between atoms: C7_7  and  O1_8 
REMARK    2  A    between atoms: O1_8  and  C8_9 
REMARK    3  A    between atoms: C10_11  and  C11_12 
REMARK    4  A    between atoms: C11_12  and  C12_14 
REMARK    5  A    between atoms: C12_14  and  C13_15 
REMARK    6  A    between atoms: C13_15  and  N1_16 
ROOT
HETATM    1  C8  UNL     1      24.239   3.038  51.039  1.00  0.00     0.058 A 
HETATM    2  C9  UNL     1      24.483   1.728  51.218  1.00  0.00     0.048 A 
HETATM    3  C10 UNL     1      24.536   1.553  52.663  1.00  0.00     0.009 A 
HETATM    4  C16 UNL     1      24.334   2.699  53.287  1.00  0.00    -0.005 A 
HETATM    5  C17 UNL     1      24.116   3.803  52.309  1.00  0.00     0.093 A 
ENDROOT
BRANCH   1   6
HETATM    6  O1  UNL     1      24.106   3.661  49.786  1.00  0.00    -0.314 OA
BRANCH   6   7
HETATM    7  C7  UNL     1      25.165   4.473  49.338  1.00  0.00     0.081 A 
HETATM    8  C2  UNL     1      24.967   5.783  48.901  1.00  0.00    -0.028 A 
HETATM    9  C1  UNL     1      23.599   6.350  48.905  1.00  0.00     0.051 C 
HETATM   10  C3  UNL     1      26.047   6.550  48.467  1.00  0.00     0.009 A 
HETATM   11  C4  UNL     1      27.310   6.018  48.467  1.00  0.00     0.001 A 
HETATM   12  C5  UNL     1      27.542   4.727  48.891  1.00  0.00     0.003 A 
HETATM   13  C6  UNL     1      26.456   3.993  49.315  1.00  0.00     0.038 A 
ENDBRANCH   6   7
ENDBRANCH   1   6
BRANCH   3  14
HETATM   14  C11 UNL     1      24.785   0.238  53.236  1.00  0.00     0.161 C 
HETATM   15  O2  UNL     1      23.794  -0.346  53.806  1.00  0.00    -0.292 OA
BRANCH  14  16
HETATM   16  C12 UNL     1      25.917  -0.668  53.355  1.00  0.00     0.114 C 
BRANCH  16  17
HETATM   17  C13 UNL     1      27.242  -0.136  52.894  1.00  0.00     0.279 C 
BRANCH  17  18
HETATM   18  N1  UNL     1      27.888   0.686  53.900  1.00  0.00     0.080 N 
HETATM   19  C14 UNL     1      29.027   0.015  54.490  1.00  0.00     0.309 C 
HETATM   20  C15 UNL     1      28.144   2.030  53.501  1.00  0.00     0.309 C 
ENDBRANCH  17  18
ENDBRANCH  16  17
ENDBRANCH  14  16
ENDBRANCH   3  14
TORSDOF 6
ENDMDL
MODEL 6
REMARK VINA RESULT:      -6.8      2.127      3.085
REMARK  6 active torsions:
REMARK  status: ('A' for Active; 'I' for Inactive)
REMARK    1  A    between atoms: C7_7  and  O1_8 
REMARK    2  A    between atoms: O1_8  and  C8_9 
REMARK    3  A    between atoms: C10_11  and  C11_12 
REMARK    4  A    between atoms: C11_12  and  C12_14 
REMARK    5  A    between atoms: C12_14  and  C13_15 
REMARK    6  A    between atoms: C13_15  and  N1_16 
ROOT
HETATM    1  C8  UNL     1      25.519   1.299  52.764  1.00  0.00     0.058 A 
HETATM    2  C9  UNL     1      24.247   0.924  52.545  1.00  0.00     0.048 A 
HETATM    3  C10 UNL     1      23.832   1.684  51.373  1.00  0.00     0.009 A 
HETATM    4  C16 UNL     1      24.811   2.457  50.938  1.00  0.00    -0.005 A 
HETATM    5  C17 UNL     1      26.026   2.301  51.788  1.00  0.00     0.093 A 
ENDROOT
BRANCH   1   6
HETATM    6  O1  UNL     1      26.326   0.811  53.807  1.00  0.00    -0.314 OA
BRANCH   6   7
HETATM    7  C7  UNL     1      27.202  -0.252  53.519  1.00  0.00     0.081 A 
HETATM    8  C2  UNL     1      28.573  -0.177  53.773  1.00  0.00    -0.028 A 
HETATM    9  C1  UNL     1      29.135   1.058  54.362  1.00  0.00     0.051 C 
HETATM   10  C3  UNL     1      29.402  -1.257  53.472  1.00  0.00     0.009 A 
HETATM   11  C4  UNL     1      28.874  -2.398  52.926  1.00  0.00     0.001 A 
HETATM   12  C5  UNL     1      27.524  -2.506  52.663  1.00  0.00     0.003 A 
HETATM   13  C6  UNL     1      26.729  -1.423  52.970  1.00  0.00     0.038 A 
ENDBRANCH   6   7
ENDBRANCH   1   6
BRANCH   3  14
HETATM   14  C11 UNL     1      22.488   1.531  50.835  1.00  0.00     0.161 C 
HETATM   15  O2  UNL     1      22.102   2.401  49.975  1.00  0.00    -0.292 OA
BRANCH  14  16
HETATM   16  C12 UNL     1      21.378   0.607  51.008  1.00  0.00     0.114 C 
BRANCH  16  17
HETATM   17  C13 UNL     1      20.432   0.910  52.132  1.00  0.00     0.279 C 
BRANCH  17  18
HETATM   18  N1  UNL     1      20.337  -0.180  53.085  1.00  0.00     0.080 N 
HETATM   19  C14 UNL     1      20.967   0.152  54.345  1.00  0.00     0.309 C 
HETATM   20  C15 UNL     1      19.038  -0.751  53.214  1.00  0.00     0.309 C 
ENDBRANCH  17  18
ENDBRANCH  16  17
ENDBRANCH  14  16
ENDBRANCH   3  14
TORSDOF 6
ENDMDL
MODEL 7
REMARK VINA RESULT:      -6.5      2.798      3.820
REMARK  6 active torsions:
REMARK  status: ('A' for Active; 'I' for Inactive)
REMARK    1  A    between atoms: C7_7  and  O1_8 
REMARK    2  A    between atoms: O1_8  and  C8_9 
REMARK    3  A    between atoms: C10_11  and  C11_12 
REMARK    4  A    between atoms: C11_12  and  C12_14 
REMARK    5  A    between atoms: C12_14  and  C13_15 
REMARK    6  A    between atoms: C13_15  and  N1_16 
ROOT
HETATM    1  C8  UNL     1      24.461  -0.012  53.470  1.00  0.00     0.058 A 
HETATM    2  C9  UNL     1      24.764   1.191  52.950  1.00  0.00     0.048 A 
HETATM    3  C10 UNL     1      23.571   1.589  52.215  1.00  0.00     0.009 A 
HETATM    4  C16 UNL     1      22.628   0.668  52.305  1.00  0.00    -0.005 A 
HETATM    5  C17 UNL     1      23.092  -0.484  53.130  1.00  0.00     0.093 A 
ENDROOT
BRANCH   1   6
HETATM    6  O1  UNL     1      25.330  -0.779  54.264  1.00  0.00    -0.314 OA
BRANCH   6   7
HETATM    7  C7  UNL     1      26.715  -0.576  54.111  1.00  0.00     0.081 A 
HETATM    8  C2  UNL     1      27.470  -1.273  53.168  1.00  0.00    -0.028 A 
HETATM    9  C1  UNL     1      26.803  -2.263  52.292  1.00  0.00     0.051 C 
HETATM   10  C3  UNL     1      28.840  -1.038  53.052  1.00  0.00     0.009 A 
HETATM   11  C4  UNL     1      29.450  -0.120  53.867  1.00  0.00     0.001 A 
HETATM   12  C5  UNL     1      28.734   0.586  54.810  1.00  0.00     0.003 A 
HETATM   13  C6  UNL     1      27.382   0.333  54.901  1.00  0.00     0.038 A 
ENDBRANCH   6   7
ENDBRANCH   1   6
BRANCH   3  14
HETATM   14  C11 UNL     1      23.532   2.863  51.511  1.00  0.00     0.161 C 
HETATM   15  O2  UNL     1      24.659   3.410  51.233  1.00  0.00    -0.292 OA
BRANCH  14  16
HETATM   16  C12 UNL     1      22.506   3.757  50.995  1.00  0.00     0.114 C 
BRANCH  16  17
HETATM   17  C13 UNL     1      21.515   4.274  51.995  1.00  0.00     0.279 C 
BRANCH  17  18
HETATM   18  N1  UNL     1      20.145   4.141  51.535  1.00  0.00     0.080 N 
HETATM   19  C14 UNL     1      20.003   4.544  50.152  1.00  0.00     0.309 C 
HETATM   20  C15 UNL     1      19.526   2.897  51.848  1.00  0.00     0.309 C 
ENDBRANCH  17  18
ENDBRANCH  16  17
ENDBRANCH  14  16
ENDBRANCH   3  14
TORSDOF 6
ENDMDL
MODEL 8
REMARK VINA RESULT:      -6.5      3.889      4.810
REMARK  6 active torsions:
REMARK  status: ('A' for Active; 'I' for Inactive)
REMARK    1  A    between atoms: C7_7  and  O1_8 
REMARK    2  A    between atoms: O1_8  and  C8_9 
REMARK    3  A    between atoms: C10_11  and  C11_12 
REMARK    4  A    between atoms: C11_12  and  C12_14 
REMARK    5  A    between atoms: C12_14  and  C13_15 
REMARK    6  A    between atoms: C13_15  and  N1_16 
ROOT
HETATM    1  C8  UNL     1      25.882   1.603  52.415  1.00  0.00     0.058 A 
HETATM    2  C9  UNL     1      24.606   1.671  51.996  1.00  0.00     0.048 A 
HETATM    3  C10 UNL     1      24.653   2.482  50.788  1.00  0.00     0.009 A 
HETATM    4  C16 UNL     1      25.889   2.863  50.520  1.00  0.00    -0.005 A 
HETATM    5  C17 UNL     1      26.837   2.339  51.544  1.00  0.00     0.093 A 
ENDROOT
BRANCH   1   6
HETATM    6  O1  UNL     1      26.310   0.912  53.561  1.00  0.00    -0.314 OA
BRANCH   6   7
HETATM    7  C7  UNL     1      27.191  -0.172  53.386  1.00  0.00     0.081 A 
HETATM    8  C2  UNL     1      28.536  -0.106  53.750  1.00  0.00    -0.028 A 
HETATM    9  C1  UNL     1      29.067   1.144  54.341  1.00  0.00     0.051 C 
HETATM   10  C3  UNL     1      29.371  -1.206  53.558  1.00  0.00     0.009 A 
HETATM   11  C4  UNL     1      28.872  -2.359  53.010  1.00  0.00     0.001 A 
HETATM   12  C5  UNL     1      27.548  -2.459  52.639  1.00  0.00     0.003 A 
HETATM   13  C6  UNL     1      26.747  -1.356  52.841  1.00  0.00     0.038 A 
ENDBRANCH   6   7
ENDBRANCH   1   6
BRANCH   3  14
HETATM   14  C11 UNL     1      23.433   2.770  50.047  1.00  0.00     0.161 C 
HETATM   15  O2  UNL     1      22.679   1.774  49.754  1.00  0.00    -0.292 OA
BRANCH  14  16
HETATM   16  C12 UNL     1      22.777   3.951  49.506  1.00  0.00     0.114 C 
BRANCH  16  17
HETATM   17  C13 UNL     1      21.763   4.610  50.393  1.00  0.00     0.279 C 
BRANCH  17  18
HETATM   18  N1  UNL     1      22.367   5.545  51.324  1.00  0.00     0.080 N 
HETATM   19  C14 UNL     1      22.615   4.932  52.612  1.00  0.00     0.309 C 
HETATM   20  C15 UNL     1      23.471   6.280  50.804  1.00  0.00     0.309 C 
ENDBRANCH  17  18
ENDBRANCH  16  17
ENDBRANCH  14  16
ENDBRANCH   3  14
TORSDOF 6
ENDMDL
MODEL 9
REMARK VINA RESULT:      -6.4      6.422      9.615
REMARK  6 active torsions:
REMARK  status: ('A' for Active; 'I' for Inactive)
REMARK    1  A    between atoms: C7_7  and  O1_8 
REMARK    2  A    between atoms: O1_8  and  C8_9 
REMARK    3  A    between atoms: C10_11  and  C11_12 
REMARK    4  A    between atoms: C11_12  and  C12_14 
REMARK    5  A    between atoms: C12_14  and  C13_15 
REMARK    6  A    between atoms: C13_15  and  N1_16 
ROOT
HETATM    1  C8  UNL     1      25.603   3.890  49.656  1.00  0.00     0.058 A 
HETATM    2  C9  UNL     1      26.891   3.981  49.280  1.00  0.00     0.048 A 
HETATM    3  C10 UNL     1      27.030   5.333  48.757  1.00  0.00     0.009 A 
HETATM    4  C16 UNL     1      25.886   5.990  48.825  1.00  0.00    -0.005 A 
HETATM    5  C17 UNL     1      24.820   5.132  49.418  1.00  0.00     0.093 A 
ENDROOT
BRANCH   1   6
HETATM    6  O1  UNL     1      25.017   2.746  50.224  1.00  0.00    -0.314 OA
BRANCH   6   7
HETATM    7  C7  UNL     1      25.539   2.275  51.444  1.00  0.00     0.081 A 
HETATM    8  C2  UNL     1      25.004   2.649  52.677  1.00  0.00    -0.028 A 
HETATM    9  C1  UNL     1      23.849   3.574  52.717  1.00  0.00     0.051 C 
HETATM   10  C3  UNL     1      25.554   2.156  53.860  1.00  0.00     0.009 A 
HETATM   11  C4  UNL     1      26.624   1.301  53.815  1.00  0.00     0.001 A 
HETATM   12  C5  UNL     1      27.177   0.910  52.614  1.00  0.00     0.003 A 
HETATM   13  C6  UNL     1      26.613   1.413  51.462  1.00  0.00     0.038 A 
ENDBRANCH   6   7
ENDBRANCH   1   6
BRANCH   3  14
HETATM   14  C11 UNL     1      28.314   5.797  48.250  1.00  0.00     0.161 C 
HETATM   15  O2  UNL     1      29.338   5.062  48.494  1.00  0.00    -0.292 OA
BRANCH  14  16
HETATM   16  C12 UNL     1      28.803   6.938  47.491  1.00  0.00     0.114 C 
BRANCH  16  17
HETATM   17  C13 UNL     1      29.289   8.108  48.293  1.00  0.00     0.279 C 
BRANCH  17  18
HETATM   18  N1  UNL     1      30.721   8.309  48.168  1.00  0.00     0.080 N 
HETATM   19  C14 UNL     1      31.419   7.962  49.388  1.00  0.00     0.309 C 
HETATM   20  C15 UNL     1      31.301   7.762  46.987  1.00  0.00     0.309 C 
ENDBRANCH  17  18
ENDBRANCH  16  17
ENDBRANCH  14  16
ENDBRANCH   3  14
TORSDOF 6
ENDMDL
