MODEL 1
REMARK VINA RESULT:      -9.5      0.000      0.000
REMARK  6 active torsions:
REMARK  status: ('A' for Active; 'I' for Inactive)
REMARK    1  A    between atoms: N1_1  and  C1_2 
REMARK    2  A    between atoms: N2_7  and  C6_8 
REMARK    3  A    between atoms: C6_8  and  N3_9 
REMARK       I    between atoms: N3_9  and  C7_10 
REMARK    4  A    between atoms: C7_10  and  C8_12 
REMARK    5  A    between atoms: C13_19  and  N6_20 
REMARK    6  A    between atoms: N6_20  and  C14_21 
ROOT
HETATM    1  C8  UNL     1      22.597   0.490  52.563  1.00  0.00     0.033 A 
HETATM    2  C9  UNL     1      21.525  -0.160  51.970  1.00  0.00     0.019 A 
HETATM    3  C10 UNL     1      20.780   0.451  50.988  1.00  0.00     0.034 A 
HETATM    4  C11 UNL     1      21.154   1.728  50.632  1.00  0.00     0.072 A 
HETATM    5  N4  UNL     1      20.444   2.350  49.674  1.00  0.00    -0.241 NA
HETATM    6  C12 UNL     1      20.820   3.609  49.324  1.00  0.00     0.236 A 
HETATM    7  N5  UNL     1      21.871   4.303  49.872  1.00  0.00    -0.224 NA
HETATM    8  C13 UNL     1      22.607   3.693  50.847  1.00  0.00     0.142 A 
HETATM    9  C20 UNL     1      22.223   2.400  51.210  1.00  0.00     0.040 A 
HETATM   10  C21 UNL     1      22.969   1.765  52.208  1.00  0.00     0.034 A 
ENDROOT
BRANCH   1  11
HETATM   11  C7  UNL     1      23.378  -0.268  53.562  1.00  0.00     0.253 C 
HETATM   12  N3  UNL     1      24.802  -0.274  53.333  1.00  0.00    -0.331 N 
HETATM   13  H14 UNL     1      25.093   0.288  52.478  1.00  0.00     0.164 HD
HETATM   14  O1  UNL     1      23.085  -0.923  54.600  1.00  0.00    -0.268 OA
BRANCH  12  15
HETATM   15  C6  UNL     1      25.964  -0.836  53.978  1.00  0.00     0.400 C 
BRANCH  15  16
HETATM   16  N2  UNL     1      27.217  -0.295  53.494  1.00  0.00     0.139 N 
HETATM   17  C1  UNL     1      28.037  -1.323  52.886  1.00  0.00     0.453 C 
HETATM   18  C2  UNL     1      29.348  -1.553  53.564  1.00  0.00     0.068 C 
HETATM   19  C3  UNL     1      30.120  -0.254  53.519  1.00  0.00     0.006 C 
HETATM   20  C4  UNL     1      29.270   0.930  53.904  1.00  0.00     0.030 C 
HETATM   21  C5  UNL     1      27.912   0.550  54.392  1.00  0.00     0.277 C 
BRANCH  17  22
HETATM   22  N1  UNL     1      27.281  -2.571  52.798  1.00  0.00     0.112 N 
HETATM   23  H1  UNL     1      27.269  -2.984  53.773  1.00  0.00     0.315 HD
HETATM   24  H2  UNL     1      26.298  -2.274  52.605  1.00  0.00     0.315 HD
ENDBRANCH  17  22
ENDBRANCH  15  16
ENDBRANCH  12  15
ENDBRANCH   1  11
BRANCH   8  25
HETATM   25  N6  UNL     1      23.748   4.195  51.579  1.00  0.00    -0.340 N 
HETATM   26  H18 UNL     1      23.682   4.397  52.604  1.00  0.00     0.167 HD
BRANCH  25  27
HETATM   27  C14 UNL     1      24.855   4.319  50.706  1.00  0.00     0.035 A 
HETATM   28  C15 UNL     1      25.699   3.284  50.312  1.00  0.00     0.032 A 
HETATM   29  C16 UNL     1      26.729   3.539  49.441  1.00  0.00     0.046 A 
HETATM   30  C17 UNL     1      26.933   4.803  48.954  1.00  0.00     0.138 A 
HETATM   31  F1  UNL     1      27.979   4.986  48.090  1.00  0.00    -0.204 F 
HETATM   32  C18 UNL     1      26.096   5.848  49.337  1.00  0.00     0.074 A 
HETATM   33 CL1  UNL     1      26.383   7.460  48.693  1.00  0.00    -0.081 Cl
HETATM   34  C19 UNL     1      25.067   5.579  50.212  1.00  0.00     0.056 A 
ENDBRANCH  25  27
ENDBRANCH   8  25
TORSDOF 6
ENDMDL
MODEL 2
REMARK VINA RESULT:      -9.3      2.164      3.275
REMARK  6 active torsions:
REMARK  status: ('A' for Active; 'I' for Inactive)
REMARK    1  A    between atoms: N1_1  and  C1_2 
REMARK    2  A    between atoms: N2_7  and  C6_8 
REMARK    3  A    between atoms: C6_8  and  N3_9 
REMARK       I    between atoms: N3_9  and  C7_10 
REMARK    4  A    between atoms: C7_10  and  C8_12 
REMARK    5  A    between atoms: C13_19  and  N6_20 
REMARK    6  A    between atoms: N6_20  and  C14_21 
ROOT
HETATM    1  C8  UNL     1      23.259  -0.703  53.960  1.00  0.00     0.033 A 
HETATM    2  C9  UNL     1      22.329  -1.207  54.856  1.00  0.00     0.019 A 
HETATM    3  C10 UNL     1      20.979  -1.115  54.606  1.00  0.00     0.034 A 
HETATM    4  C11 UNL     1      20.608  -0.502  53.429  1.00  0.00     0.072 A 
HETATM    5  N4  UNL     1      19.295  -0.399  53.157  1.00  0.00    -0.241 NA
HETATM    6  C12 UNL     1      18.935   0.204  51.993  1.00  0.00     0.236 A 
HETATM    7  N5  UNL     1      19.808   0.719  51.065  1.00  0.00    -0.224 NA
HETATM    8  C13 UNL     1      21.146   0.626  51.319  1.00  0.00     0.142 A 
HETATM    9  C20 UNL     1      21.520   0.009  52.515  1.00  0.00     0.040 A 
HETATM   10  C21 UNL     1      22.888  -0.091  52.785  1.00  0.00     0.034 A 
ENDROOT
BRANCH   1  11
HETATM   11  C7  UNL     1      24.686  -0.905  54.282  1.00  0.00     0.253 C 
HETATM   12  N3  UNL     1      25.551  -1.025  53.133  1.00  0.00    -0.331 N 
HETATM   13  H14 UNL     1      25.035  -0.933  52.207  1.00  0.00     0.164 HD
HETATM   14  O1  UNL     1      25.345  -0.992  55.354  1.00  0.00    -0.268 OA
BRANCH  12  15
HETATM   15  C6  UNL     1      26.961  -1.221  52.900  1.00  0.00     0.400 C 
BRANCH  15  16
HETATM   16  N2  UNL     1      27.691   0.010  52.680  1.00  0.00     0.139 N 
HETATM   17  C1  UNL     1      28.921   0.039  53.445  1.00  0.00     0.453 C 
HETATM   18  C2  UNL     1      29.000   1.139  54.452  1.00  0.00     0.068 C 
HETATM   19  C3  UNL     1      28.883   2.450  53.709  1.00  0.00     0.006 C 
HETATM   20  C4  UNL     1      27.767   2.435  52.695  1.00  0.00     0.030 C 
HETATM   21  C5  UNL     1      26.929   1.201  52.755  1.00  0.00     0.277 C 
BRANCH  17  22
HETATM   22  N1  UNL     1      29.137  -1.257  54.085  1.00  0.00     0.112 N 
HETATM   23  H1  UNL     1      28.181  -1.618  54.360  1.00  0.00     0.315 HD
HETATM   24  H2  UNL     1      29.465  -1.883  53.315  1.00  0.00     0.315 HD
ENDBRANCH  17  22
ENDBRANCH  15  16
ENDBRANCH  12  15
ENDBRANCH   1  11
BRANCH   8  25
HETATM   25  N6  UNL     1      22.261   1.083  50.519  1.00  0.00    -0.340 N 
HETATM   26  H18 UNL     1      22.704   0.454  49.808  1.00  0.00     0.167 HD
BRANCH  25  27
HETATM   27  C14 UNL     1      22.571   2.422  50.856  1.00  0.00     0.035 A 
HETATM   28  C15 UNL     1      21.772   3.275  51.612  1.00  0.00     0.032 A 
HETATM   29  C16 UNL     1      22.203   4.550  51.882  1.00  0.00     0.046 A 
HETATM   30  C17 UNL     1      23.413   4.990  51.416  1.00  0.00     0.138 A 
HETATM   31  F1  UNL     1      23.780   6.273  51.723  1.00  0.00    -0.204 F 
HETATM   32  C18 UNL     1      24.225   4.147  50.660  1.00  0.00     0.074 A 
HETATM   33 CL1  UNL     1      25.776   4.741  50.078  1.00  0.00    -0.081 Cl
HETATM   34  C19 UNL     1      23.781   2.870  50.395  1.00  0.00     0.056 A 
ENDBRANCH  25  27
ENDBRANCH   8  25
TORSDOF 6
ENDMDL
MODEL 3
REMARK VINA RESULT:      -9.2      2.642      3.527
REMARK  6 active torsions:
REMARK  status: ('A' for Active; 'I' for Inactive)
REMARK    1  A    between atoms: N1_1  and  C1_2 
REMARK    2  A    between atoms: N2_7  and  C6_8 
REMARK    3  A    between atoms: C6_8  and  N3_9 
REMARK       I    between atoms: N3_9  and  C7_10 
REMARK    4  A    between atoms: C7_10  and  C8_12 
REMARK    5  A    between atoms: C13_19  and  N6_20 
REMARK    6  A    between atoms: N6_20  and  C14_21 
ROOT
HETATM    1  C8  UNL     1      22.886  -0.505  54.135  1.00  0.00     0.033 A 
HETATM    2  C9  UNL     1      22.062  -1.531  54.572  1.00  0.00     0.019 A 
HETATM    3  C10 UNL     1      20.740  -1.589  54.195  1.00  0.00     0.034 A 
HETATM    4  C11 UNL     1      20.288  -0.585  53.369  1.00  0.00     0.072 A 
HETATM    5  N4  UNL     1      19.000  -0.616  52.982  1.00  0.00    -0.241 NA
HETATM    6  C12 UNL     1      18.560   0.377  52.164  1.00  0.00     0.236 A 
HETATM    7  N5  UNL     1      19.326   1.416  51.696  1.00  0.00    -0.224 NA
HETATM    8  C13 UNL     1      20.637   1.470  52.075  1.00  0.00     0.142 A 
HETATM    9  C20 UNL     1      21.093   0.453  52.916  1.00  0.00     0.040 A 
HETATM   10  C21 UNL     1      22.434   0.499  53.310  1.00  0.00     0.034 A 
ENDROOT
BRANCH   1  11
HETATM   11  C7  UNL     1      24.306  -0.560  54.539  1.00  0.00     0.253 C 
HETATM   12  N3  UNL     1      25.167   0.360  53.837  1.00  0.00    -0.331 N 
HETATM   13  H14 UNL     1      24.650   0.966  53.133  1.00  0.00     0.164 HD
HETATM   14  O1  UNL     1      24.959  -1.236  55.382  1.00  0.00    -0.268 OA
BRANCH  12  15
HETATM   15  C6  UNL     1      26.570   0.698  53.849  1.00  0.00     0.400 C 
BRANCH  15  16
HETATM   16  N2  UNL     1      27.443  -0.448  53.993  1.00  0.00     0.139 N 
HETATM   17  C1  UNL     1      28.736  -0.064  54.524  1.00  0.00     0.453 C 
HETATM   18  C2  UNL     1      29.888  -0.338  53.614  1.00  0.00     0.068 C 
HETATM   19  C3  UNL     1      29.917  -1.826  53.349  1.00  0.00     0.006 C 
HETATM   20  C4  UNL     1      28.551  -2.376  53.023  1.00  0.00     0.030 C 
HETATM   21  C5  UNL     1      27.506  -1.319  52.879  1.00  0.00     0.277 C 
BRANCH  17  22
HETATM   22  N1  UNL     1      28.713   1.346  54.910  1.00  0.00     0.112 N 
HETATM   23  H1  UNL     1      28.859   1.902  54.022  1.00  0.00     0.315 HD
HETATM   24  H2  UNL     1      27.725   1.528  55.198  1.00  0.00     0.315 HD
ENDBRANCH  17  22
ENDBRANCH  15  16
ENDBRANCH  12  15
ENDBRANCH   1  11
BRANCH   8  25
HETATM   25  N6  UNL     1      21.648   2.445  51.729  1.00  0.00    -0.340 N 
HETATM   26  H18 UNL     1      22.130   3.005  52.472  1.00  0.00     0.167 HD
BRANCH  25  27
HETATM   27  C14 UNL     1      21.835   2.458  50.327  1.00  0.00     0.035 A 
HETATM   28  C15 UNL     1      21.783   1.347  49.489  1.00  0.00     0.032 A 
HETATM   29  C16 UNL     1      21.965   1.504  48.138  1.00  0.00     0.046 A 
HETATM   30  C17 UNL     1      22.196   2.744  47.605  1.00  0.00     0.138 A 
HETATM   31  F1  UNL     1      22.369   2.828  46.249  1.00  0.00    -0.204 F 
HETATM   32  C18 UNL     1      22.250   3.866  48.430  1.00  0.00     0.074 A 
HETATM   33 CL1  UNL     1      22.547   5.446  47.714  1.00  0.00    -0.081 Cl
HETATM   34  C19 UNL     1      22.066   3.695  49.784  1.00  0.00     0.056 A 
ENDBRANCH  25  27
ENDBRANCH   8  25
TORSDOF 6
ENDMDL
MODEL 4
REMARK VINA RESULT:      -9.1      2.834      6.518
REMARK  6 active torsions:
REMARK  status: ('A' for Active; 'I' for Inactive)
REMARK    1  A    between atoms: N1_1  and  C1_2 
REMARK    2  A    between atoms: N2_7  and  C6_8 
REMARK    3  A    between atoms: C6_8  and  N3_9 
REMARK       I    between atoms: N3_9  and  C7_10 
REMARK    4  A    between atoms: C7_10  and  C8_12 
REMARK    5  A    between atoms: C13_19  and  N6_20 
REMARK    6  A    between atoms: N6_20  and  C14_21 
ROOT
HETATM    1  C8  UNL     1      21.195   0.484  51.970  1.00  0.00     0.033 A 
HETATM    2  C9  UNL     1      20.222  -0.149  52.729  1.00  0.00     0.019 A 
HETATM    3  C10 UNL     1      20.551  -0.840  53.873  1.00  0.00     0.034 A 
HETATM    4  C11 UNL     1      21.884  -0.867  54.217  1.00  0.00     0.072 A 
HETATM    5  N4  UNL     1      22.236  -1.535  55.330  1.00  0.00    -0.241 NA
HETATM    6  C12 UNL     1      23.553  -1.556  55.667  1.00  0.00     0.236 A 
HETATM    7  N5  UNL     1      24.562  -0.947  54.959  1.00  0.00    -0.224 NA
HETATM    8  C13 UNL     1      24.230  -0.264  53.824  1.00  0.00     0.142 A 
HETATM    9  C20 UNL     1      22.877  -0.241  53.474  1.00  0.00     0.040 A 
HETATM   10  C21 UNL     1      22.526   0.456  52.314  1.00  0.00     0.034 A 
ENDROOT
BRANCH   1  11
HETATM   11  C7  UNL     1      20.740   1.255  50.796  1.00  0.00     0.253 C 
HETATM   12  N3  UNL     1      21.187   2.627  50.767  1.00  0.00    -0.331 N 
HETATM   13  H14 UNL     1      21.801   2.886  51.596  1.00  0.00     0.164 HD
HETATM   14  O1  UNL     1      20.041   0.987  49.780  1.00  0.00    -0.268 OA
BRANCH  12  15
HETATM   15  C6  UNL     1      21.035   3.759  49.886  1.00  0.00     0.400 C 
BRANCH  15  16
HETATM   16  N2  UNL     1      22.155   4.677  49.921  1.00  0.00     0.139 N 
HETATM   17  C1  UNL     1      23.099   4.400  48.856  1.00  0.00     0.453 C 
HETATM   18  C2  UNL     1      24.464   4.013  49.322  1.00  0.00     0.068 C 
HETATM   19  C3  UNL     1      25.010   5.159  50.142  1.00  0.00     0.006 C 
HETATM   20  C4  UNL     1      24.000   5.689  51.127  1.00  0.00     0.030 C 
HETATM   21  C5  UNL     1      22.750   4.876  51.190  1.00  0.00     0.277 C 
BRANCH  17  22
HETATM   22  N1  UNL     1      22.554   3.378  47.965  1.00  0.00     0.112 N 
HETATM   23  H1  UNL     1      23.148   3.395  47.090  1.00  0.00     0.315 HD
HETATM   24  H2  UNL     1      22.771   2.470  48.436  1.00  0.00     0.315 HD
ENDBRANCH  17  22
ENDBRANCH  15  16
ENDBRANCH  12  15
ENDBRANCH   1  11
BRANCH   8  25
HETATM   25  N6  UNL     1      25.086   0.455  52.908  1.00  0.00    -0.340 N 
HETATM   26  H18 UNL     1      24.686   1.142  52.226  1.00  0.00     0.167 HD
BRANCH  25  27
HETATM   27  C14 UNL     1      26.434   0.083  53.127  1.00  0.00     0.035 A 
HETATM   28  C15 UNL     1      26.992  -1.159  52.836  1.00  0.00     0.032 A 
HETATM   29  C16 UNL     1      28.324  -1.381  53.083  1.00  0.00     0.046 A 
HETATM   30  C17 UNL     1      29.110  -0.392  53.610  1.00  0.00     0.138 A 
HETATM   31  F1  UNL     1      30.430  -0.683  53.831  1.00  0.00    -0.204 F 
HETATM   32  C18 UNL     1      28.567   0.857  53.905  1.00  0.00     0.074 A 
HETATM   33 CL1  UNL     1      29.604   2.108  54.580  1.00  0.00    -0.081 Cl
HETATM   34  C19 UNL     1      27.229   1.067  53.653  1.00  0.00     0.056 A 
ENDBRANCH  25  27
ENDBRANCH   8  25
TORSDOF 6
ENDMDL
MODEL 5
REMARK VINA RESULT:      -9.0      1.724      2.161
REMARK  6 active torsions:
REMARK  status: ('A' for Active; 'I' for Inactive)
REMARK    1  A    between atoms: N1_1  and  C1_2 
REMARK    2  A    between atoms: N2_7  and  C6_8 
REMARK    3  A    between atoms: C6_8  and  N3_9 
REMARK       I    between atoms: N3_9  and  C7_10 
REMARK    4  A    between atoms: C7_10  and  C8_12 
REMARK    5  A    between atoms: C13_19  and  N6_20 
REMARK    6  A    between atoms: N6_20  and  C14_21 
ROOT
HETATM    1  C8  UNL     1      22.801   1.833  50.702  1.00  0.00     0.033 A 
HETATM    2  C9  UNL     1      21.939   1.151  49.857  1.00  0.00     0.019 A 
HETATM    3  C10 UNL     1      21.548   1.694  48.654  1.00  0.00     0.034 A 
HETATM    4  C11 UNL     1      22.056   2.935  48.341  1.00  0.00     0.072 A 
HETATM    5  N4  UNL     1      21.693   3.490  47.171  1.00  0.00    -0.241 NA
HETATM    6  C12 UNL     1      22.200   4.714  46.866  1.00  0.00     0.236 A 
HETATM    7  N5  UNL     1      23.058   5.436  47.659  1.00  0.00    -0.224 NA
HETATM    8  C13 UNL     1      23.441   4.894  48.852  1.00  0.00     0.142 A 
HETATM    9  C20 UNL     1      22.922   3.637  49.170  1.00  0.00     0.040 A 
HETATM   10  C21 UNL     1      23.308   3.073  50.390  1.00  0.00     0.034 A 
ENDROOT
BRANCH   1  11
HETATM   11  C7  UNL     1      23.216   1.145  51.942  1.00  0.00     0.253 C 
HETATM   12  N3  UNL     1      24.626   0.852  52.025  1.00  0.00    -0.331 N 
HETATM   13  H14 UNL     1      25.176   1.192  51.180  1.00  0.00     0.164 HD
HETATM   14  O1  UNL     1      22.611   0.750  52.977  1.00  0.00    -0.268 OA
BRANCH  12  15
HETATM   15  C6  UNL     1      25.511   0.225  52.976  1.00  0.00     0.400 C 
BRANCH  15  16
HETATM   16  N2  UNL     1      26.864   0.739  52.938  1.00  0.00     0.139 N 
HETATM   17  C1  UNL     1      27.821  -0.258  53.372  1.00  0.00     0.453 C 
HETATM   18  C2  UNL     1      28.594   0.113  54.595  1.00  0.00     0.068 C 
HETATM   19  C3  UNL     1      29.352   1.385  54.288  1.00  0.00     0.006 C 
HETATM   20  C4  UNL     1      28.492   2.412  53.600  1.00  0.00     0.030 C 
HETATM   21  C5  UNL     1      27.054   2.019  53.513  1.00  0.00     0.277 C 
BRANCH  17  22
HETATM   22  N1  UNL     1      27.147  -1.541  53.564  1.00  0.00     0.112 N 
HETATM   23  H1  UNL     1      27.789  -2.280  53.163  1.00  0.00     0.315 HD
HETATM   24  H2  UNL     1      27.152  -1.693  54.598  1.00  0.00     0.315 HD
ENDBRANCH  17  22
ENDBRANCH  15  16
ENDBRANCH  12  15
ENDBRANCH   1  11
BRANCH   8  25
HETATM   25  N6  UNL     1      24.323   5.439  49.861  1.00  0.00    -0.340 N 
HETATM   26  H18 UNL     1      23.969   5.657  50.822  1.00  0.00     0.167 HD
BRANCH  25  27
HETATM   27  C14 UNL     1      25.627   5.575  49.328  1.00  0.00     0.035 A 
HETATM   28  C15 UNL     1      26.550   4.546  49.163  1.00  0.00     0.032 A 
HETATM   29  C16 UNL     1      27.778   4.815  48.613  1.00  0.00     0.046 A 
HETATM   30  C17 UNL     1      28.105   6.086  48.223  1.00  0.00     0.138 A 
HETATM   31  F1  UNL     1      29.348   6.282  47.684  1.00  0.00    -0.204 F 
HETATM   32  C18 UNL     1      27.192   7.126  48.380  1.00  0.00     0.074 A 
HETATM   33 CL1  UNL     1      27.640   8.749  47.868  1.00  0.00    -0.081 Cl
HETATM   34  C19 UNL     1      25.962   6.844  48.934  1.00  0.00     0.056 A 
ENDBRANCH  25  27
ENDBRANCH   8  25
TORSDOF 6
ENDMDL
MODEL 6
REMARK VINA RESULT:      -8.9      1.372      1.740
REMARK  6 active torsions:
REMARK  status: ('A' for Active; 'I' for Inactive)
REMARK    1  A    between atoms: N1_1  and  C1_2 
REMARK    2  A    between atoms: N2_7  and  C6_8 
REMARK    3  A    between atoms: C6_8  and  N3_9 
REMARK       I    between atoms: N3_9  and  C7_10 
REMARK    4  A    between atoms: C7_10  and  C8_12 
REMARK    5  A    between atoms: C13_19  and  N6_20 
REMARK    6  A    between atoms: N6_20  and  C14_21 
ROOT
HETATM    1  C8  UNL     1      21.942   0.750  52.655  1.00  0.00     0.033 A 
HETATM    2  C9  UNL     1      20.834   0.195  52.033  1.00  0.00     0.019 A 
HETATM    3  C10 UNL     1      19.974   0.972  51.291  1.00  0.00     0.034 A 
HETATM    4  C11 UNL     1      20.273   2.314  51.202  1.00  0.00     0.072 A 
HETATM    5  N4  UNL     1      19.451   3.098  50.482  1.00  0.00    -0.241 NA
HETATM    6  C12 UNL     1      19.752   4.420  50.394  1.00  0.00     0.236 A 
HETATM    7  N5  UNL     1      20.835   5.027  50.984  1.00  0.00    -0.224 NA
HETATM    8  C13 UNL     1      21.684   4.251  51.721  1.00  0.00     0.142 A 
HETATM    9  C20 UNL     1      21.377   2.892  51.814  1.00  0.00     0.040 A 
HETATM   10  C21 UNL     1      22.240   2.089  52.566  1.00  0.00     0.034 A 
ENDROOT
BRANCH   1  11
HETATM   11  C7  UNL     1      22.843  -0.172  53.377  1.00  0.00     0.253 C 
HETATM   12  N3  UNL     1      24.238  -0.039  53.036  1.00  0.00    -0.331 N 
HETATM   13  H14 UNL     1      24.425   0.724  52.318  1.00  0.00     0.164 HD
HETATM   14  O1  UNL     1      22.675  -1.067  54.251  1.00  0.00    -0.268 OA
BRANCH  12  15
HETATM   15  C6  UNL     1      25.477  -0.664  53.431  1.00  0.00     0.400 C 
BRANCH  15  16
HETATM   16  N2  UNL     1      26.652   0.118  53.108  1.00  0.00     0.139 N 
HETATM   17  C1  UNL     1      27.839  -0.711  53.047  1.00  0.00     0.453 C 
HETATM   18  C2  UNL     1      28.893  -0.361  54.046  1.00  0.00     0.068 C 
HETATM   19  C3  UNL     1      29.310   1.069  53.790  1.00  0.00     0.006 C 
HETATM   20  C4  UNL     1      28.128   1.983  53.591  1.00  0.00     0.030 C 
HETATM   21  C5  UNL     1      26.816   1.317  53.843  1.00  0.00     0.277 C 
BRANCH  17  22
HETATM   22  N1  UNL     1      27.466  -2.119  53.169  1.00  0.00     0.112 N 
HETATM   23  H1  UNL     1      26.472  -2.135  53.531  1.00  0.00     0.315 HD
HETATM   24  H2  UNL     1      27.414  -2.467  52.184  1.00  0.00     0.315 HD
ENDBRANCH  17  22
ENDBRANCH  15  16
ENDBRANCH  12  15
ENDBRANCH   1  11
BRANCH   8  25
HETATM   25  N6  UNL     1      22.881   4.635  52.437  1.00  0.00    -0.340 N 
HETATM   26  H18 UNL     1      22.966   4.468  53.467  1.00  0.00     0.167 HD
BRANCH  25  27
HETATM   27  C14 UNL     1      23.813   5.202  51.535  1.00  0.00     0.035 A 
HETATM   28  C15 UNL     1      23.942   6.557  51.246  1.00  0.00     0.032 A 
HETATM   29  C16 UNL     1      24.905   6.975  50.361  1.00  0.00     0.046 A 
HETATM   30  C17 UNL     1      25.742   6.072  49.762  1.00  0.00     0.138 A 
HETATM   31  F1  UNL     1      26.678   6.558  48.890  1.00  0.00    -0.204 F 
HETATM   32  C18 UNL     1      25.625   4.712  50.043  1.00  0.00     0.074 A 
HETATM   33 CL1  UNL     1      26.716   3.575  49.258  1.00  0.00    -0.081 Cl
HETATM   34  C19 UNL     1      24.654   4.305  50.932  1.00  0.00     0.056 A 
ENDBRANCH  25  27
ENDBRANCH   8  25
TORSDOF 6
ENDMDL
MODEL 7
REMARK VINA RESULT:      -8.9      1.704      2.282
REMARK  6 active torsions:
REMARK  status: ('A' for Active; 'I' for Inactive)
REMARK    1  A    between atoms: N1_1  and  C1_2 
REMARK    2  A    between atoms: N2_7  and  C6_8 
REMARK    3  A    between atoms: C6_8  and  N3_9 
REMARK       I    between atoms: N3_9  and  C7_10 
REMARK    4  A    between atoms: C7_10  and  C8_12 
REMARK    5  A    between atoms: C13_19  and  N6_20 
REMARK    6  A    between atoms: N6_20  and  C14_21 
ROOT
HETATM    1  C8  UNL     1      23.220   0.741  52.167  1.00  0.00     0.033 A 
HETATM    2  C9  UNL     1      21.967   0.160  52.038  1.00  0.00     0.019 A 
HETATM    3  C10 UNL     1      21.155   0.456  50.967  1.00  0.00     0.034 A 
HETATM    4  C11 UNL     1      21.650   1.348  50.043  1.00  0.00     0.072 A 
HETATM    5  N4  UNL     1      20.878   1.655  48.984  1.00  0.00    -0.241 NA
HETATM    6  C12 UNL     1      21.373   2.534  48.073  1.00  0.00     0.236 A 
HETATM    7  N5  UNL     1      22.605   3.139  48.144  1.00  0.00    -0.224 NA
HETATM    8  C13 UNL     1      23.406   2.844  49.210  1.00  0.00     0.142 A 
HETATM    9  C20 UNL     1      22.901   1.942  50.149  1.00  0.00     0.040 A 
HETATM   10  C21 UNL     1      23.713   1.633  51.244  1.00  0.00     0.034 A 
ENDROOT
BRANCH   1  11
HETATM   11  C7  UNL     1      24.046   0.316  53.315  1.00  0.00     0.253 C 
HETATM   12  N3  UNL     1      25.335   0.959  53.399  1.00  0.00    -0.331 N 
HETATM   13  H14 UNL     1      25.502   1.668  52.624  1.00  0.00     0.164 HD
HETATM   14  O1  UNL     1      23.883  -0.494  54.269  1.00  0.00    -0.268 OA
BRANCH  12  15
HETATM   15  C6  UNL     1      26.474   0.909  54.282  1.00  0.00     0.400 C 
BRANCH  15  16
HETATM   16  N2  UNL     1      27.227  -0.324  54.193  1.00  0.00     0.139 N 
HETATM   17  C1  UNL     1      28.597  -0.141  54.631  1.00  0.00     0.453 C 
HETATM   18  C2  UNL     1      29.624  -0.402  53.579  1.00  0.00     0.068 C 
HETATM   19  C3  UNL     1      29.467  -1.837  53.131  1.00  0.00     0.006 C 
HETATM   20  C4  UNL     1      28.025  -2.204  52.884  1.00  0.00     0.030 C 
HETATM   21  C5  UNL     1      27.094  -1.041  52.980  1.00  0.00     0.277 C 
BRANCH  17  22
HETATM   22  N1  UNL     1      28.763   1.200  55.187  1.00  0.00     0.112 N 
HETATM   23  H1  UNL     1      29.487   1.686  54.587  1.00  0.00     0.315 HD
HETATM   24  H2  UNL     1      27.859   1.686  54.987  1.00  0.00     0.315 HD
ENDBRANCH  17  22
ENDBRANCH  15  16
ENDBRANCH  12  15
ENDBRANCH   1  11
BRANCH   8  25
HETATM   25  N6  UNL     1      24.730   3.337  49.521  1.00  0.00    -0.340 N 
HETATM   26  H18 UNL     1      25.556   2.693  49.521  1.00  0.00     0.167 HD
BRANCH  25  27
HETATM   27  C14 UNL     1      24.671   4.728  49.775  1.00  0.00     0.035 A 
HETATM   28  C15 UNL     1      24.000   5.333  50.834  1.00  0.00     0.032 A 
HETATM   29  C16 UNL     1      24.040   6.698  50.974  1.00  0.00     0.046 A 
HETATM   30  C17 UNL     1      24.735   7.471  50.082  1.00  0.00     0.138 A 
HETATM   31  F1  UNL     1      24.731   8.825  50.281  1.00  0.00    -0.204 F 
HETATM   32  C18 UNL     1      25.412   6.880  49.017  1.00  0.00     0.074 A 
HETATM   33 CL1  UNL     1      26.297   7.900  47.889  1.00  0.00    -0.081 Cl
HETATM   34  C19 UNL     1      25.364   5.509  48.888  1.00  0.00     0.056 A 
ENDBRANCH  25  27
ENDBRANCH   8  25
TORSDOF 6
ENDMDL
MODEL 8
REMARK VINA RESULT:      -8.9      3.856      7.410
REMARK  6 active torsions:
REMARK  status: ('A' for Active; 'I' for Inactive)
REMARK    1  A    between atoms: N1_1  and  C1_2 
REMARK    2  A    between atoms: N2_7  and  C6_8 
REMARK    3  A    between atoms: C6_8  and  N3_9 
REMARK       I    between atoms: N3_9  and  C7_10 
REMARK    4  A    between atoms: C7_10  and  C8_12 
REMARK    5  A    between atoms: C13_19  and  N6_20 
REMARK    6  A    between atoms: N6_20  and  C14_21 
ROOT
HETATM    1  C8  UNL     1      25.113   3.283  50.090  1.00  0.00     0.033 A 
HETATM    2  C9  UNL     1      23.991   3.195  49.280  1.00  0.00     0.019 A 
HETATM    3  C10 UNL     1      22.916   2.414  49.638  1.00  0.00     0.034 A 
HETATM    4  C11 UNL     1      23.016   1.734  50.831  1.00  0.00     0.072 A 
HETATM    5  N4  UNL     1      21.980   0.964  51.208  1.00  0.00    -0.241 NA
HETATM    6  C12 UNL     1      22.083   0.298  52.389  1.00  0.00     0.236 A 
HETATM    7  N5  UNL     1      23.164   0.347  53.235  1.00  0.00    -0.224 NA
HETATM    8  C13 UNL     1      24.229   1.122  52.874  1.00  0.00     0.142 A 
HETATM    9  C20 UNL     1      24.128   1.807  51.661  1.00  0.00     0.040 A 
HETATM   10  C21 UNL     1      25.212   2.604  51.282  1.00  0.00     0.034 A 
ENDROOT
BRANCH   1  11
HETATM   11  C7  UNL     1      26.190   4.196  49.655  1.00  0.00     0.253 C 
HETATM   12  N3  UNL     1      25.848   5.596  49.704  1.00  0.00    -0.331 N 
HETATM   13  H14 UNL     1      24.865   5.776  50.067  1.00  0.00     0.164 HD
HETATM   14  O1  UNL     1      27.374   4.034  49.248  1.00  0.00    -0.268 OA
BRANCH  12  15
HETATM   15  C6  UNL     1      26.505   6.846  49.405  1.00  0.00     0.400 C 
BRANCH  15  16
HETATM   16  N2  UNL     1      26.727   7.062  47.991  1.00  0.00     0.139 N 
HETATM   17  C1  UNL     1      28.141   7.069  47.672  1.00  0.00     0.453 C 
HETATM   18  C2  UNL     1      28.644   8.356  47.108  1.00  0.00     0.068 C 
HETATM   19  C3  UNL     1      27.878   8.627  45.833  1.00  0.00     0.006 C 
HETATM   20  C4  UNL     1      26.397   8.405  45.998  1.00  0.00     0.030 C 
HETATM   21  C5  UNL     1      25.993   8.122  47.407  1.00  0.00     0.277 C 
BRANCH  17  22
HETATM   22  N1  UNL     1      28.916   6.690  48.853  1.00  0.00     0.112 N 
HETATM   23  H1  UNL     1      29.922   6.609  48.537  1.00  0.00     0.315 HD
HETATM   24  H2  UNL     1      28.882   7.530  49.475  1.00  0.00     0.315 HD
ENDBRANCH  17  22
ENDBRANCH  15  16
ENDBRANCH  12  15
ENDBRANCH   1  11
BRANCH   8  25
HETATM   25  N6  UNL     1      25.475   1.344  53.573  1.00  0.00    -0.340 N 
HETATM   26  H18 UNL     1      25.623   2.211  54.142  1.00  0.00     0.167 HD
BRANCH  25  27
HETATM   27  C14 UNL     1      26.342   0.246  53.361  1.00  0.00     0.035 A 
HETATM   28  C15 UNL     1      25.959  -1.019  52.923  1.00  0.00     0.032 A 
HETATM   29  C16 UNL     1      26.909  -1.992  52.739  1.00  0.00     0.046 A 
HETATM   30  C17 UNL     1      28.231  -1.731  52.981  1.00  0.00     0.138 A 
HETATM   31  F1  UNL     1      29.125  -2.748  52.778  1.00  0.00    -0.204 F 
HETATM   32  C18 UNL     1      28.630  -0.469  53.418  1.00  0.00     0.074 A 
HETATM   33 CL1  UNL     1      30.337  -0.163  53.719  1.00  0.00    -0.081 Cl
HETATM   34  C19 UNL     1      27.667   0.499  53.599  1.00  0.00     0.056 A 
ENDBRANCH  25  27
ENDBRANCH   8  25
TORSDOF 6
ENDMDL
MODEL 9
REMARK VINA RESULT:      -8.8      2.773      6.424
REMARK  6 active torsions:
REMARK  status: ('A' for Active; 'I' for Inactive)
REMARK    1  A    between atoms: N1_1  and  C1_2 
REMARK    2  A    between atoms: N2_7  and  C6_8 
REMARK    3  A    between atoms: C6_8  and  N3_9 
REMARK       I    between atoms: N3_9  and  C7_10 
REMARK    4  A    between atoms: C7_10  and  C8_12 
REMARK    5  A    between atoms: C13_19  and  N6_20 
REMARK    6  A    between atoms: N6_20  and  C14_21 
ROOT
HETATM    1  C8  UNL     1      23.855  -0.590  54.252  1.00  0.00     0.033 A 
HETATM    2  C9  UNL     1      24.908  -0.833  55.122  1.00  0.00     0.019 A 
HETATM    3  C10 UNL     1      26.132  -0.233  54.938  1.00  0.00     0.034 A 
HETATM    4  C11 UNL     1      26.252   0.613  53.858  1.00  0.00     0.072 A 
HETATM    5  N4  UNL     1      27.437   1.215  53.654  1.00  0.00    -0.241 NA
HETATM    6  C12 UNL     1      27.548   2.051  52.588  1.00  0.00     0.236 A 
HETATM    7  N5  UNL     1      26.543   2.334  51.695  1.00  0.00    -0.224 NA
HETATM    8  C13 UNL     1      25.330   1.734  51.880  1.00  0.00     0.142 A 
HETATM    9  C20 UNL     1      25.213   0.873  52.974  1.00  0.00     0.040 A 
HETATM   10  C21 UNL     1      23.975   0.254  53.173  1.00  0.00     0.034 A 
ENDROOT
BRANCH   1  11
HETATM   11  C7  UNL     1      22.560  -1.228  54.565  1.00  0.00     0.253 C 
HETATM   12  N3  UNL     1      21.444  -0.732  53.796  1.00  0.00    -0.331 N 
HETATM   13  H14 UNL     1      21.718   0.019  53.094  1.00  0.00     0.164 HD
HETATM   14  O1  UNL     1      22.192  -2.135  55.362  1.00  0.00    -0.268 OA
BRANCH  12  15
HETATM   15  C6  UNL     1      20.029  -1.002  53.711  1.00  0.00     0.400 C 
BRANCH  15  16
HETATM   16  N2  UNL     1      19.317  -0.096  52.833  1.00  0.00     0.139 N 
HETATM   17  C1  UNL     1      17.907  -0.424  52.768  1.00  0.00     0.453 C 
HETATM   18  C2  UNL     1      17.421  -0.809  51.410  1.00  0.00     0.068 C 
HETATM   19  C3  UNL     1      17.671   0.361  50.485  1.00  0.00     0.006 C 
HETATM   20  C4  UNL     1      19.052   0.939  50.656  1.00  0.00     0.030 C 
HETATM   21  C5  UNL     1      19.919   0.143  51.575  1.00  0.00     0.277 C 
BRANCH  17  22
HETATM   22  N1  UNL     1      17.597  -1.472  53.738  1.00  0.00     0.112 N 
HETATM   23  H1  UNL     1      18.389  -2.171  53.687  1.00  0.00     0.315 HD
HETATM   24  H2  UNL     1      17.689  -1.008  54.671  1.00  0.00     0.315 HD
ENDBRANCH  17  22
ENDBRANCH  15  16
ENDBRANCH  12  15
ENDBRANCH   1  11
BRANCH   8  25
HETATM   25  N6  UNL     1      24.122   1.857  51.096  1.00  0.00    -0.340 N 
HETATM   26  H18 UNL     1      23.696   1.021  50.631  1.00  0.00     0.167 HD
BRANCH  25  27
HETATM   27  C14 UNL     1      23.680   3.202  51.112  1.00  0.00     0.035 A 
HETATM   28  C15 UNL     1      23.187   3.881  52.223  1.00  0.00     0.032 A 
HETATM   29  C16 UNL     1      22.809   5.195  52.104  1.00  0.00     0.046 A 
HETATM   30  C17 UNL     1      22.913   5.845  50.903  1.00  0.00     0.138 A 
HETATM   31  F1  UNL     1      22.517   7.155  50.856  1.00  0.00    -0.204 F 
HETATM   32  C18 UNL     1      23.406   5.179  49.783  1.00  0.00     0.074 A 
HETATM   33 CL1  UNL     1      23.530   6.042  48.255  1.00  0.00    -0.081 Cl
HETATM   34  C19 UNL     1      23.782   3.860  49.915  1.00  0.00     0.056 A 
ENDBRANCH  25  27
ENDBRANCH   8  25
TORSDOF 6
ENDMDL
