MODEL 1
REMARK VINA RESULT:      -9.0      0.000      0.000
REMARK  6 active torsions:
REMARK  status: ('A' for Active; 'I' for Inactive)
REMARK    1  A    between atoms: C1_2  and  C2_3 
REMARK    2  A    between atoms: C2_3  and  N2_4 
REMARK    3  A    between atoms: N3_7  and  C5_8 
REMARK    4  A    between atoms: C5_8  and  C6_9 
REMARK    5  A    between atoms: N6_20  and  C15_21 
REMARK    6  A    between atoms: C15_21  and  C16_22 
ROOT
HETATM    1  C6  UNL     1      27.825   6.752  48.134  1.00  0.00    -0.034 C 
HETATM    2  C7  UNL     1      28.069   5.532  48.592  1.00  0.00    -0.013 C 
HETATM    3  C8  UNL     1      27.207   4.356  48.862  1.00  0.00     0.069 C 
HETATM    4  C9  UNL     1      25.888   4.734  49.459  1.00  0.00    -0.018 C 
HETATM    5  C10 UNL     1      25.045   5.775  49.244  1.00  0.00     0.036 C 
HETATM    6  C11 UNL     1      25.347   6.839  48.248  1.00  0.00     0.030 C 
HETATM    7  C12 UNL     1      26.507   7.297  47.737  1.00  0.00     0.011 C 
HETATM    8  N4  UNL     1      23.856   5.685  50.087  1.00  0.00    -0.376 N 
HETATM    9  C13 UNL     1      24.419   5.005  51.214  1.00  0.00     0.159 A 
HETATM   10  C14 UNL     1      23.570   4.515  52.271  1.00  0.00     0.141 A 
HETATM   11  N5  UNL     1      23.569   3.269  52.530  1.00  0.00    -0.187 NA
HETATM   12  N6  UNL     1      24.314   2.284  51.875  1.00  0.00    -0.277 N 
HETATM   13  C22 UNL     1      25.171   2.650  50.789  1.00  0.00     0.122 A 
HETATM   14  C23 UNL     1      25.185   3.925  50.483  1.00  0.00    -0.004 A 
HETATM   15  H16 UNL     1      22.967   6.072  49.760  1.00  0.00     0.160 HD
ENDROOT
BRANCH   1  16
HETATM   16  C5  UNL     1      28.888   7.779  47.950  1.00  0.00     0.310 C 
BRANCH  16  17
HETATM   17  N3  UNL     1      30.222   7.253  47.965  1.00  0.00     0.096 N 
HETATM   18  C4  UNL     1      30.731   7.315  46.632  1.00  0.00     0.303 C 
HETATM   19  C3  UNL     1      32.191   7.093  46.496  1.00  0.00     0.303 C 
HETATM   20  N2  UNL     1      32.859   8.054  47.351  1.00  0.00     0.096 N 
HETATM   21  C25 UNL     1      32.531   7.725  48.700  1.00  0.00     0.303 C 
HETATM   22  C24 UNL     1      31.068   7.694  48.995  1.00  0.00     0.303 C 
BRANCH  20  23
HETATM   23  C2  UNL     1      34.277   7.889  47.127  1.00  0.00     0.318 C 
BRANCH  23  24
HETATM   24  C1  UNL     1      35.050   7.769  48.378  1.00  0.00     0.110 C 
HETATM   25  N1  UNL     1      36.134   8.459  48.518  1.00  0.00    -0.315 NA
HETATM   26  H1  UNL     1      36.683   8.379  49.398  1.00  0.00     0.185 HD
ENDBRANCH  23  24
ENDBRANCH  20  23
ENDBRANCH  16  17
ENDBRANCH   1  16
BRANCH  12  27
HETATM   27  C15 UNL     1      24.261   0.888  52.251  1.00  0.00     0.189 C 
BRANCH  27  28
HETATM   28  C16 UNL     1      25.588   0.499  52.842  1.00  0.00    -0.038 A 
HETATM   29  C17 UNL     1      25.997   1.129  54.016  1.00  0.00     0.009 A 
HETATM   30  C18 UNL     1      27.227   0.791  54.589  1.00  0.00     0.001 A 
HETATM   31  C19 UNL     1      27.998  -0.152  53.977  1.00  0.00     0.000 A 
HETATM   32  C20 UNL     1      27.609  -0.778  52.825  1.00  0.00     0.001 A 
HETATM   33  C21 UNL     1      26.388  -0.456  52.239  1.00  0.00     0.009 A 
ENDBRANCH  27  28
ENDBRANCH  12  27
TORSDOF 6
ENDMDL
MODEL 2
REMARK VINA RESULT:      -8.6      1.520      2.629
REMARK  6 active torsions:
REMARK  status: ('A' for Active; 'I' for Inactive)
REMARK    1  A    between atoms: C1_2  and  C2_3 
REMARK    2  A    between atoms: C2_3  and  N2_4 
REMARK    3  A    between atoms: N3_7  and  C5_8 
REMARK    4  A    between atoms: C5_8  and  C6_9 
REMARK    5  A    between atoms: N6_20  and  C15_21 
REMARK    6  A    between atoms: C15_21  and  C16_22 
ROOT
HETATM    1  C6  UNL     1      27.725   6.801  48.115  1.00  0.00    -0.034 C 
HETATM    2  C7  UNL     1      27.952   5.590  48.606  1.00  0.00    -0.013 C 
HETATM    3  C8  UNL     1      27.079   4.424  48.878  1.00  0.00     0.069 C 
HETATM    4  C9  UNL     1      25.748   4.819  49.436  1.00  0.00    -0.018 C 
HETATM    5  C10 UNL     1      24.915   5.859  49.178  1.00  0.00     0.036 C 
HETATM    6  C11 UNL     1      25.245   6.900  48.168  1.00  0.00     0.030 C 
HETATM    7  C12 UNL     1      26.419   7.343  47.675  1.00  0.00     0.011 C 
HETATM    8  N4  UNL     1      23.705   5.792  49.993  1.00  0.00    -0.376 N 
HETATM    9  C13 UNL     1      24.237   5.133  51.148  1.00  0.00     0.159 A 
HETATM   10  C14 UNL     1      23.361   4.670  52.194  1.00  0.00     0.141 A 
HETATM   11  N5  UNL     1      23.348   3.429  52.479  1.00  0.00    -0.187 NA
HETATM   12  N6  UNL     1      24.104   2.428  51.864  1.00  0.00    -0.277 N 
HETATM   13  C22 UNL     1      24.989   2.767  50.791  1.00  0.00     0.122 A 
HETATM   14  C23 UNL     1      25.016   4.035  50.459  1.00  0.00    -0.004 A 
HETATM   15  H16 UNL     1      22.826   6.174  49.637  1.00  0.00     0.160 HD
ENDROOT
BRANCH   1  16
HETATM   16  C5  UNL     1      28.797   7.819  47.936  1.00  0.00     0.310 C 
BRANCH  16  17
HETATM   17  N3  UNL     1      30.128   7.291  48.014  1.00  0.00     0.096 N 
HETATM   18  C4  UNL     1      30.679   7.301  46.695  1.00  0.00     0.303 C 
HETATM   19  C3  UNL     1      32.142   7.070  46.614  1.00  0.00     0.303 C 
HETATM   20  N2  UNL     1      32.786   8.063  47.452  1.00  0.00     0.096 N 
HETATM   21  C25 UNL     1      32.414   7.788  48.802  1.00  0.00     0.303 C 
HETATM   22  C24 UNL     1      30.943   7.772  49.052  1.00  0.00     0.303 C 
BRANCH  20  23
HETATM   23  C2  UNL     1      34.209   7.887  47.279  1.00  0.00     0.318 C 
BRANCH  23  24
HETATM   24  C1  UNL     1      34.899   7.501  48.526  1.00  0.00     0.110 C 
HETATM   25  N1  UNL     1      36.191   7.493  48.554  1.00  0.00    -0.315 NA
HETATM   26  H1  UNL     1      36.683   7.222  49.430  1.00  0.00     0.185 HD
ENDBRANCH  23  24
ENDBRANCH  20  23
ENDBRANCH  16  17
ENDBRANCH   1  16
BRANCH  12  27
HETATM   27  C15 UNL     1      24.036   1.040  52.268  1.00  0.00     0.189 C 
BRANCH  27  28
HETATM   28  C16 UNL     1      22.590   0.654  52.418  1.00  0.00    -0.038 A 
HETATM   29  C17 UNL     1      22.143   0.248  53.674  1.00  0.00     0.009 A 
HETATM   30  C18 UNL     1      20.805  -0.120  53.846  1.00  0.00     0.001 A 
HETATM   31  C19 UNL     1      19.968  -0.070  52.770  1.00  0.00     0.000 A 
HETATM   32  C20 UNL     1      20.393   0.327  51.533  1.00  0.00     0.001 A 
HETATM   33  C21 UNL     1      21.721   0.697  51.341  1.00  0.00     0.009 A 
ENDBRANCH  27  28
ENDBRANCH  12  27
TORSDOF 6
ENDMDL
MODEL 3
REMARK VINA RESULT:      -8.5      6.732     10.708
REMARK  6 active torsions:
REMARK  status: ('A' for Active; 'I' for Inactive)
REMARK    1  A    between atoms: C1_2  and  C2_3 
REMARK    2  A    between atoms: C2_3  and  N2_4 
REMARK    3  A    between atoms: N3_7  and  C5_8 
REMARK    4  A    between atoms: C5_8  and  C6_9 
REMARK    5  A    between atoms: N6_20  and  C15_21 
REMARK    6  A    between atoms: C15_21  and  C16_22 
ROOT
HETATM    1  C6  UNL     1      22.473  -0.312  52.995  1.00  0.00    -0.034 C 
HETATM    2  C7  UNL     1      22.089   0.846  52.478  1.00  0.00    -0.013 C 
HETATM    3  C8  UNL     1      20.828   1.622  52.547  1.00  0.00     0.069 C 
HETATM    4  C9  UNL     1      19.612   0.752  52.482  1.00  0.00    -0.018 C 
HETATM    5  C10 UNL     1      19.329  -0.472  52.995  1.00  0.00     0.036 C 
HETATM    6  C11 UNL     1      20.315  -1.232  53.809  1.00  0.00     0.030 C 
HETATM    7  C12 UNL     1      21.662  -1.207  53.853  1.00  0.00     0.011 C 
HETATM    8  N4  UNL     1      17.973  -0.895  52.653  1.00  0.00    -0.376 N 
HETATM    9  C13 UNL     1      17.827  -0.224  51.398  1.00  0.00     0.159 A 
HETATM   10  C14 UNL     1      16.550  -0.190  50.731  1.00  0.00     0.141 A 
HETATM   11  N5  UNL     1      16.013   0.939  50.490  1.00  0.00    -0.187 NA
HETATM   12  N6  UNL     1      16.534   2.194  50.821  1.00  0.00    -0.277 N 
HETATM   13  C22 UNL     1      17.784   2.282  51.512  1.00  0.00     0.122 A 
HETATM   14  C23 UNL     1      18.358   1.137  51.792  1.00  0.00    -0.004 A 
HETATM   15  H16 UNL     1      17.453  -1.508  53.288  1.00  0.00     0.160 HD
ENDROOT
BRANCH   1  16
HETATM   16  C5  UNL     1      23.826  -0.893  52.772  1.00  0.00     0.310 C 
BRANCH  16  17
HETATM   17  N3  UNL     1      24.904  -0.065  53.230  1.00  0.00     0.096 N 
HETATM   18  C4  UNL     1      25.291  -0.530  54.525  1.00  0.00     0.303 C 
HETATM   19  C3  UNL     1      26.576   0.006  55.036  1.00  0.00     0.303 C 
HETATM   20  N2  UNL     1      27.596  -0.295  54.051  1.00  0.00     0.096 N 
HETATM   21  C25 UNL     1      27.290   0.456  52.877  1.00  0.00     0.303 C 
HETATM   22  C24 UNL     1      25.932   0.205  52.313  1.00  0.00     0.303 C 
BRANCH  20  23
HETATM   23  C2  UNL     1      28.853   0.143  54.613  1.00  0.00     0.318 C 
BRANCH  23  24
HETATM   24  C1  UNL     1      29.323   1.423  54.049  1.00  0.00     0.110 C 
HETATM   25  N1  UNL     1      29.700   2.364  54.851  1.00  0.00    -0.315 NA
HETATM   26  H1  UNL     1      30.032   3.269  54.459  1.00  0.00     0.185 HD
ENDBRANCH  23  24
ENDBRANCH  20  23
ENDBRANCH  16  17
ENDBRANCH   1  16
BRANCH  12  27
HETATM   27  C15 UNL     1      15.858   3.429  50.490  1.00  0.00     0.189 C 
BRANCH  27  28
HETATM   28  C16 UNL     1      14.872   3.744  51.582  1.00  0.00    -0.038 A 
HETATM   29  C17 UNL     1      13.520   3.514  51.336  1.00  0.00     0.009 A 
HETATM   30  C18 UNL     1      12.578   3.799  52.329  1.00  0.00     0.001 A 
HETATM   31  C19 UNL     1      13.014   4.300  53.521  1.00  0.00     0.000 A 
HETATM   32  C20 UNL     1      14.337   4.530  53.776  1.00  0.00     0.001 A 
HETATM   33  C21 UNL     1      15.290   4.252  52.800  1.00  0.00     0.009 A 
ENDBRANCH  27  28
ENDBRANCH  12  27
TORSDOF 6
ENDMDL
MODEL 4
REMARK VINA RESULT:      -8.4      1.343      1.654
REMARK  6 active torsions:
REMARK  status: ('A' for Active; 'I' for Inactive)
REMARK    1  A    between atoms: C1_2  and  C2_3 
REMARK    2  A    between atoms: C2_3  and  N2_4 
REMARK    3  A    between atoms: N3_7  and  C5_8 
REMARK    4  A    between atoms: C5_8  and  C6_9 
REMARK    5  A    between atoms: N6_20  and  C15_21 
REMARK    6  A    between atoms: C15_21  and  C16_22 
ROOT
HETATM    1  C6  UNL     1      28.466   7.509  47.894  1.00  0.00    -0.034 C 
HETATM    2  C7  UNL     1      28.661   6.305  48.415  1.00  0.00    -0.013 C 
HETATM    3  C8  UNL     1      27.800   5.106  48.552  1.00  0.00     0.069 C 
HETATM    4  C9  UNL     1      26.386   5.450  48.900  1.00  0.00    -0.018 C 
HETATM    5  C10 UNL     1      25.564   6.460  48.517  1.00  0.00     0.036 C 
HETATM    6  C11 UNL     1      26.006   7.517  47.568  1.00  0.00     0.030 C 
HETATM    7  C12 UNL     1      27.223   8.005  47.260  1.00  0.00     0.011 C 
HETATM    8  N4  UNL     1      24.248   6.344  49.139  1.00  0.00    -0.376 N 
HETATM    9  C13 UNL     1      24.622   5.700  50.361  1.00  0.00     0.159 A 
HETATM   10  C14 UNL     1      23.614   5.200  51.262  1.00  0.00     0.141 A 
HETATM   11  N5  UNL     1      23.603   3.958  51.543  1.00  0.00    -0.187 NA
HETATM   12  N6  UNL     1      24.481   2.988  51.051  1.00  0.00    -0.277 N 
HETATM   13  C22 UNL     1      25.506   3.365  50.126  1.00  0.00     0.122 A 
HETATM   14  C23 UNL     1      25.536   4.634  49.800  1.00  0.00    -0.004 A 
HETATM   15  H16 UNL     1      23.419   6.696  48.652  1.00  0.00     0.160 HD
ENDROOT
BRANCH   1  16
HETATM   16  C5  UNL     1      29.515   8.567  47.879  1.00  0.00     0.310 C 
BRANCH  16  17
HETATM   17  N3  UNL     1      30.839   8.078  47.625  1.00  0.00     0.096 N 
HETATM   18  C4  UNL     1      31.437   7.764  48.884  1.00  0.00     0.303 C 
HETATM   19  C3  UNL     1      32.689   6.973  48.816  1.00  0.00     0.303 C 
HETATM   20  N2  UNL     1      32.401   5.767  48.064  1.00  0.00     0.096 N 
HETATM   21  C25 UNL     1      32.105   6.160  46.725  1.00  0.00     0.303 C 
HETATM   22  C24 UNL     1      30.982   7.134  46.595  1.00  0.00     0.303 C 
BRANCH  20  23
HETATM   23  C2  UNL     1      33.603   4.965  48.096  1.00  0.00     0.318 C 
BRANCH  23  24
HETATM   24  C1  UNL     1      34.709   5.612  48.830  1.00  0.00     0.110 C 
HETATM   25  N1  UNL     1      35.488   4.887  49.562  1.00  0.00    -0.315 NA
HETATM   26  H1  UNL     1      36.269   5.337  50.082  1.00  0.00     0.185 HD
ENDBRANCH  23  24
ENDBRANCH  20  23
ENDBRANCH  16  17
ENDBRANCH   1  16
BRANCH  12  27
HETATM   27  C15 UNL     1      24.403   1.597  51.441  1.00  0.00     0.189 C 
BRANCH  27  28
HETATM   28  C16 UNL     1      25.606   1.266  52.282  1.00  0.00    -0.038 A 
HETATM   29  C17 UNL     1      25.868   2.057  53.399  1.00  0.00     0.009 A 
HETATM   30  C18 UNL     1      26.980   1.777  54.199  1.00  0.00     0.001 A 
HETATM   31  C19 UNL     1      27.784   0.728  53.859  1.00  0.00     0.000 A 
HETATM   32  C20 UNL     1      27.538  -0.056  52.767  1.00  0.00     0.001 A 
HETATM   33  C21 UNL     1      26.436   0.207  51.958  1.00  0.00     0.009 A 
ENDBRANCH  27  28
ENDBRANCH  12  27
TORSDOF 6
ENDMDL
MODEL 5
REMARK VINA RESULT:      -8.3      2.475      3.282
REMARK  6 active torsions:
REMARK  status: ('A' for Active; 'I' for Inactive)
REMARK    1  A    between atoms: C1_2  and  C2_3 
REMARK    2  A    between atoms: C2_3  and  N2_4 
REMARK    3  A    between atoms: N3_7  and  C5_8 
REMARK    4  A    between atoms: C5_8  and  C6_9 
REMARK    5  A    between atoms: N6_20  and  C15_21 
REMARK    6  A    between atoms: C15_21  and  C16_22 
ROOT
HETATM    1  C6  UNL     1      27.783   6.514  48.143  1.00  0.00    -0.034 C 
HETATM    2  C7  UNL     1      28.011   5.303  48.631  1.00  0.00    -0.013 C 
HETATM    3  C8  UNL     1      27.131   4.152  48.946  1.00  0.00     0.069 C 
HETATM    4  C9  UNL     1      25.830   4.571  49.553  1.00  0.00    -0.018 C 
HETATM    5  C10 UNL     1      25.004   5.623  49.322  1.00  0.00     0.036 C 
HETATM    6  C11 UNL     1      25.310   6.652  48.293  1.00  0.00     0.030 C 
HETATM    7  C12 UNL     1      26.469   7.074  47.752  1.00  0.00     0.011 C 
HETATM    8  N4  UNL     1      23.827   5.579  50.186  1.00  0.00    -0.376 N 
HETATM    9  C13 UNL     1      24.394   4.919  51.322  1.00  0.00     0.159 A 
HETATM   10  C14 UNL     1      23.553   4.476  52.405  1.00  0.00     0.141 A 
HETATM   11  N5  UNL     1      23.531   3.237  52.698  1.00  0.00    -0.187 NA
HETATM   12  N6  UNL     1      24.247   2.220  52.060  1.00  0.00    -0.277 N 
HETATM   13  C22 UNL     1      25.094   2.539  50.951  1.00  0.00     0.122 A 
HETATM   14  C23 UNL     1      25.127   3.804  50.609  1.00  0.00    -0.004 A 
HETATM   15  H16 UNL     1      22.939   5.974  49.862  1.00  0.00     0.160 HD
ENDROOT
BRANCH   1  16
HETATM   16  C5  UNL     1      28.863   7.514  47.914  1.00  0.00     0.310 C 
BRANCH  16  17
HETATM   17  N3  UNL     1      28.401   8.869  47.826  1.00  0.00     0.096 N 
HETATM   18  C4  UNL     1      28.595   9.479  49.103  1.00  0.00     0.303 C 
HETATM   19  C3  UNL     1      28.453  10.955  49.132  1.00  0.00     0.303 C 
HETATM   20  N2  UNL     1      29.372  11.500  48.151  1.00  0.00     0.096 N 
HETATM   21  C25 UNL     1      28.920  11.081  46.864  1.00  0.00     0.303 C 
HETATM   22  C24 UNL     1      28.797   9.604  46.697  1.00  0.00     0.303 C 
BRANCH  20  23
HETATM   23  C2  UNL     1      29.293  12.938  48.267  1.00  0.00     0.318 C 
BRANCH  23  24
HETATM   24  C1  UNL     1      29.264  13.622  46.959  1.00  0.00     0.110 C 
HETATM   25  N1  UNL     1      29.494  14.892  46.907  1.00  0.00    -0.315 NA
HETATM   26  H1  UNL     1      29.476  15.380  45.988  1.00  0.00     0.185 HD
ENDBRANCH  23  24
ENDBRANCH  20  23
ENDBRANCH  16  17
ENDBRANCH   1  16
BRANCH  12  27
HETATM   27  C15 UNL     1      24.173   0.836  52.475  1.00  0.00     0.189 C 
BRANCH  27  28
HETATM   28  C16 UNL     1      25.536   0.401  52.939  1.00  0.00    -0.038 A 
HETATM   29  C17 UNL     1      26.069   1.004  54.077  1.00  0.00     0.009 A 
HETATM   30  C18 UNL     1      27.335   0.623  54.532  1.00  0.00     0.001 A 
HETATM   31  C19 UNL     1      28.018  -0.336  53.843  1.00  0.00     0.000 A 
HETATM   32  C20 UNL     1      27.507  -0.936  52.726  1.00  0.00     0.001 A 
HETATM   33  C21 UNL     1      26.248  -0.571  52.258  1.00  0.00     0.009 A 
ENDBRANCH  27  28
ENDBRANCH  12  27
TORSDOF 6
ENDMDL
MODEL 6
REMARK VINA RESULT:      -8.2      2.865      4.238
REMARK  6 active torsions:
REMARK  status: ('A' for Active; 'I' for Inactive)
REMARK    1  A    between atoms: C1_2  and  C2_3 
REMARK    2  A    between atoms: C2_3  and  N2_4 
REMARK    3  A    between atoms: N3_7  and  C5_8 
REMARK    4  A    between atoms: C5_8  and  C6_9 
REMARK    5  A    between atoms: N6_20  and  C15_21 
REMARK    6  A    between atoms: C15_21  and  C16_22 
ROOT
HETATM    1  C6  UNL     1      27.791   6.517  48.194  1.00  0.00    -0.034 C 
HETATM    2  C7  UNL     1      27.968   5.298  48.683  1.00  0.00    -0.013 C 
HETATM    3  C8  UNL     1      27.042   4.180  48.987  1.00  0.00     0.069 C 
HETATM    4  C9  UNL     1      25.752   4.649  49.582  1.00  0.00    -0.018 C 
HETATM    5  C10 UNL     1      24.968   5.731  49.345  1.00  0.00     0.036 C 
HETATM    6  C11 UNL     1      25.323   6.749  48.321  1.00  0.00     0.030 C 
HETATM    7  C12 UNL     1      26.504   7.127  47.791  1.00  0.00     0.011 C 
HETATM    8  N4  UNL     1      23.782   5.731  50.197  1.00  0.00    -0.376 N 
HETATM    9  C13 UNL     1      24.312   5.049  51.337  1.00  0.00     0.159 A 
HETATM   10  C14 UNL     1      23.445   4.636  52.412  1.00  0.00     0.141 A 
HETATM   11  N5  UNL     1      23.373   3.399  52.703  1.00  0.00    -0.187 NA
HETATM   12  N6  UNL     1      24.056   2.356  52.069  1.00  0.00    -0.277 N 
HETATM   13  C22 UNL     1      24.925   2.644  50.969  1.00  0.00     0.122 A 
HETATM   14  C23 UNL     1      25.010   3.908  50.630  1.00  0.00    -0.004 A 
HETATM   15  H16 UNL     1      22.914   6.160  49.865  1.00  0.00     0.160 HD
ENDROOT
BRANCH   1  16
HETATM   16  C5  UNL     1      28.911   7.476  47.978  1.00  0.00     0.310 C 
BRANCH  16  17
HETATM   17  N3  UNL     1      28.498   8.844  47.857  1.00  0.00     0.096 N 
HETATM   18  C4  UNL     1      28.667   9.464  49.132  1.00  0.00     0.303 C 
HETATM   19  C3  UNL     1      28.574  10.945  49.138  1.00  0.00     0.303 C 
HETATM   20  N2  UNL     1      29.546  11.445  48.185  1.00  0.00     0.096 N 
HETATM   21  C25 UNL     1      29.126  11.025  46.888  1.00  0.00     0.303 C 
HETATM   22  C24 UNL     1      28.959   9.550  46.734  1.00  0.00     0.303 C 
BRANCH  20  23
HETATM   23  C2  UNL     1      29.511  12.886  48.280  1.00  0.00     0.318 C 
BRANCH  23  24
HETATM   24  C1  UNL     1      29.459  13.551  46.963  1.00  0.00     0.110 C 
HETATM   25  N1  UNL     1      29.667  14.824  46.892  1.00  0.00    -0.315 NA
HETATM   26  H1  UNL     1      29.631  15.299  45.966  1.00  0.00     0.185 HD
ENDBRANCH  23  24
ENDBRANCH  20  23
ENDBRANCH  16  17
ENDBRANCH   1  16
BRANCH  12  27
HETATM   27  C15 UNL     1      23.925   0.976  52.482  1.00  0.00     0.189 C 
BRANCH  27  28
HETATM   28  C16 UNL     1      22.462   0.633  52.558  1.00  0.00    -0.038 A 
HETATM   29  C17 UNL     1      21.721   0.646  51.377  1.00  0.00     0.009 A 
HETATM   30  C18 UNL     1      20.358   0.335  51.415  1.00  0.00     0.001 A 
HETATM   31  C19 UNL     1      19.789   0.026  52.615  1.00  0.00     0.000 A 
HETATM   32  C20 UNL     1      20.505   0.011  53.780  1.00  0.00     0.001 A 
HETATM   33  C21 UNL     1      21.862   0.317  53.763  1.00  0.00     0.009 A 
ENDBRANCH  27  28
ENDBRANCH  12  27
TORSDOF 6
ENDMDL
MODEL 7
REMARK VINA RESULT:      -8.0      6.597     10.223
REMARK  6 active torsions:
REMARK  status: ('A' for Active; 'I' for Inactive)
REMARK    1  A    between atoms: C1_2  and  C2_3 
REMARK    2  A    between atoms: C2_3  and  N2_4 
REMARK    3  A    between atoms: N3_7  and  C5_8 
REMARK    4  A    between atoms: C5_8  and  C6_9 
REMARK    5  A    between atoms: N6_20  and  C15_21 
REMARK    6  A    between atoms: C15_21  and  C16_22 
ROOT
HETATM    1  C6  UNL     1      22.373   1.149  52.455  1.00  0.00    -0.034 C 
HETATM    2  C7  UNL     1      21.452   0.625  53.252  1.00  0.00    -0.013 C 
HETATM    3  C8  UNL     1      20.240  -0.193  53.004  1.00  0.00     0.069 C 
HETATM    4  C9  UNL     1      19.489   0.245  51.786  1.00  0.00    -0.018 C 
HETATM    5  C10 UNL     1      19.891   0.697  50.571  1.00  0.00     0.036 C 
HETATM    6  C11 UNL     1      21.330   0.845  50.224  1.00  0.00     0.030 C 
HETATM    7  C12 UNL     1      22.429   1.038  50.980  1.00  0.00     0.011 C 
HETATM    8  N4  UNL     1      18.753   0.987  49.704  1.00  0.00    -0.376 N 
HETATM    9  C13 UNL     1      17.790   1.357  50.696  1.00  0.00     0.159 A 
HETATM   10  C14 UNL     1      16.410   1.564  50.335  1.00  0.00     0.141 A 
HETATM   11  N5  UNL     1      15.517   0.843  50.884  1.00  0.00    -0.187 NA
HETATM   12  N6  UNL     1      15.729  -0.171  51.823  1.00  0.00    -0.277 N 
HETATM   13  C22 UNL     1      17.063  -0.486  52.235  1.00  0.00     0.122 A 
HETATM   14  C23 UNL     1      18.011   0.226  51.677  1.00  0.00    -0.004 A 
HETATM   15  H16 UNL     1      18.843   0.886  48.689  1.00  0.00     0.160 HD
ENDROOT
BRANCH   1  16
HETATM   16  C5  UNL     1      23.521   1.953  52.960  1.00  0.00     0.310 C 
BRANCH  16  17
HETATM   17  N3  UNL     1      24.786   1.282  52.883  1.00  0.00     0.096 N 
HETATM   18  C4  UNL     1      25.801   2.224  53.236  1.00  0.00     0.303 C 
HETATM   19  C3  UNL     1      27.141   1.647  53.501  1.00  0.00     0.303 C 
HETATM   20  N2  UNL     1      26.986   0.641  54.534  1.00  0.00     0.096 N 
HETATM   21  C25 UNL     1      26.200  -0.415  53.985  1.00  0.00     0.303 C 
HETATM   22  C24 UNL     1      24.866   0.006  53.465  1.00  0.00     0.303 C 
BRANCH  20  23
HETATM   23  C2  UNL     1      28.314   0.166  54.849  1.00  0.00     0.318 C 
BRANCH  23  24
HETATM   24  C1  UNL     1      29.079  -0.242  53.655  1.00  0.00     0.110 C 
HETATM   25  N1  UNL     1      30.272   0.223  53.482  1.00  0.00    -0.315 NA
HETATM   26  H1  UNL     1      30.817  -0.061  52.642  1.00  0.00     0.185 HD
ENDBRANCH  23  24
ENDBRANCH  20  23
ENDBRANCH  16  17
ENDBRANCH   1  16
BRANCH  12  27
HETATM   27  C15 UNL     1      14.646  -0.930  52.408  1.00  0.00     0.189 C 
BRANCH  27  28
HETATM   28  C16 UNL     1      14.687  -2.330  51.857  1.00  0.00    -0.038 A 
HETATM   29  C17 UNL     1      14.988  -3.373  52.730  1.00  0.00     0.009 A 
HETATM   30  C18 UNL     1      15.037  -4.685  52.249  1.00  0.00     0.001 A 
HETATM   31  C19 UNL     1      14.787  -4.907  50.926  1.00  0.00     0.000 A 
HETATM   32  C20 UNL     1      14.490  -3.893  50.059  1.00  0.00     0.001 A 
HETATM   33  C21 UNL     1      14.436  -2.580  50.520  1.00  0.00     0.009 A 
ENDBRANCH  27  28
ENDBRANCH  12  27
TORSDOF 6
ENDMDL
MODEL 8
REMARK VINA RESULT:      -8.0      1.558      2.172
REMARK  6 active torsions:
REMARK  status: ('A' for Active; 'I' for Inactive)
REMARK    1  A    between atoms: C1_2  and  C2_3 
REMARK    2  A    between atoms: C2_3  and  N2_4 
REMARK    3  A    between atoms: N3_7  and  C5_8 
REMARK    4  A    between atoms: C5_8  and  C6_9 
REMARK    5  A    between atoms: N6_20  and  C15_21 
REMARK    6  A    between atoms: C15_21  and  C16_22 
ROOT
HETATM    1  C6  UNL     1      27.678   8.085  48.922  1.00  0.00    -0.034 C 
HETATM    2  C7  UNL     1      27.522   6.792  48.672  1.00  0.00    -0.013 C 
HETATM    3  C8  UNL     1      26.333   5.910  48.583  1.00  0.00     0.069 C 
HETATM    4  C9  UNL     1      25.302   6.228  49.620  1.00  0.00    -0.018 C 
HETATM    5  C10 UNL     1      24.864   7.396  50.154  1.00  0.00     0.036 C 
HETATM    6  C11 UNL     1      25.417   8.710  49.731  1.00  0.00     0.030 C 
HETATM    7  C12 UNL     1      26.604   9.065  49.200  1.00  0.00     0.011 C 
HETATM    8  N4  UNL     1      23.814   7.171  51.143  1.00  0.00    -0.376 N 
HETATM    9  C13 UNL     1      24.213   5.883  51.621  1.00  0.00     0.159 A 
HETATM   10  C14 UNL     1      23.361   5.137  52.512  1.00  0.00     0.141 A 
HETATM   11  N5  UNL     1      22.947   3.989  52.148  1.00  0.00    -0.187 NA
HETATM   12  N6  UNL     1      23.224   3.353  50.935  1.00  0.00    -0.277 N 
HETATM   13  C22 UNL     1      24.037   4.012  49.959  1.00  0.00     0.122 A 
HETATM   14  C23 UNL     1      24.469   5.204  50.294  1.00  0.00    -0.004 A 
HETATM   15  H16 UNL     1      23.089   7.879  51.290  1.00  0.00     0.160 HD
ENDROOT
BRANCH   1  16
HETATM   16  C5  UNL     1      29.010   8.750  48.958  1.00  0.00     0.310 C 
BRANCH  16  17
HETATM   17  N3  UNL     1      30.078   7.959  48.419  1.00  0.00     0.096 N 
HETATM   18  C4  UNL     1      30.566   8.622  47.252  1.00  0.00     0.303 C 
HETATM   19  C3  UNL     1      31.856   8.116  46.724  1.00  0.00     0.303 C 
HETATM   20  N2  UNL     1      32.824   8.183  47.803  1.00  0.00     0.096 N 
HETATM   21  C25 UNL     1      32.412   7.254  48.803  1.00  0.00     0.303 C 
HETATM   22  C24 UNL     1      31.032   7.475  49.328  1.00  0.00     0.303 C 
BRANCH  20  23
HETATM   23  C2  UNL     1      34.094   7.784  47.241  1.00  0.00     0.318 C 
BRANCH  23  24
HETATM   24  C1  UNL     1      35.248   8.232  48.045  1.00  0.00     0.110 C 
HETATM   25  N1  UNL     1      36.021   7.348  48.584  1.00  0.00    -0.315 NA
HETATM   26  H1  UNL     1      36.836   7.658  49.152  1.00  0.00     0.185 HD
ENDBRANCH  23  24
ENDBRANCH  20  23
ENDBRANCH  16  17
ENDBRANCH   1  16
BRANCH  12  27
HETATM   27  C15 UNL     1      22.721   2.035  50.614  1.00  0.00     0.189 C 
BRANCH  27  28
HETATM   28  C16 UNL     1      23.002   1.118  51.773  1.00  0.00    -0.038 A 
HETATM   29  C17 UNL     1      24.321   0.983  52.201  1.00  0.00     0.009 A 
HETATM   30  C18 UNL     1      24.616   0.136  53.274  1.00  0.00     0.001 A 
HETATM   31  C19 UNL     1      23.594  -0.540  53.875  1.00  0.00     0.000 A 
HETATM   32  C20 UNL     1      22.296  -0.416  53.465  1.00  0.00     0.001 A 
HETATM   33  C21 UNL     1      21.983   0.422  52.399  1.00  0.00     0.009 A 
ENDBRANCH  27  28
ENDBRANCH  12  27
TORSDOF 6
ENDMDL
MODEL 9
REMARK VINA RESULT:      -7.9      7.315     11.155
REMARK  6 active torsions:
REMARK  status: ('A' for Active; 'I' for Inactive)
REMARK    1  A    between atoms: C1_2  and  C2_3 
REMARK    2  A    between atoms: C2_3  and  N2_4 
REMARK    3  A    between atoms: N3_7  and  C5_8 
REMARK    4  A    between atoms: C5_8  and  C6_9 
REMARK    5  A    between atoms: N6_20  and  C15_21 
REMARK    6  A    between atoms: C15_21  and  C16_22 
ROOT
HETATM    1  C6  UNL     1      21.227   0.102  53.027  1.00  0.00    -0.034 C 
HETATM    2  C7  UNL     1      20.117  -0.324  53.612  1.00  0.00    -0.013 C 
HETATM    3  C8  UNL     1      18.798  -0.763  53.094  1.00  0.00     0.069 C 
HETATM    4  C9  UNL     1      18.330   0.065  51.939  1.00  0.00    -0.018 C 
HETATM    5  C10 UNL     1      18.978   0.628  50.888  1.00  0.00     0.036 C 
HETATM    6  C11 UNL     1      20.447   0.486  50.702  1.00  0.00     0.030 C 
HETATM    7  C12 UNL     1      21.452   0.261  51.572  1.00  0.00     0.011 C 
HETATM    8  N4  UNL     1      18.056   1.343  50.010  1.00  0.00    -0.376 N 
HETATM    9  C13 UNL     1      17.075   1.740  50.973  1.00  0.00     0.159 A 
HETATM   10  C14 UNL     1      15.835   2.339  50.550  1.00  0.00     0.141 A 
HETATM   11  N5  UNL     1      14.740   1.766  50.855  1.00  0.00    -0.187 NA
HETATM   12  N6  UNL     1      14.599   0.572  51.568  1.00  0.00    -0.277 N 
HETATM   13  C22 UNL     1      15.765  -0.128  52.015  1.00  0.00     0.122 A 
HETATM   14  C23 UNL     1      16.912   0.426  51.704  1.00  0.00    -0.004 A 
HETATM   15  H16 UNL     1      18.255   1.415  49.008  1.00  0.00     0.160 HD
ENDROOT
BRANCH   1  16
HETATM   16  C5  UNL     1      22.447   0.494  53.787  1.00  0.00     0.310 C 
BRANCH  16  17
HETATM   17  N3  UNL     1      23.672   0.317  53.063  1.00  0.00     0.096 N 
HETATM   18  C4  UNL     1      24.305   1.593  52.959  1.00  0.00     0.303 C 
HETATM   19  C3  UNL     1      25.717   1.570  52.506  1.00  0.00     0.303 C 
HETATM   20  N2  UNL     1      26.449   0.700  53.406  1.00  0.00     0.096 N 
HETATM   21  C25 UNL     1      25.949  -0.623  53.221  1.00  0.00     0.303 C 
HETATM   22  C24 UNL     1      24.479  -0.770  53.436  1.00  0.00     0.303 C 
BRANCH  20  23
HETATM   23  C2  UNL     1      27.836   0.772  53.010  1.00  0.00     0.318 C 
BRANCH  23  24
HETATM   24  C1  UNL     1      28.575   1.854  53.689  1.00  0.00     0.110 C 
HETATM   25  N1  UNL     1      28.886   2.918  53.024  1.00  0.00    -0.315 NA
HETATM   26  H1  UNL     1      29.407   3.685  53.497  1.00  0.00     0.185 HD
ENDBRANCH  23  24
ENDBRANCH  20  23
ENDBRANCH  16  17
ENDBRANCH   1  16
BRANCH  12  27
HETATM   27  C15 UNL     1      13.308   0.001  51.884  1.00  0.00     0.189 C 
BRANCH  27  28
HETATM   28  C16 UNL     1      12.700   0.784  53.016  1.00  0.00    -0.038 A 
HETATM   29  C17 UNL     1      12.571   0.158  54.254  1.00  0.00     0.009 A 
HETATM   30  C18 UNL     1      12.008   0.858  55.326  1.00  0.00     0.001 A 
HETATM   31  C19 UNL     1      11.597   2.143  55.126  1.00  0.00     0.000 A 
HETATM   32  C20 UNL     1      11.718   2.768  53.917  1.00  0.00     0.001 A 
HETATM   33  C21 UNL     1      12.277   2.089  52.838  1.00  0.00     0.009 A 
ENDBRANCH  27  28
ENDBRANCH  12  27
TORSDOF 6
ENDMDL
