MODEL 1
REMARK VINA RESULT:      -8.5      0.000      0.000
REMARK  6 active torsions:
REMARK  status: ('A' for Active; 'I' for Inactive)
REMARK    1  A    between atoms: N1_2  and  C3_4 
REMARK    2  A    between atoms: C6_7  and  C7_8 
REMARK    3  A    between atoms: C7_8  and  C8_9 
REMARK    4  A    between atoms: C8_9  and  C9_10 
REMARK    5  A    between atoms: C13_15  and  N2_16 
REMARK    6  A    between atoms: C18_21  and  N3_22 
ROOT
HETATM    1  C9  UNL     1      22.081  -0.351  53.374  1.00  0.00     0.046 C 
HETATM    2  C10 UNL     1      21.950   0.561  52.423  1.00  0.00     0.034 C 
HETATM    3  C11 UNL     1      22.916   1.323  51.603  1.00  0.00     0.026 C 
HETATM    4  C12 UNL     1      24.231   1.462  51.684  1.00  0.00     0.137 C 
HETATM    5  O1  UNL     1      25.120   0.915  52.594  1.00  0.00    -0.335 OA
HETATM    6  C13 UNL     1      25.415  -0.375  53.150  1.00  0.00     0.258 C 
HETATM    7  C19 UNL     1      24.528  -0.559  54.347  1.00  0.00     0.229 C 
HETATM    8  O2  UNL     1      23.201  -0.928  53.951  1.00  0.00    -0.351 OA
ENDROOT
BRANCH   1   9
HETATM    9  C8  UNL     1      20.777  -0.859  53.936  1.00  0.00     0.069 C 
BRANCH   9  10
HETATM   10  C7  UNL     1      19.685  -0.159  53.116  1.00  0.00     0.045 C 
BRANCH  10  11
HETATM   11  C6  UNL     1      18.505  -1.044  53.019  1.00  0.00    -0.058 A 
HETATM   12  C5  UNL     1      18.447  -2.271  53.642  1.00  0.00     0.009 A 
HETATM   13  C4  UNL     1      17.358  -3.110  53.567  1.00  0.00     0.030 A 
HETATM   14  C3  UNL     1      16.243  -2.751  52.846  1.00  0.00     0.029 A 
HETATM   15  C21 UNL     1      16.279  -1.531  52.217  1.00  0.00     0.030 A 
HETATM   16  C20 UNL     1      17.377  -0.697  52.299  1.00  0.00     0.009 A 
BRANCH  14  17
HETATM   17  N1  UNL     1      15.073  -3.539  52.707  1.00  0.00    -0.390 N 
HETATM   18  C1  UNL     1      13.690  -3.156  52.725  1.00  0.00     0.149 C 
HETATM   19  C2  UNL     1      15.020  -4.971  52.510  1.00  0.00     0.149 C 
ENDBRANCH  14  17
ENDBRANCH  10  11
ENDBRANCH   9  10
ENDBRANCH   1   9
BRANCH   6  20
HETATM   20  N2  UNL     1      26.814  -0.443  53.438  1.00  0.00    -0.313 N 
HETATM   21  C14 UNL     1      27.519  -1.570  52.871  1.00  0.00     0.095 C 
HETATM   22  C15 UNL     1      28.834  -1.636  53.135  1.00  0.00     0.018 C 
HETATM   23  C16 UNL     1      29.590  -0.658  53.945  1.00  0.00     0.017 C 
HETATM   24  C17 UNL     1      28.763   0.063  54.688  1.00  0.00     0.022 C 
HETATM   25  C18 UNL     1      27.621   0.444  54.199  1.00  0.00     0.114 C 
BRANCH  25  26
HETATM   26  N3  UNL     1      27.101   1.751  54.379  1.00  0.00    -0.385 N 
HETATM   27  H20 UNL     1      26.777   2.708  54.631  1.00  0.00     0.157 HD
HETATM   28  H21 UNL     1      27.135   2.469  55.162  1.00  0.00     0.157 HD
ENDBRANCH  25  26
ENDBRANCH   6  20
TORSDOF 6
ENDMDL
MODEL 2
REMARK VINA RESULT:      -8.4      1.442      2.353
REMARK  6 active torsions:
REMARK  status: ('A' for Active; 'I' for Inactive)
REMARK    1  A    between atoms: N1_2  and  C3_4 
REMARK    2  A    between atoms: C6_7  and  C7_8 
REMARK    3  A    between atoms: C7_8  and  C8_9 
REMARK    4  A    between atoms: C8_9  and  C9_10 
REMARK    5  A    between atoms: C13_15  and  N2_16 
REMARK    6  A    between atoms: C18_21  and  N3_22 
ROOT
HETATM    1  C9  UNL     1      22.404   0.578  53.498  1.00  0.00     0.046 C 
HETATM    2  C10 UNL     1      22.106  -0.306  54.438  1.00  0.00     0.034 C 
HETATM    3  C11 UNL     1      22.922  -1.147  55.341  1.00  0.00     0.026 C 
HETATM    4  C12 UNL     1      24.220  -1.412  55.371  1.00  0.00     0.137 C 
HETATM    5  O1  UNL     1      25.231  -0.964  54.538  1.00  0.00    -0.335 OA
HETATM    6  C13 UNL     1      25.694   0.284  54.004  1.00  0.00     0.258 C 
HETATM    7  C19 UNL     1      24.932   0.538  52.735  1.00  0.00     0.229 C 
HETATM    8  O2  UNL     1      23.619   1.038  53.016  1.00  0.00    -0.351 OA
ENDROOT
BRANCH   1   9
HETATM    9  C8  UNL     1      21.207   1.202  52.827  1.00  0.00     0.069 C 
BRANCH   9  10
HETATM   10  C7  UNL     1      20.802   0.214  51.724  1.00  0.00     0.045 C 
BRANCH  10  11
HETATM   11  C6  UNL     1      19.366  -0.109  51.862  1.00  0.00    -0.058 A 
HETATM   12  C5  UNL     1      18.434   0.241  50.910  1.00  0.00     0.009 A 
HETATM   13  C4  UNL     1      17.094  -0.051  51.018  1.00  0.00     0.030 A 
HETATM   14  C3  UNL     1      16.607  -0.728  52.112  1.00  0.00     0.029 A 
HETATM   15  C21 UNL     1      17.519  -1.088  53.073  1.00  0.00     0.030 A 
HETATM   16  C20 UNL     1      18.863  -0.789  52.956  1.00  0.00     0.009 A 
BRANCH  14  17
HETATM   17  N1  UNL     1      15.248  -1.077  52.318  1.00  0.00    -0.390 N 
HETATM   18  C1  UNL     1      14.110  -0.246  52.591  1.00  0.00     0.149 C 
HETATM   19  C2  UNL     1      14.691  -2.412  52.298  1.00  0.00     0.149 C 
ENDBRANCH  14  17
ENDBRANCH  10  11
ENDBRANCH   9  10
ENDBRANCH   1   9
BRANCH   6  20
HETATM   20  N2  UNL     1      27.112   0.215  53.835  1.00  0.00    -0.313 N 
HETATM   21  C14 UNL     1      27.636  -1.068  53.426  1.00  0.00     0.095 C 
HETATM   22  C15 UNL     1      28.966  -1.137  53.261  1.00  0.00     0.018 C 
HETATM   23  C16 UNL     1      29.909  -0.016  53.465  1.00  0.00     0.017 C 
HETATM   24  C17 UNL     1      29.341   0.936  54.191  1.00  0.00     0.022 C 
HETATM   25  C18 UNL     1      28.090   1.231  54.006  1.00  0.00     0.114 C 
BRANCH  25  26
HETATM   26  N3  UNL     1      27.610   2.565  53.955  1.00  0.00    -0.385 N 
HETATM   27  H20 UNL     1      27.338   3.568  54.021  1.00  0.00     0.157 HD
HETATM   28  H21 UNL     1      27.798   3.450  54.513  1.00  0.00     0.157 HD
ENDBRANCH  25  26
ENDBRANCH   6  20
TORSDOF 6
ENDMDL
MODEL 3
REMARK VINA RESULT:      -8.4      5.256      9.664
REMARK  6 active torsions:
REMARK  status: ('A' for Active; 'I' for Inactive)
REMARK    1  A    between atoms: N1_2  and  C3_4 
REMARK    2  A    between atoms: C6_7  and  C7_8 
REMARK    3  A    between atoms: C7_8  and  C8_9 
REMARK    4  A    between atoms: C8_9  and  C9_10 
REMARK    5  A    between atoms: C13_15  and  N2_16 
REMARK    6  A    between atoms: C18_21  and  N3_22 
ROOT
HETATM    1  C9  UNL     1      24.416   3.475  51.556  1.00  0.00     0.046 C 
HETATM    2  C10 UNL     1      23.297   2.952  52.032  1.00  0.00     0.034 C 
HETATM    3  C11 UNL     1      22.989   1.713  52.778  1.00  0.00     0.026 C 
HETATM    4  C12 UNL     1      23.717   0.641  53.054  1.00  0.00     0.137 C 
HETATM    5  O1  UNL     1      25.028   0.355  52.715  1.00  0.00    -0.335 OA
HETATM    6  C13 UNL     1      26.307   1.003  52.772  1.00  0.00     0.258 C 
HETATM    7  C19 UNL     1      26.460   1.803  51.511  1.00  0.00     0.229 C 
HETATM    8  O2  UNL     1      25.728   3.033  51.591  1.00  0.00    -0.351 OA
ENDROOT
BRANCH   1   9
HETATM    9  C8  UNL     1      24.236   4.794  50.846  1.00  0.00     0.069 C 
BRANCH   9  10
HETATM   10  C7  UNL     1      24.515   4.496  49.367  1.00  0.00     0.045 C 
BRANCH  10  11
HETATM   11  C6  UNL     1      25.743   5.207  48.950  1.00  0.00    -0.058 A 
HETATM   12  C5  UNL     1      26.974   4.590  48.899  1.00  0.00     0.009 A 
HETATM   13  C4  UNL     1      28.128   5.232  48.513  1.00  0.00     0.030 A 
HETATM   14  C3  UNL     1      28.107   6.558  48.147  1.00  0.00     0.029 A 
HETATM   15  C21 UNL     1      26.889   7.192  48.190  1.00  0.00     0.030 A 
HETATM   16  C20 UNL     1      25.737   6.538  48.580  1.00  0.00     0.009 A 
BRANCH  14  17
HETATM   17  N1  UNL     1      29.236   7.308  47.734  1.00  0.00    -0.390 N 
HETATM   18  C1  UNL     1      29.555   7.873  46.453  1.00  0.00     0.149 C 
HETATM   19  C2  UNL     1      30.367   7.681  48.555  1.00  0.00     0.149 C 
ENDBRANCH  14  17
ENDBRANCH  10  11
ENDBRANCH   9  10
ENDBRANCH   1   9
BRANCH   6  20
HETATM   20  N2  UNL     1      27.318   0.010  52.965  1.00  0.00    -0.313 N 
HETATM   21  C14 UNL     1      26.961  -1.335  52.576  1.00  0.00     0.095 C 
HETATM   22  C15 UNL     1      27.909  -2.270  52.751  1.00  0.00     0.018 C 
HETATM   23  C16 UNL     1      29.259  -2.023  53.301  1.00  0.00     0.017 C 
HETATM   24  C17 UNL     1      29.287  -0.867  53.950  1.00  0.00     0.022 C 
HETATM   25  C18 UNL     1      28.633   0.153  53.481  1.00  0.00     0.114 C 
BRANCH  25  26
HETATM   26  N3  UNL     1      29.173   1.465  53.443  1.00  0.00    -0.385 N 
HETATM   27  H20 UNL     1      29.538   2.434  53.544  1.00  0.00     0.157 HD
HETATM   28  H21 UNL     1      29.302   2.242  54.157  1.00  0.00     0.157 HD
ENDBRANCH  25  26
ENDBRANCH   6  20
TORSDOF 6
ENDMDL
MODEL 4
REMARK VINA RESULT:      -8.3      5.522      8.729
REMARK  6 active torsions:
REMARK  status: ('A' for Active; 'I' for Inactive)
REMARK    1  A    between atoms: N1_2  and  C3_4 
REMARK    2  A    between atoms: C6_7  and  C7_8 
REMARK    3  A    between atoms: C7_8  and  C8_9 
REMARK    4  A    between atoms: C8_9  and  C9_10 
REMARK    5  A    between atoms: C13_15  and  N2_16 
REMARK    6  A    between atoms: C18_21  and  N3_22 
ROOT
HETATM    1  C9  UNL     1      23.502   2.839  51.190  1.00  0.00     0.046 C 
HETATM    2  C10 UNL     1      22.769   3.814  51.705  1.00  0.00     0.034 C 
HETATM    3  C11 UNL     1      22.827   5.289  51.616  1.00  0.00     0.026 C 
HETATM    4  C12 UNL     1      23.746   6.111  51.132  1.00  0.00     0.137 C 
HETATM    5  O1  UNL     1      24.966   5.821  50.544  1.00  0.00    -0.335 OA
HETATM    6  C13 UNL     1      25.473   4.957  49.517  1.00  0.00     0.258 C 
HETATM    7  C19 UNL     1      25.799   3.641  50.161  1.00  0.00     0.229 C 
HETATM    8  O2  UNL     1      24.614   2.860  50.363  1.00  0.00    -0.351 OA
ENDROOT
BRANCH   1   9
HETATM    9  C8  UNL     1      23.050   1.451  51.567  1.00  0.00     0.069 C 
BRANCH   9  10
HETATM   10  C7  UNL     1      23.427   1.291  53.045  1.00  0.00     0.045 C 
BRANCH  10  11
HETATM   11  C6  UNL     1      24.811   0.780  53.143  1.00  0.00    -0.058 A 
HETATM   12  C5  UNL     1      25.855   1.553  53.602  1.00  0.00     0.009 A 
HETATM   13  C4  UNL     1      27.149   1.097  53.702  1.00  0.00     0.030 A 
HETATM   14  C3  UNL     1      27.471  -0.190  53.340  1.00  0.00     0.029 A 
HETATM   15  C21 UNL     1      26.445  -0.979  52.880  1.00  0.00     0.030 A 
HETATM   16  C20 UNL     1      25.150  -0.510  52.783  1.00  0.00     0.009 A 
BRANCH  14  17
HETATM   17  N1  UNL     1      28.769  -0.756  53.406  1.00  0.00    -0.390 N 
HETATM   18  C1  UNL     1      29.191  -2.122  53.284  1.00  0.00     0.149 C 
HETATM   19  C2  UNL     1      30.008  -0.042  53.624  1.00  0.00     0.149 C 
ENDBRANCH  14  17
ENDBRANCH  10  11
ENDBRANCH   9  10
ENDBRANCH   1   9
BRANCH   6  20
HETATM   20  N2  UNL     1      26.586   5.595  48.886  1.00  0.00    -0.313 N 
HETATM   21  C14 UNL     1      27.769   4.782  48.722  1.00  0.00     0.095 C 
HETATM   22  C15 UNL     1      28.815   5.375  48.126  1.00  0.00     0.018 C 
HETATM   23  C16 UNL     1      28.838   6.771  47.638  1.00  0.00     0.017 C 
HETATM   24  C17 UNL     1      27.861   7.471  48.197  1.00  0.00     0.022 C 
HETATM   25  C18 UNL     1      26.700   6.920  48.387  1.00  0.00     0.114 C 
BRANCH  25  26
HETATM   26  N3  UNL     1      25.476   7.584  48.112  1.00  0.00    -0.385 N 
HETATM   27  H20 UNL     1      24.639   8.181  47.954  1.00  0.00     0.157 HD
HETATM   28  H21 UNL     1      25.131   8.586  48.203  1.00  0.00     0.157 HD
ENDBRANCH  25  26
ENDBRANCH   6  20
TORSDOF 6
ENDMDL
MODEL 5
REMARK VINA RESULT:      -8.2      4.612      8.267
REMARK  6 active torsions:
REMARK  status: ('A' for Active; 'I' for Inactive)
REMARK    1  A    between atoms: N1_2  and  C3_4 
REMARK    2  A    between atoms: C6_7  and  C7_8 
REMARK    3  A    between atoms: C7_8  and  C8_9 
REMARK    4  A    between atoms: C8_9  and  C9_10 
REMARK    5  A    between atoms: C13_15  and  N2_16 
REMARK    6  A    between atoms: C18_21  and  N3_22 
ROOT
HETATM    1  C9  UNL     1      22.559   1.061  52.261  1.00  0.00     0.046 C 
HETATM    2  C10 UNL     1      21.770   0.591  51.308  1.00  0.00     0.034 C 
HETATM    3  C11 UNL     1      21.600   0.914  49.874  1.00  0.00     0.026 C 
HETATM    4  C12 UNL     1      22.066   1.905  49.129  1.00  0.00     0.137 C 
HETATM    5  O1  UNL     1      22.878   2.967  49.483  1.00  0.00    -0.335 OA
HETATM    6  C13 UNL     1      24.110   3.176  50.189  1.00  0.00     0.258 C 
HETATM    7  C19 UNL     1      23.772   3.326  51.644  1.00  0.00     0.229 C 
HETATM    8  O2  UNL     1      23.531   2.049  52.250  1.00  0.00    -0.351 OA
ENDROOT
BRANCH   1   9
HETATM    9  C8  UNL     1      22.373   0.406  53.606  1.00  0.00     0.069 C 
BRANCH   9  10
HETATM   10  C7  UNL     1      23.127  -0.928  53.513  1.00  0.00     0.045 C 
BRANCH  10  11
HETATM   11  C6  UNL     1      24.581  -0.672  53.598  1.00  0.00    -0.058 A 
HETATM   12  C5  UNL     1      25.439  -0.924  52.550  1.00  0.00     0.009 A 
HETATM   13  C4  UNL     1      26.794  -0.692  52.607  1.00  0.00     0.030 A 
HETATM   14  C3  UNL     1      27.373  -0.182  53.746  1.00  0.00     0.029 A 
HETATM   15  C21 UNL     1      26.535   0.076  54.803  1.00  0.00     0.030 A 
HETATM   16  C20 UNL     1      25.176  -0.161  54.735  1.00  0.00     0.009 A 
BRANCH  14  17
HETATM   17  N1  UNL     1      28.754   0.092  53.906  1.00  0.00    -0.390 N 
HETATM   18  C1  UNL     1      29.899  -0.731  53.637  1.00  0.00     0.149 C 
HETATM   19  C2  UNL     1      29.335   1.320  54.404  1.00  0.00     0.149 C 
ENDBRANCH  14  17
ENDBRANCH  10  11
ENDBRANCH   9  10
ENDBRANCH   1   9
BRANCH   6  20
HETATM   20  N2  UNL     1      24.781   4.304  49.622  1.00  0.00    -0.313 N 
HETATM   21  C14 UNL     1      23.929   5.317  49.043  1.00  0.00     0.095 C 
HETATM   22  C15 UNL     1      24.554   6.381  48.513  1.00  0.00     0.018 C 
HETATM   23  C16 UNL     1      26.019   6.581  48.484  1.00  0.00     0.017 C 
HETATM   24  C17 UNL     1      26.645   5.430  48.687  1.00  0.00     0.022 C 
HETATM   25  C18 UNL     1      26.172   4.581  49.549  1.00  0.00     0.114 C 
BRANCH  25  26
HETATM   26  N3  UNL     1      26.991   3.881  50.472  1.00  0.00    -0.385 N 
HETATM   27  H20 UNL     1      27.505   3.406  51.243  1.00  0.00     0.157 HD
HETATM   28  H21 UNL     1      26.957   3.707  51.521  1.00  0.00     0.157 HD
ENDBRANCH  25  26
ENDBRANCH   6  20
TORSDOF 6
ENDMDL
MODEL 6
REMARK VINA RESULT:      -8.1      1.955      3.130
REMARK  6 active torsions:
REMARK  status: ('A' for Active; 'I' for Inactive)
REMARK    1  A    between atoms: N1_2  and  C3_4 
REMARK    2  A    between atoms: C6_7  and  C7_8 
REMARK    3  A    between atoms: C7_8  and  C8_9 
REMARK    4  A    between atoms: C8_9  and  C9_10 
REMARK    5  A    between atoms: C13_15  and  N2_16 
REMARK    6  A    between atoms: C18_21  and  N3_22 
ROOT
HETATM    1  C9  UNL     1      23.422   2.821  50.946  1.00  0.00     0.046 C 
HETATM    2  C10 UNL     1      24.049   3.506  50.003  1.00  0.00     0.034 C 
HETATM    3  C11 UNL     1      25.466   3.611  49.592  1.00  0.00     0.026 C 
HETATM    4  C12 UNL     1      26.586   3.183  50.156  1.00  0.00     0.137 C 
HETATM    5  O1  UNL     1      26.766   2.487  51.339  1.00  0.00    -0.335 OA
HETATM    6  C13 UNL     1      26.224   1.324  51.982  1.00  0.00     0.258 C 
HETATM    7  C19 UNL     1      25.021   1.766  52.765  1.00  0.00     0.229 C 
HETATM    8  O2  UNL     1      23.886   1.937  51.907  1.00  0.00    -0.351 OA
ENDROOT
BRANCH   1   9
HETATM    9  C8  UNL     1      21.930   3.037  50.988  1.00  0.00     0.069 C 
BRANCH   9  10
HETATM   10  C7  UNL     1      21.349   2.026  49.990  1.00  0.00     0.045 C 
BRANCH  10  11
HETATM   11  C6  UNL     1      20.355   1.177  50.680  1.00  0.00    -0.058 A 
HETATM   12  C5  UNL     1      20.630   0.527  51.863  1.00  0.00     0.009 A 
HETATM   13  C4  UNL     1      19.720  -0.267  52.522  1.00  0.00     0.030 A 
HETATM   14  C3  UNL     1      18.454  -0.453  52.018  1.00  0.00     0.029 A 
HETATM   15  C21 UNL     1      18.157   0.186  50.839  1.00  0.00     0.030 A 
HETATM   16  C20 UNL     1      19.079   0.980  50.185  1.00  0.00     0.009 A 
BRANCH  14  17
HETATM   17  N1  UNL     1      17.445  -1.247  52.618  1.00  0.00    -0.390 N 
HETATM   18  C1  UNL     1      16.018  -1.205  52.463  1.00  0.00     0.149 C 
HETATM   19  C2  UNL     1      17.647  -2.322  53.565  1.00  0.00     0.149 C 
ENDBRANCH  14  17
ENDBRANCH  10  11
ENDBRANCH   9  10
ENDBRANCH   1   9
BRANCH   6  20
HETATM   20  N2  UNL     1      27.249   0.716  52.772  1.00  0.00    -0.313 N 
HETATM   21  C14 UNL     1      27.491  -0.686  52.519  1.00  0.00     0.095 C 
HETATM   22  C15 UNL     1      28.455  -1.261  53.254  1.00  0.00     0.018 C 
HETATM   23  C16 UNL     1      29.268  -0.573  54.281  1.00  0.00     0.017 C 
HETATM   24  C17 UNL     1      28.678   0.554  54.656  1.00  0.00     0.022 C 
HETATM   25  C18 UNL     1      28.076   1.292  53.773  1.00  0.00     0.114 C 
BRANCH  25  26
HETATM   26  N3  UNL     1      28.198   2.705  53.735  1.00  0.00    -0.385 N 
HETATM   27  H20 UNL     1      28.378   3.723  53.612  1.00  0.00     0.157 HD
HETATM   28  H21 UNL     1      28.781   3.391  53.169  1.00  0.00     0.157 HD
ENDBRANCH  25  26
ENDBRANCH   6  20
TORSDOF 6
ENDMDL
MODEL 7
REMARK VINA RESULT:      -8.0      4.294      6.406
REMARK  6 active torsions:
REMARK  status: ('A' for Active; 'I' for Inactive)
REMARK    1  A    between atoms: N1_2  and  C3_4 
REMARK    2  A    between atoms: C6_7  and  C7_8 
REMARK    3  A    between atoms: C7_8  and  C8_9 
REMARK    4  A    between atoms: C8_9  and  C9_10 
REMARK    5  A    between atoms: C13_15  and  N2_16 
REMARK    6  A    between atoms: C18_21  and  N3_22 
ROOT
HETATM    1  C9  UNL     1      22.477   0.286  53.345  1.00  0.00     0.046 C 
HETATM    2  C10 UNL     1      22.194  -0.505  54.368  1.00  0.00     0.034 C 
HETATM    3  C11 UNL     1      23.021  -1.207  55.373  1.00  0.00     0.026 C 
HETATM    4  C12 UNL     1      24.328  -1.409  55.460  1.00  0.00     0.137 C 
HETATM    5  O1  UNL     1      25.340  -1.006  54.605  1.00  0.00    -0.335 OA
HETATM    6  C13 UNL     1      25.763   0.198  53.950  1.00  0.00     0.258 C 
HETATM    7  C19 UNL     1      25.024   0.280  52.645  1.00  0.00     0.229 C 
HETATM    8  O2  UNL     1      23.684   0.746  52.842  1.00  0.00    -0.351 OA
ENDROOT
BRANCH   1   9
HETATM    9  C8  UNL     1      21.272   0.779  52.585  1.00  0.00     0.069 C 
BRANCH   9  10
HETATM   10  C7  UNL     1      21.684   0.738  51.107  1.00  0.00     0.045 C 
BRANCH  10  11
HETATM   11  C6  UNL     1      22.005   2.107  50.651  1.00  0.00    -0.058 A 
HETATM   12  C5  UNL     1      21.417   3.226  51.199  1.00  0.00     0.009 A 
HETATM   13  C4  UNL     1      21.703   4.509  50.791  1.00  0.00     0.030 A 
HETATM   14  C3  UNL     1      22.617   4.742  49.790  1.00  0.00     0.029 A 
HETATM   15  C21 UNL     1      23.215   3.640  49.230  1.00  0.00     0.030 A 
HETATM   16  C20 UNL     1      22.920   2.356  49.646  1.00  0.00     0.009 A 
BRANCH  14  17
HETATM   17  N1  UNL     1      22.981   6.021  49.299  1.00  0.00    -0.390 N 
HETATM   18  C1  UNL     1      22.678   7.329  49.807  1.00  0.00     0.149 C 
HETATM   19  C2  UNL     1      23.772   6.296  48.120  1.00  0.00     0.149 C 
ENDBRANCH  14  17
ENDBRANCH  10  11
ENDBRANCH   9  10
ENDBRANCH   1   9
BRANCH   6  20
HETATM   20  N2  UNL     1      27.187   0.176  53.820  1.00  0.00    -0.313 N 
HETATM   21  C14 UNL     1      27.762  -1.084  53.407  1.00  0.00     0.095 C 
HETATM   22  C15 UNL     1      29.098  -1.109  53.279  1.00  0.00     0.018 C 
HETATM   23  C16 UNL     1      29.998   0.038  53.525  1.00  0.00     0.017 C 
HETATM   24  C17 UNL     1      29.381   0.961  54.248  1.00  0.00     0.022 C 
HETATM   25  C18 UNL     1      28.126   1.219  54.032  1.00  0.00     0.114 C 
BRANCH  25  26
HETATM   26  N3  UNL     1      27.606   2.538  53.986  1.00  0.00    -0.385 N 
HETATM   27  H20 UNL     1      27.303   3.524  53.846  1.00  0.00     0.157 HD
HETATM   28  H21 UNL     1      27.759   3.382  53.357  1.00  0.00     0.157 HD
ENDBRANCH  25  26
ENDBRANCH   6  20
TORSDOF 6
ENDMDL
MODEL 8
REMARK VINA RESULT:      -8.0      5.810     11.314
REMARK  6 active torsions:
REMARK  status: ('A' for Active; 'I' for Inactive)
REMARK    1  A    between atoms: N1_2  and  C3_4 
REMARK    2  A    between atoms: C6_7  and  C7_8 
REMARK    3  A    between atoms: C7_8  and  C8_9 
REMARK    4  A    between atoms: C8_9  and  C9_10 
REMARK    5  A    between atoms: C13_15  and  N2_16 
REMARK    6  A    between atoms: C18_21  and  N3_22 
ROOT
HETATM    1  C9  UNL     1      25.305   3.249  50.029  1.00  0.00     0.046 C 
HETATM    2  C10 UNL     1      24.379   3.408  49.097  1.00  0.00     0.034 C 
HETATM    3  C11 UNL     1      22.978   2.953  48.964  1.00  0.00     0.026 C 
HETATM    4  C12 UNL     1      22.258   2.088  49.663  1.00  0.00     0.137 C 
HETATM    5  O1  UNL     1      22.617   1.328  50.763  1.00  0.00    -0.335 OA
HETATM    6  C13 UNL     1      23.256   1.529  52.032  1.00  0.00     0.258 C 
HETATM    7  C19 UNL     1      24.735   1.388  51.816  1.00  0.00     0.229 C 
HETATM    8  O2  UNL     1      25.286   2.581  51.244  1.00  0.00    -0.351 OA
ENDROOT
BRANCH   1   9
HETATM    9  C8  UNL     1      26.623   3.914  49.721  1.00  0.00     0.069 C 
BRANCH   9  10
HETATM   10  C7  UNL     1      26.263   5.161  48.902  1.00  0.00     0.045 C 
BRANCH  10  11
HETATM   11  C6  UNL     1      27.505   5.815  48.440  1.00  0.00    -0.058 A 
HETATM   12  C5  UNL     1      28.712   5.154  48.380  1.00  0.00     0.009 A 
HETATM   13  C4  UNL     1      29.880   5.744  47.951  1.00  0.00     0.030 A 
HETATM   14  C3  UNL     1      29.897   7.059  47.550  1.00  0.00     0.029 A 
HETATM   15  C21 UNL     1      28.704   7.738  47.602  1.00  0.00     0.030 A 
HETATM   16  C20 UNL     1      27.538   7.136  48.034  1.00  0.00     0.009 A 
BRANCH  14  17
HETATM   17  N1  UNL     1      31.042   7.758  47.093  1.00  0.00    -0.390 N 
HETATM   18  C1  UNL     1      32.064   8.445  47.831  1.00  0.00     0.149 C 
HETATM   19  C2  UNL     1      31.446   7.939  45.716  1.00  0.00     0.149 C 
ENDBRANCH  14  17
ENDBRANCH  10  11
ENDBRANCH   9  10
ENDBRANCH   1   9
BRANCH   6  20
HETATM   20  N2  UNL     1      22.708   0.603  52.974  1.00  0.00    -0.313 N 
HETATM   21  C14 UNL     1      23.665  -0.222  53.676  1.00  0.00     0.095 C 
HETATM   22  C15 UNL     1      23.156  -1.089  54.566  1.00  0.00     0.018 C 
HETATM   23  C16 UNL     1      21.719  -1.253  54.868  1.00  0.00     0.017 C 
HETATM   24  C17 UNL     1      20.981  -0.730  53.899  1.00  0.00     0.022 C 
HETATM   25  C18 UNL     1      21.352   0.377  53.330  1.00  0.00     0.114 C 
BRANCH  25  26
HETATM   26  N3  UNL     1      20.451   1.431  53.030  1.00  0.00    -0.385 N 
HETATM   27  H20 UNL     1      19.888   2.256  52.736  1.00  0.00     0.157 HD
HETATM   28  H21 UNL     1      20.501   2.313  52.438  1.00  0.00     0.157 HD
ENDBRANCH  25  26
ENDBRANCH   6  20
TORSDOF 6
ENDMDL
MODEL 9
REMARK VINA RESULT:      -7.7      4.357      7.843
REMARK  6 active torsions:
REMARK  status: ('A' for Active; 'I' for Inactive)
REMARK    1  A    between atoms: N1_2  and  C3_4 
REMARK    2  A    between atoms: C6_7  and  C7_8 
REMARK    3  A    between atoms: C7_8  and  C8_9 
REMARK    4  A    between atoms: C8_9  and  C9_10 
REMARK    5  A    between atoms: C13_15  and  N2_16 
REMARK    6  A    between atoms: C18_21  and  N3_22 
ROOT
HETATM    1  C9  UNL     1      22.471   2.042  52.392  1.00  0.00     0.046 C 
HETATM    2  C10 UNL     1      21.791   0.958  52.734  1.00  0.00     0.034 C 
HETATM    3  C11 UNL     1      22.180  -0.353  53.297  1.00  0.00     0.026 C 
HETATM    4  C12 UNL     1      23.362  -0.925  53.473  1.00  0.00     0.137 C 
HETATM    5  O1  UNL     1      24.626  -0.447  53.173  1.00  0.00    -0.335 OA
HETATM    6  C13 UNL     1      25.389   0.750  53.384  1.00  0.00     0.258 C 
HETATM    7  C19 UNL     1      25.083   1.681  52.247  1.00  0.00     0.229 C 
HETATM    8  O2  UNL     1      23.824   2.336  52.443  1.00  0.00    -0.351 OA
ENDROOT
BRANCH   1   9
HETATM    9  C8  UNL     1      21.623   3.165  51.849  1.00  0.00     0.069 C 
BRANCH   9  10
HETATM   10  C7  UNL     1      21.938   3.216  50.348  1.00  0.00     0.045 C 
BRANCH  10  11
HETATM   11  C6  UNL     1      23.056   4.156  50.116  1.00  0.00    -0.058 A 
HETATM   12  C5  UNL     1      24.103   3.865  49.270  1.00  0.00     0.009 A 
HETATM   13  C4  UNL     1      25.152   4.725  49.039  1.00  0.00     0.030 A 
HETATM   14  C3  UNL     1      25.205   5.953  49.658  1.00  0.00     0.029 A 
HETATM   15  C21 UNL     1      24.170   6.263  50.506  1.00  0.00     0.030 A 
HETATM   16  C20 UNL     1      23.123   5.392  50.731  1.00  0.00     0.009 A 
BRANCH  14  17
HETATM   17  N1  UNL     1      26.238   6.908  49.488  1.00  0.00    -0.390 N 
HETATM   18  C1  UNL     1      26.398   8.212  50.067  1.00  0.00     0.149 C 
HETATM   19  C2  UNL     1      27.409   6.769  48.650  1.00  0.00     0.149 C 
ENDBRANCH  14  17
ENDBRANCH  10  11
ENDBRANCH   9  10
ENDBRANCH   1   9
BRANCH   6  20
HETATM   20  N2  UNL     1      26.770   0.400  53.504  1.00  0.00    -0.313 N 
HETATM   21  C14 UNL     1      27.135  -0.906  53.008  1.00  0.00     0.095 C 
HETATM   22  C15 UNL     1      28.431  -1.237  53.114  1.00  0.00     0.018 C 
HETATM   23  C16 UNL     1      29.486  -0.375  53.690  1.00  0.00     0.017 C 
HETATM   24  C17 UNL     1      28.944   0.583  54.429  1.00  0.00     0.022 C 
HETATM   25  C18 UNL     1      27.847   1.157  54.039  1.00  0.00     0.114 C 
BRANCH  25  26
HETATM   26  N3  UNL     1      27.642   2.559  54.108  1.00  0.00    -0.385 N 
HETATM   27  H20 UNL     1      27.491   3.586  54.026  1.00  0.00     0.157 HD
HETATM   28  H21 UNL     1      27.525   3.335  53.390  1.00  0.00     0.157 HD
ENDBRANCH  25  26
ENDBRANCH   6  20
TORSDOF 6
ENDMDL
