MODEL 1
REMARK VINA RESULT:      -9.9      0.000      0.000
REMARK  3 active torsions:
REMARK  status: ('A' for Active; 'I' for Inactive)
REMARK    1  A    between atoms: C2_2  and  C3_3 
REMARK    2  A    between atoms: C20_23  and  C22_25 
REMARK    3  A    between atoms: C22_25  and  C23_27 
ROOT
HETATM    1  C3  UNL     1      17.694  -1.796  53.080  1.00  0.00     0.028 C 
HETATM    2  C4  UNL     1      18.867  -1.138  53.032  1.00  0.00     0.065 A 
HETATM    3  C5  UNL     1      20.166  -1.207  53.604  1.00  0.00     0.062 A 
HETATM    4  C6  UNL     1      21.403  -1.288  54.220  1.00  0.00     0.010 C 
HETATM    5  C7  UNL     1      22.280  -1.077  53.083  1.00  0.00     0.067 C 
HETATM    6  C8  UNL     1      23.219   0.023  53.083  1.00  0.00    -0.040 A 
HETATM    7  C9  UNL     1      24.474  -0.002  53.319  1.00  0.00    -0.022 A 
HETATM    8  C10 UNL     1      25.562  -0.024  53.504  1.00  0.00    -0.057 A 
HETATM    9  C11 UNL     1      26.849  -0.038  53.702  1.00  0.00     0.037 A 
HETATM   10  C12 UNL     1      26.674   0.606  52.402  1.00  0.00     0.048 A 
HETATM   11  C13 UNL     1      26.152   1.766  51.719  1.00  0.00     0.000 C 
HETATM   12  C14 UNL     1      24.853   1.813  51.274  1.00  0.00     0.086 C 
HETATM   13  N1  UNL     1      23.550   1.783  51.633  1.00  0.00    -0.345 N 
HETATM   14  C15 UNL     1      23.460   1.399  52.937  1.00  0.00     0.150 A 
HETATM   15  C16 UNL     1      22.263   2.006  51.094  1.00  0.00     0.154 C 
HETATM   16  C17 UNL     1      22.396   1.761  49.597  1.00  0.00     0.072 C 
HETATM   17  O1  UNL     1      21.541   0.906  51.563  1.00  0.00    -0.309 OA
HETATM   18  C18 UNL     1      20.237   0.958  51.703  1.00  0.00     0.474 C 
HETATM   19  N2  UNL     1      19.731   2.166  52.353  1.00  0.00     0.134 N 
HETATM   20  C19 UNL     1      20.791   3.089  52.707  1.00  0.00     0.297 C 
HETATM   21  C20 UNL     1      21.614   3.277  51.451  1.00  0.00     0.102 C 
HETATM   22  C21 UNL     1      20.563   3.734  50.440  1.00  0.00     0.030 C 
HETATM   23  N3  UNL     1      19.756  -0.142  52.578  1.00  0.00    -0.291 N 
HETATM   24  H17 UNL     1      19.101   1.967  53.161  1.00  0.00     0.321 HD
ENDROOT
BRANCH  21  25
HETATM   25  C22 UNL     1      22.491   4.449  51.649  1.00  0.00     0.247 C 
HETATM   26  O2  UNL     1      22.961   5.052  52.621  1.00  0.00    -0.287 OA
BRANCH  25  27
HETATM   27  C23 UNL     1      23.225   5.464  50.855  1.00  0.00     0.452 C 
HETATM   28  F1  UNL     1      23.965   4.761  49.892  1.00  0.00    -0.163 F 
HETATM   29  F2  UNL     1      22.464   6.386  50.223  1.00  0.00    -0.163 F 
HETATM   30  F3  UNL     1      24.209   6.090  51.652  1.00  0.00    -0.163 F 
ENDBRANCH  25  27
ENDBRANCH  21  25
BRANCH   1  31
HETATM   31  C2  UNL     1      17.446  -2.957  53.890  1.00  0.00    -0.024 C 
HETATM   32  C1  UNL     1      17.042  -4.106  53.400  1.00  0.00     0.031 C 
ENDBRANCH   1  31
TORSDOF 3
ENDMDL
MODEL 2
REMARK VINA RESULT:      -9.5      2.460      6.038
REMARK  3 active torsions:
REMARK  status: ('A' for Active; 'I' for Inactive)
REMARK    1  A    between atoms: C2_2  and  C3_3 
REMARK    2  A    between atoms: C20_23  and  C22_25 
REMARK    3  A    between atoms: C22_25  and  C23_27 
ROOT
HETATM    1  C3  UNL     1      29.089   0.730  53.433  1.00  0.00     0.028 C 
HETATM    2  C4  UNL     1      27.834   0.934  52.991  1.00  0.00     0.065 A 
HETATM    3  C5  UNL     1      26.598   0.239  52.897  1.00  0.00     0.062 A 
HETATM    4  C6  UNL     1      25.428  -0.492  52.785  1.00  0.00     0.010 C 
HETATM    5  C7  UNL     1      24.457   0.492  53.230  1.00  0.00     0.067 C 
HETATM    6  C8  UNL     1      23.375   0.891  52.357  1.00  0.00    -0.040 A 
HETATM    7  C9  UNL     1      22.153   0.515  52.383  1.00  0.00    -0.022 A 
HETATM    8  C10 UNL     1      21.094   0.208  52.413  1.00  0.00    -0.057 A 
HETATM    9  C11 UNL     1      19.837  -0.132  52.450  1.00  0.00     0.037 A 
HETATM   10  C12 UNL     1      19.835   1.327  52.497  1.00  0.00     0.048 A 
HETATM   11  C13 UNL     1      20.142   2.534  51.764  1.00  0.00     0.000 C 
HETATM   12  C14 UNL     1      21.390   3.107  51.818  1.00  0.00     0.086 C 
HETATM   13  N1  UNL     1      22.704   2.942  51.550  1.00  0.00    -0.345 N 
HETATM   14  C15 UNL     1      22.933   1.633  51.251  1.00  0.00     0.150 A 
HETATM   15  C16 UNL     1      23.909   3.678  51.495  1.00  0.00     0.154 C 
HETATM   16  C17 UNL     1      23.715   4.855  52.440  1.00  0.00     0.072 C 
HETATM   17  O1  UNL     1      24.808   2.843  52.162  1.00  0.00    -0.309 OA
HETATM   18  C18 UNL     1      26.098   2.907  51.928  1.00  0.00     0.474 C 
HETATM   19  N2  UNL     1      26.470   2.968  50.515  1.00  0.00     0.134 N 
HETATM   20  C19 UNL     1      25.315   2.958  49.639  1.00  0.00     0.297 C 
HETATM   21  C20 UNL     1      24.395   4.043  50.155  1.00  0.00     0.102 C 
HETATM   22  C21 UNL     1      25.302   5.272  50.144  1.00  0.00     0.030 C 
HETATM   23  N3  UNL     1      26.786   1.686  52.423  1.00  0.00    -0.291 N 
HETATM   24  H17 UNL     1      27.173   2.246  50.242  1.00  0.00     0.321 HD
ENDROOT
BRANCH  21  25
HETATM   25  C22 UNL     1      23.375   4.309  49.119  1.00  0.00     0.247 C 
HETATM   26  O2  UNL     1      22.797   5.311  48.679  1.00  0.00    -0.287 OA
BRANCH  25  27
HETATM   27  C23 UNL     1      22.552   3.582  48.123  1.00  0.00     0.452 C 
HETATM   28  F1  UNL     1      22.545   4.367  46.960  1.00  0.00    -0.163 F 
HETATM   29  F2  UNL     1      22.975   2.339  47.799  1.00  0.00    -0.163 F 
HETATM   30  F3  UNL     1      21.199   3.560  48.529  1.00  0.00    -0.163 F 
ENDBRANCH  25  27
ENDBRANCH  21  25
BRANCH   1  31
HETATM   31  C2  UNL     1      29.550  -0.492  54.033  1.00  0.00    -0.024 C 
HETATM   32  C1  UNL     1      29.662  -1.622  53.374  1.00  0.00     0.031 C 
ENDBRANCH   1  31
TORSDOF 3
ENDMDL
MODEL 3
REMARK VINA RESULT:      -9.1      3.254      7.003
REMARK  3 active torsions:
REMARK  status: ('A' for Active; 'I' for Inactive)
REMARK    1  A    between atoms: C2_2  and  C3_3 
REMARK    2  A    between atoms: C20_23  and  C22_25 
REMARK    3  A    between atoms: C22_25  and  C23_27 
ROOT
HETATM    1  C3  UNL     1      26.427   7.493  48.053  1.00  0.00     0.028 C 
HETATM    2  C4  UNL     1      26.025   6.366  48.668  1.00  0.00     0.065 A 
HETATM    3  C5  UNL     1      26.513   5.063  48.958  1.00  0.00     0.062 A 
HETATM    4  C6  UNL     1      27.013   3.791  49.178  1.00  0.00     0.010 C 
HETATM    5  C7  UNL     1      26.641   3.597  50.568  1.00  0.00     0.067 C 
HETATM    6  C8  UNL     1      25.794   2.487  50.946  1.00  0.00    -0.040 A 
HETATM    7  C9  UNL     1      26.132   1.374  51.476  1.00  0.00    -0.022 A 
HETATM    8  C10 UNL     1      26.417   0.420  51.951  1.00  0.00    -0.057 A 
HETATM    9  C11 UNL     1      26.739  -0.702  52.529  1.00  0.00     0.037 A 
HETATM   10  C12 UNL     1      25.711  -0.117  53.386  1.00  0.00     0.048 A 
HETATM   11  C13 UNL     1      24.320   0.263  53.472  1.00  0.00     0.000 C 
HETATM   12  C14 UNL     1      23.892   1.509  53.083  1.00  0.00     0.086 C 
HETATM   13  N1  UNL     1      23.777   2.377  52.052  1.00  0.00    -0.345 N 
HETATM   14  C15 UNL     1      24.513   1.916  51.003  1.00  0.00     0.150 A 
HETATM   15  C16 UNL     1      23.158   3.602  51.720  1.00  0.00     0.154 C 
HETATM   16  C17 UNL     1      22.959   4.334  53.041  1.00  0.00     0.072 C 
HETATM   17  O1  UNL     1      24.187   4.303  51.088  1.00  0.00    -0.309 OA
HETATM   18  C18 UNL     1      23.930   5.255  50.221  1.00  0.00     0.474 C 
HETATM   19  N2  UNL     1      22.901   4.934  49.233  1.00  0.00     0.134 N 
HETATM   20  C19 UNL     1      22.352   3.605  49.420  1.00  0.00     0.297 C 
HETATM   21  C20 UNL     1      21.954   3.523  50.878  1.00  0.00     0.102 C 
HETATM   22  C21 UNL     1      21.019   4.721  51.028  1.00  0.00     0.030 C 
HETATM   23  N3  UNL     1      25.129   5.559  49.399  1.00  0.00    -0.291 N 
HETATM   24  H17 UNL     1      23.210   5.093  48.249  1.00  0.00     0.321 HD
ENDROOT
BRANCH  21  25
HETATM   25  C22 UNL     1      21.089   2.337  51.050  1.00  0.00     0.247 C 
HETATM   26  O2  UNL     1      20.183   2.004  51.824  1.00  0.00    -0.287 OA
BRANCH  25  27
HETATM   27  C23 UNL     1      20.855   1.005  50.442  1.00  0.00     0.452 C 
HETATM   28  F1  UNL     1      19.637   0.538  50.959  1.00  0.00    -0.163 F 
HETATM   29  F2  UNL     1      20.788   0.973  49.092  1.00  0.00    -0.163 F 
HETATM   30  F3  UNL     1      21.806   0.076  50.918  1.00  0.00    -0.163 F 
ENDBRANCH  25  27
ENDBRANCH  21  25
BRANCH   1  31
HETATM   31  C2  UNL     1      27.709   7.663  47.425  1.00  0.00    -0.024 C 
HETATM   32  C1  UNL     1      28.825   7.829  48.096  1.00  0.00     0.031 C 
ENDBRANCH   1  31
TORSDOF 3
ENDMDL
MODEL 4
REMARK VINA RESULT:      -8.8      2.784      6.013
REMARK  3 active torsions:
REMARK  status: ('A' for Active; 'I' for Inactive)
REMARK    1  A    between atoms: C2_2  and  C3_3 
REMARK    2  A    between atoms: C20_23  and  C22_25 
REMARK    3  A    between atoms: C22_25  and  C23_27 
ROOT
HETATM    1  C3  UNL     1      27.329  -0.922  53.078  1.00  0.00     0.028 C 
HETATM    2  C4  UNL     1      26.545   0.053  52.580  1.00  0.00     0.065 A 
HETATM    3  C5  UNL     1      26.659   1.374  52.072  1.00  0.00     0.062 A 
HETATM    4  C6  UNL     1      26.814   2.675  51.626  1.00  0.00     0.010 C 
HETATM    5  C7  UNL     1      25.976   2.650  50.440  1.00  0.00     0.067 C 
HETATM    6  C8  UNL     1      24.862   3.565  50.319  1.00  0.00    -0.040 A 
HETATM    7  C9  UNL     1      24.793   4.650  49.646  1.00  0.00    -0.022 A 
HETATM    8  C10 UNL     1      24.724   5.577  49.052  1.00  0.00    -0.057 A 
HETATM    9  C11 UNL     1      24.623   6.663  48.340  1.00  0.00     0.037 A 
HETATM   10  C12 UNL     1      23.498   5.831  47.922  1.00  0.00     0.048 A 
HETATM   11  C13 UNL     1      22.252   5.231  48.339  1.00  0.00     0.000 C 
HETATM   12  C14 UNL     1      22.215   3.985  48.918  1.00  0.00     0.086 C 
HETATM   13  N1  UNL     1      22.609   3.232  49.969  1.00  0.00    -0.345 N 
HETATM   14  C15 UNL     1      23.551   3.918  50.675  1.00  0.00     0.150 A 
HETATM   15  C16 UNL     1      22.373   1.971  50.559  1.00  0.00     0.154 C 
HETATM   16  C17 UNL     1      21.889   1.072  49.428  1.00  0.00     0.072 C 
HETATM   17  O1  UNL     1      23.664   1.515  50.835  1.00  0.00    -0.309 OA
HETATM   18  C18 UNL     1      23.888   0.638  51.786  1.00  0.00     0.474 C 
HETATM   19  N2  UNL     1      23.201   0.905  53.049  1.00  0.00     0.134 N 
HETATM   20  C19 UNL     1      22.384   2.102  52.993  1.00  0.00     0.297 C 
HETATM   21  C20 UNL     1      21.521   1.955  51.758  1.00  0.00     0.102 C 
HETATM   22  C21 UNL     1      20.828   0.616  52.003  1.00  0.00     0.030 C 
HETATM   23  N3  UNL     1      25.325   0.622  52.161  1.00  0.00    -0.291 N 
HETATM   24  H17 UNL     1      23.841   0.908  53.874  1.00  0.00     0.321 HD
ENDROOT
BRANCH  21  25
HETATM   25  C22 UNL     1      20.443   2.963  51.831  1.00  0.00     0.247 C 
HETATM   26  O2  UNL     1      20.105   3.845  52.630  1.00  0.00    -0.287 OA
BRANCH  25  27
HETATM   27  C23 UNL     1      19.271   3.430  51.052  1.00  0.00     0.452 C 
HETATM   28  F1  UNL     1      19.480   4.793  50.792  1.00  0.00    -0.163 F 
HETATM   29  F2  UNL     1      19.050   2.798  49.877  1.00  0.00    -0.163 F 
HETATM   30  F3  UNL     1      18.110   3.411  51.857  1.00  0.00    -0.163 F 
ENDBRANCH  25  27
ENDBRANCH  21  25
BRANCH   1  31
HETATM   31  C2  UNL     1      28.754  -0.817  53.236  1.00  0.00    -0.024 C 
HETATM   32  C1  UNL     1      29.326  -0.034  54.121  1.00  0.00     0.031 C 
ENDBRANCH   1  31
TORSDOF 3
ENDMDL
MODEL 5
REMARK VINA RESULT:      -8.5      3.719      5.823
REMARK  3 active torsions:
REMARK  status: ('A' for Active; 'I' for Inactive)
REMARK    1  A    between atoms: C2_2  and  C3_3 
REMARK    2  A    between atoms: C20_23  and  C22_25 
REMARK    3  A    between atoms: C22_25  and  C23_27 
ROOT
HETATM    1  C3  UNL     1      25.058  -0.325  52.661  1.00  0.00     0.028 C 
HETATM    2  C4  UNL     1      25.005   0.897  52.098  1.00  0.00     0.065 A 
HETATM    3  C5  UNL     1      25.884   1.939  51.700  1.00  0.00     0.062 A 
HETATM    4  C6  UNL     1      26.775   2.946  51.369  1.00  0.00     0.010 C 
HETATM    5  C7  UNL     1      26.275   3.321  50.058  1.00  0.00     0.067 C 
HETATM    6  C8  UNL     1      25.849   4.680  49.805  1.00  0.00    -0.040 A 
HETATM    7  C9  UNL     1      26.481   5.612  49.200  1.00  0.00    -0.022 A 
HETATM    8  C10 UNL     1      27.016   6.413  48.661  1.00  0.00    -0.057 A 
HETATM    9  C11 UNL     1      27.628   7.361  48.011  1.00  0.00     0.037 A 
HETATM   10  C12 UNL     1      26.329   7.232  47.356  1.00  0.00     0.048 A 
HETATM   11  C13 UNL     1      24.903   7.395  47.516  1.00  0.00     0.000 C 
HETATM   12  C14 UNL     1      24.115   6.378  48.001  1.00  0.00     0.086 C 
HETATM   13  N1  UNL     1      23.861   5.572  49.056  1.00  0.00    -0.345 N 
HETATM   14  C15 UNL     1      24.880   5.685  49.953  1.00  0.00     0.150 A 
HETATM   15  C16 UNL     1      22.898   4.648  49.516  1.00  0.00     0.154 C 
HETATM   16  C17 UNL     1      22.225   4.097  48.266  1.00  0.00     0.072 C 
HETATM   17  O1  UNL     1      23.684   3.591  49.980  1.00  0.00    -0.309 OA
HETATM   18  C18 UNL     1      23.241   2.765  50.899  1.00  0.00     0.474 C 
HETATM   19  N2  UNL     1      22.585   3.401  52.041  1.00  0.00     0.134 N 
HETATM   20  C19 UNL     1      22.543   4.845  51.920  1.00  0.00     0.297 C 
HETATM   21  C20 UNL     1      21.967   5.129  50.549  1.00  0.00     0.102 C 
HETATM   22  C21 UNL     1      20.644   4.367  50.588  1.00  0.00     0.030 C 
HETATM   23  N3  UNL     1      24.363   2.007  51.513  1.00  0.00    -0.291 N 
HETATM   24  H17 UNL     1      22.973   3.098  52.962  1.00  0.00     0.321 HD
ENDROOT
BRANCH  21  25
HETATM   25  C22 UNL     1      21.586   6.556  50.500  1.00  0.00     0.247 C 
HETATM   26  O2  UNL     1      21.656   7.521  51.271  1.00  0.00    -0.287 OA
BRANCH  25  27
HETATM   27  C23 UNL     1      20.960   7.532  49.576  1.00  0.00     0.452 C 
HETATM   28  F1  UNL     1      21.831   8.629  49.502  1.00  0.00    -0.163 F 
HETATM   29  F2  UNL     1      20.720   7.090  48.320  1.00  0.00    -0.163 F 
HETATM   30  F3  UNL     1      19.786   8.066  50.151  1.00  0.00    -0.163 F 
ENDBRANCH  25  27
ENDBRANCH  21  25
BRANCH   1  31
HETATM   31  C2  UNL     1      26.271  -0.981  53.066  1.00  0.00    -0.024 C 
HETATM   32  C1  UNL     1      26.842  -1.935  52.369  1.00  0.00     0.031 C 
ENDBRANCH   1  31
TORSDOF 3
ENDMDL
MODEL 6
REMARK VINA RESULT:      -8.4      1.904      2.316
REMARK  3 active torsions:
REMARK  status: ('A' for Active; 'I' for Inactive)
REMARK    1  A    between atoms: C2_2  and  C3_3 
REMARK    2  A    between atoms: C20_23  and  C22_25 
REMARK    3  A    between atoms: C22_25  and  C23_27 
ROOT
HETATM    1  C3  UNL     1      17.305   0.771  51.131  1.00  0.00     0.028 C 
HETATM    2  C4  UNL     1      18.584   1.174  51.250  1.00  0.00     0.065 A 
HETATM    3  C5  UNL     1      19.770   0.805  51.939  1.00  0.00     0.062 A 
HETATM    4  C6  UNL     1      20.889   0.435  52.665  1.00  0.00     0.010 C 
HETATM    5  C7  UNL     1      21.913   0.525  51.639  1.00  0.00     0.067 C 
HETATM    6  C8  UNL     1      23.046   1.406  51.818  1.00  0.00    -0.040 A 
HETATM    7  C9  UNL     1      24.237   1.108  52.173  1.00  0.00    -0.022 A 
HETATM    8  C10 UNL     1      25.271   0.851  52.461  1.00  0.00    -0.057 A 
HETATM    9  C11 UNL     1      26.499   0.560  52.782  1.00  0.00     0.037 A 
HETATM   10  C12 UNL     1      26.602   1.300  51.527  1.00  0.00     0.048 A 
HETATM   11  C13 UNL     1      26.402   2.581  50.891  1.00  0.00     0.000 C 
HETATM   12  C14 UNL     1      25.196   2.921  50.326  1.00  0.00     0.086 C 
HETATM   13  N1  UNL     1      23.882   3.141  50.553  1.00  0.00    -0.345 N 
HETATM   14  C15 UNL     1      23.571   2.708  51.806  1.00  0.00     0.150 A 
HETATM   15  C16 UNL     1      22.734   3.655  49.910  1.00  0.00     0.154 C 
HETATM   16  C17 UNL     1      22.981   3.475  48.419  1.00  0.00     0.072 C 
HETATM   17  O1  UNL     1      21.759   2.703  50.217  1.00  0.00    -0.309 OA
HETATM   18  C18 UNL     1      20.484   3.016  50.233  1.00  0.00     0.474 C 
HETATM   19  N2  UNL     1      20.159   4.262  50.924  1.00  0.00     0.134 N 
HETATM   20  C19 UNL     1      21.336   4.924  51.453  1.00  0.00     0.297 C 
HETATM   21  C20 UNL     1      22.315   5.010  50.302  1.00  0.00     0.102 C 
HETATM   22  C21 UNL     1      21.496   5.733  49.233  1.00  0.00     0.030 C 
HETATM   23  N3  UNL     1      19.698   1.989  50.966  1.00  0.00    -0.291 N 
HETATM   24  H17 UNL     1      19.416   4.151  51.649  1.00  0.00     0.321 HD
ENDROOT
BRANCH  21  25
HETATM   25  C22 UNL     1      23.380   5.962  50.677  1.00  0.00     0.247 C 
HETATM   26  O2  UNL     1      23.890   6.353  51.734  1.00  0.00    -0.287 OA
BRANCH  25  27
HETATM   27  C23 UNL     1      24.342   6.897  50.044  1.00  0.00     0.452 C 
HETATM   28  F1  UNL     1      25.510   6.855  50.820  1.00  0.00    -0.163 F 
HETATM   29  F2  UNL     1      24.670   6.629  48.759  1.00  0.00    -0.163 F 
HETATM   30  F3  UNL     1      23.890   8.228  50.178  1.00  0.00    -0.163 F 
ENDBRANCH  25  27
ENDBRANCH  21  25
BRANCH   1  31
HETATM   31  C2  UNL     1      16.741  -0.359  51.818  1.00  0.00    -0.024 C 
HETATM   32  C1  UNL     1      15.942  -1.227  51.243  1.00  0.00     0.031 C 
ENDBRANCH   1  31
TORSDOF 3
ENDMDL
MODEL 7
REMARK VINA RESULT:      -8.2      2.478      3.598
REMARK  3 active torsions:
REMARK  status: ('A' for Active; 'I' for Inactive)
REMARK    1  A    between atoms: C2_2  and  C3_3 
REMARK    2  A    between atoms: C20_23  and  C22_25 
REMARK    3  A    between atoms: C22_25  and  C23_27 
ROOT
HETATM    1  C3  UNL     1      15.487   1.394  48.707  1.00  0.00     0.028 C 
HETATM    2  C4  UNL     1      16.584   1.403  49.487  1.00  0.00     0.065 A 
HETATM    3  C5  UNL     1      17.063   0.797  50.679  1.00  0.00     0.062 A 
HETATM    4  C6  UNL     1      17.470   0.215  51.868  1.00  0.00     0.010 C 
HETATM    5  C7  UNL     1      18.831  -0.161  51.527  1.00  0.00     0.067 C 
HETATM    6  C8  UNL     1      19.941   0.350  52.299  1.00  0.00    -0.040 A 
HETATM    7  C9  UNL     1      20.615  -0.240  53.211  1.00  0.00    -0.022 A 
HETATM    8  C10 UNL     1      21.211  -0.753  53.986  1.00  0.00    -0.057 A 
HETATM    9  C11 UNL     1      21.934  -1.353  54.888  1.00  0.00     0.037 A 
HETATM   10  C12 UNL     1      22.891  -0.872  53.895  1.00  0.00     0.048 A 
HETATM   11  C13 UNL     1      23.479   0.301  53.292  1.00  0.00     0.000 C 
HETATM   12  C14 UNL     1      22.912   0.904  52.195  1.00  0.00     0.086 C 
HETATM   13  N1  UNL     1      21.823   1.544  51.713  1.00  0.00    -0.345 N 
HETATM   14  C15 UNL     1      20.804   1.415  52.607  1.00  0.00     0.150 A 
HETATM   15  C16 UNL     1      21.400   2.282  50.586  1.00  0.00     0.154 C 
HETATM   16  C17 UNL     1      22.283   1.818  49.435  1.00  0.00     0.072 C 
HETATM   17  O1  UNL     1      20.149   1.727  50.308  1.00  0.00    -0.309 OA
HETATM   18  C18 UNL     1      19.227   2.410  49.670  1.00  0.00     0.474 C 
HETATM   19  N2  UNL     1      19.041   3.784  50.134  1.00  0.00     0.134 N 
HETATM   20  C19 UNL     1      19.939   4.127  51.220  1.00  0.00     0.297 C 
HETATM   21  C20 UNL     1      21.325   3.742  50.748  1.00  0.00     0.102 C 
HETATM   22  C21 UNL     1      21.447   4.514  49.435  1.00  0.00     0.030 C 
HETATM   23  N3  UNL     1      17.889   1.790  49.852  1.00  0.00    -0.291 N 
HETATM   24  H17 UNL     1      18.048   4.012  50.362  1.00  0.00     0.321 HD
ENDROOT
BRANCH  21  25
HETATM   25  C22 UNL     1      22.307   4.370  51.655  1.00  0.00     0.247 C 
HETATM   26  O2  UNL     1      22.256   5.046  52.690  1.00  0.00    -0.287 OA
BRANCH  25  27
HETATM   27  C23 UNL     1      23.775   4.525  51.808  1.00  0.00     0.452 C 
HETATM   28  F1  UNL     1      24.098   4.032  53.081  1.00  0.00    -0.163 F 
HETATM   29  F2  UNL     1      24.536   3.883  50.893  1.00  0.00    -0.163 F 
HETATM   30  F3  UNL     1      24.118   5.893  51.873  1.00  0.00    -0.163 F 
ENDBRANCH  25  27
ENDBRANCH  21  25
BRANCH   1  31
HETATM   31  C2  UNL     1      14.315   0.603  48.962  1.00  0.00    -0.024 C 
HETATM   32  C1  UNL     1      13.487   0.839  49.953  1.00  0.00     0.031 C 
ENDBRANCH   1  31
TORSDOF 3
ENDMDL
MODEL 8
REMARK VINA RESULT:      -8.1      3.079      5.967
REMARK  3 active torsions:
REMARK  status: ('A' for Active; 'I' for Inactive)
REMARK    1  A    between atoms: C2_2  and  C3_3 
REMARK    2  A    between atoms: C20_23  and  C22_25 
REMARK    3  A    between atoms: C22_25  and  C23_27 
ROOT
HETATM    1  C3  UNL     1      25.315  -0.578  53.553  1.00  0.00     0.028 C 
HETATM    2  C4  UNL     1      24.522   0.417  53.114  1.00  0.00     0.065 A 
HETATM    3  C5  UNL     1      24.515   1.835  53.039  1.00  0.00     0.062 A 
HETATM    4  C6  UNL     1      24.532   3.220  53.029  1.00  0.00     0.010 C 
HETATM    5  C7  UNL     1      24.065   3.481  51.679  1.00  0.00     0.067 C 
HETATM    6  C8  UNL     1      22.872   4.269  51.462  1.00  0.00    -0.040 A 
HETATM    7  C9  UNL     1      22.781   5.496  51.118  1.00  0.00    -0.022 A 
HETATM    8  C10 UNL     1      22.698   6.550  50.802  1.00  0.00    -0.057 A 
HETATM    9  C11 UNL     1      22.587   7.788  50.412  1.00  0.00     0.037 A 
HETATM   10  C12 UNL     1      21.798   7.018  49.455  1.00  0.00     0.048 A 
HETATM   11  C13 UNL     1      20.624   6.193  49.283  1.00  0.00     0.000 C 
HETATM   12  C14 UNL     1      20.672   4.832  49.466  1.00  0.00     0.086 C 
HETATM   13  N1  UNL     1      20.904   3.833  50.346  1.00  0.00    -0.345 N 
HETATM   14  C15 UNL     1      21.471   4.357  51.468  1.00  0.00     0.150 A 
HETATM   15  C16 UNL     1      20.763   2.433  50.472  1.00  0.00     0.154 C 
HETATM   16  C17 UNL     1      20.784   1.888  49.050  1.00  0.00     0.072 C 
HETATM   17  O1  UNL     1      21.994   2.049  51.008  1.00  0.00    -0.309 OA
HETATM   18  C18 UNL     1      22.117   0.946  51.711  1.00  0.00     0.474 C 
HETATM   19  N2  UNL     1      21.077   0.734  52.716  1.00  0.00     0.134 N 
HETATM   20  C19 UNL     1      20.093   1.798  52.728  1.00  0.00     0.297 C 
HETATM   21  C20 UNL     1      19.639   1.957  51.292  1.00  0.00     0.102 C 
HETATM   22  C21 UNL     1      19.175   0.545  50.940  1.00  0.00     0.030 C 
HETATM   23  N3  UNL     1      23.376   0.961  52.500  1.00  0.00    -0.291 N 
HETATM   24  H17 UNL     1      21.458   0.545  53.670  1.00  0.00     0.321 HD
ENDROOT
BRANCH  21  25
HETATM   25  C22 UNL     1      18.409   2.776  51.289  1.00  0.00     0.247 C 
HETATM   26  O2  UNL     1      17.878   3.584  52.061  1.00  0.00    -0.287 OA
BRANCH  25  27
HETATM   27  C23 UNL     1      17.232   3.053  50.431  1.00  0.00     0.452 C 
HETATM   28  F1  UNL     1      16.809   4.354  50.740  1.00  0.00    -0.163 F 
HETATM   29  F2  UNL     1      17.440   2.975  49.097  1.00  0.00    -0.163 F 
HETATM   30  F3  UNL     1      16.144   2.239  50.816  1.00  0.00    -0.163 F 
ENDBRANCH  25  27
ENDBRANCH  21  25
BRANCH   1  31
HETATM   31  C2  UNL     1      26.597  -0.383  54.173  1.00  0.00    -0.024 C 
HETATM   32  C1  UNL     1      27.729  -0.397  53.508  1.00  0.00     0.031 C 
ENDBRANCH   1  31
TORSDOF 3
ENDMDL
MODEL 9
REMARK VINA RESULT:      -8.0      7.078      9.628
REMARK  3 active torsions:
REMARK  status: ('A' for Active; 'I' for Inactive)
REMARK    1  A    between atoms: C2_2  and  C3_3 
REMARK    2  A    between atoms: C20_23  and  C22_25 
REMARK    3  A    between atoms: C22_25  and  C23_27 
ROOT
HETATM    1  C3  UNL     1      23.362   5.246  49.555  1.00  0.00     0.028 C 
HETATM    2  C4  UNL     1      24.631   5.639  49.339  1.00  0.00     0.065 A 
HETATM    3  C5  UNL     1      25.944   5.096  49.351  1.00  0.00     0.062 A 
HETATM    4  C6  UNL     1      27.207   4.534  49.420  1.00  0.00     0.010 C 
HETATM    5  C7  UNL     1      27.800   5.067  48.206  1.00  0.00     0.067 C 
HETATM    6  C8  UNL     1      29.002   5.869  48.275  1.00  0.00    -0.040 A 
HETATM    7  C9  UNL     1      30.206   5.520  48.029  1.00  0.00    -0.022 A 
HETATM    8  C10 UNL     1      31.245   5.228  47.798  1.00  0.00    -0.057 A 
HETATM    9  C11 UNL     1      32.473   4.900  47.511  1.00  0.00     0.037 A 
HETATM   10  C12 UNL     1      32.191   6.071  46.685  1.00  0.00     0.048 A 
HETATM   11  C13 UNL     1      31.901   7.486  46.700  1.00  0.00     0.000 C 
HETATM   12  C14 UNL     1      30.611   7.953  46.790  1.00  0.00     0.086 C 
HETATM   13  N1  UNL     1      29.493   7.999  47.547  1.00  0.00    -0.345 N 
HETATM   14  C15 UNL     1      29.611   7.101  48.563  1.00  0.00     0.150 A 
HETATM   15  C16 UNL     1      28.247   8.660  47.615  1.00  0.00     0.154 C 
HETATM   16  C17 UNL     1      27.926   9.082  46.187  1.00  0.00     0.072 C 
HETATM   17  O1  UNL     1      27.359   7.614  47.874  1.00  0.00    -0.309 OA
HETATM   18  C18 UNL     1      26.210   7.828  48.472  1.00  0.00     0.474 C 
HETATM   19  N2  UNL     1      26.276   8.692  49.649  1.00  0.00     0.134 N 
HETATM   20  C19 UNL     1      27.622   9.160  49.917  1.00  0.00     0.297 C 
HETATM   21  C20 UNL     1      28.128   9.735  48.612  1.00  0.00     0.102 C 
HETATM   22  C21 UNL     1      27.055  10.769  48.275  1.00  0.00     0.030 C 
HETATM   23  N3  UNL     1      25.644   6.558  48.997  1.00  0.00    -0.291 N 
HETATM   24  H17 UNL     1      25.833   8.272  50.496  1.00  0.00     0.321 HD
ENDROOT
BRANCH  21  25
HETATM   25  C22 UNL     1      29.343  10.524  48.900  1.00  0.00     0.247 C 
HETATM   26  O2  UNL     1      30.362  10.367  49.584  1.00  0.00    -0.287 OA
BRANCH  25  27
HETATM   27  C23 UNL     1      29.957  11.830  48.557  1.00  0.00     0.452 C 
HETATM   28  F1  UNL     1      31.315  11.734  48.895  1.00  0.00    -0.163 F 
HETATM   29  F2  UNL     1      29.863  12.207  47.262  1.00  0.00    -0.163 F 
HETATM   30  F3  UNL     1      29.463  12.841  49.410  1.00  0.00    -0.163 F 
ENDBRANCH  25  27
ENDBRANCH  21  25
BRANCH   1  31
HETATM   31  C2  UNL     1      22.975   3.911  49.919  1.00  0.00    -0.024 C 
HETATM   32  C1  UNL     1      22.903   2.921  49.060  1.00  0.00     0.031 C 
ENDBRANCH   1  31
TORSDOF 3
ENDMDL
