MODEL 1
REMARK VINA RESULT:      -7.6      0.000      0.000
REMARK  4 active torsions:
REMARK  status: ('A' for Active; 'I' for Inactive)
REMARK    1  A    between atoms: C4_5  and  N1_6 
REMARK    2  A    between atoms: N1_6  and  C5_7 
REMARK    3  A    between atoms: N2_8  and  C6_9 
REMARK    4  A    between atoms: N3_10  and  C7_11 
ROOT
HETATM    1  C5  UNL     1      25.684   2.433  51.316  1.00  0.00     0.208 C 
HETATM    2  N2  UNL     1      24.408   2.316  51.325  1.00  0.00    -0.237 NA
ENDROOT
BRANCH   1   3
HETATM    3  N1  UNL     1      26.429   2.544  52.512  1.00  0.00    -0.351 N 
HETATM    4  H3  UNL     1      26.288   3.393  53.130  1.00  0.00     0.166 HD
BRANCH   3   5
HETATM    5  C4  UNL     1      27.330   1.509  52.871  1.00  0.00     0.034 A 
HETATM    6  C3  UNL     1      28.505   1.908  53.523  1.00  0.00     0.032 A 
HETATM    7  C2  UNL     1      29.417   0.949  53.934  1.00  0.00     0.046 A 
HETATM    8  C1  UNL     1      29.243  -0.403  53.739  1.00  0.00     0.138 A 
HETATM    9  F1  UNL     1      30.114  -1.362  54.126  1.00  0.00    -0.204 F 
HETATM   10  C13 UNL     1      28.075  -0.819  53.088  1.00  0.00     0.074 A 
HETATM   11  C12 UNL     1      27.189   0.157  52.692  1.00  0.00     0.056 A 
HETATM   12 CL2  UNL     1      27.686  -2.492  52.756  1.00  0.00    -0.081 Cl
ENDBRANCH   3   5
ENDBRANCH   1   3
BRANCH   2  13
HETATM   13  C6  UNL     1      23.660   2.284  52.493  1.00  0.00     0.237 C 
HETATM   14  N3  UNL     1      23.692   1.023  52.229  1.00  0.00    -0.216 NA
BRANCH  14  15
HETATM   15  C7  UNL     1      23.046   0.105  53.088  1.00  0.00     0.188 A 
HETATM   16  C8  UNL     1      21.804  -0.306  52.934  1.00  0.00     0.086 A 
HETATM   17 CL1  UNL     1      20.852   0.291  51.595  1.00  0.00    -0.080 Cl
HETATM   18  C9  UNL     1      21.166  -1.244  53.850  1.00  0.00     0.026 A 
HETATM   19  C10 UNL     1      21.914  -1.664  54.864  1.00  0.00     0.001 A 
HETATM   20  C11 UNL     1      23.323  -1.256  55.122  1.00  0.00     0.205 A 
HETATM   21  O1  UNL     1      23.810  -0.368  54.150  1.00  0.00    -0.329 OA
ENDBRANCH  14  15
ENDBRANCH   2  13
TORSDOF 4
ENDMDL
MODEL 2
REMARK VINA RESULT:      -7.2      2.738      6.137
REMARK  4 active torsions:
REMARK  status: ('A' for Active; 'I' for Inactive)
REMARK    1  A    between atoms: C4_5  and  N1_6 
REMARK    2  A    between atoms: N1_6  and  C5_7 
REMARK    3  A    between atoms: N2_8  and  C6_9 
REMARK    4  A    between atoms: N3_10  and  C7_11 
ROOT
HETATM    1  C5  UNL     1      24.212   2.730  51.809  1.00  0.00     0.208 C 
HETATM    2  N2  UNL     1      25.476   2.942  51.770  1.00  0.00    -0.237 NA
ENDROOT
BRANCH   1   3
HETATM    3  N1  UNL     1      23.640   1.557  51.267  1.00  0.00    -0.351 N 
HETATM    4  H3  UNL     1      23.824   1.314  50.252  1.00  0.00     0.166 HD
BRANCH   3   5
HETATM    5  C4  UNL     1      22.850   0.719  52.095  1.00  0.00     0.034 A 
HETATM    6  C3  UNL     1      23.529   0.028  53.108  1.00  0.00     0.032 A 
HETATM    7  C2  UNL     1      22.818  -0.783  53.978  1.00  0.00     0.046 A 
HETATM    8  C1  UNL     1      21.454  -0.961  53.912  1.00  0.00     0.138 A 
HETATM    9  F1  UNL     1      20.733  -1.747  54.743  1.00  0.00    -0.204 F 
HETATM   10  C13 UNL     1      20.759  -0.280  52.905  1.00  0.00     0.074 A 
HETATM   11  C12 UNL     1      21.494   0.518  52.058  1.00  0.00     0.056 A 
HETATM   12 CL2  UNL     1      19.029  -0.386  52.671  1.00  0.00    -0.081 Cl
ENDBRANCH   3   5
ENDBRANCH   1   3
BRANCH   2  13
HETATM   13  C6  UNL     1      26.376   2.050  51.205  1.00  0.00     0.237 C 
HETATM   14  N3  UNL     1      26.523   1.740  52.447  1.00  0.00    -0.216 NA
BRANCH  14  15
HETATM   15  C7  UNL     1      27.432   0.723  52.818  1.00  0.00     0.188 A 
HETATM   16  C8  UNL     1      28.584   0.941  53.419  1.00  0.00     0.086 A 
HETATM   17 CL1  UNL     1      29.064   2.577  53.806  1.00  0.00    -0.080 Cl
HETATM   18  C9  UNL     1      29.504  -0.133  53.773  1.00  0.00     0.026 A 
HETATM   19  C10 UNL     1      29.113  -1.361  53.449  1.00  0.00     0.001 A 
HETATM   20  C11 UNL     1      27.833  -1.707  52.770  1.00  0.00     0.205 A 
HETATM   21  O1  UNL     1      27.042  -0.576  52.509  1.00  0.00    -0.329 OA
ENDBRANCH  14  15
ENDBRANCH   2  13
TORSDOF 4
ENDMDL
MODEL 3
REMARK VINA RESULT:      -7.2      3.791      6.097
REMARK  4 active torsions:
REMARK  status: ('A' for Active; 'I' for Inactive)
REMARK    1  A    between atoms: C4_5  and  N1_6 
REMARK    2  A    between atoms: N1_6  and  C5_7 
REMARK    3  A    between atoms: N2_8  and  C6_9 
REMARK    4  A    between atoms: N3_10  and  C7_11 
ROOT
HETATM    1  C5  UNL     1      23.303   3.876  52.419  1.00  0.00     0.208 C 
HETATM    2  N2  UNL     1      23.134   4.891  51.653  1.00  0.00    -0.237 NA
ENDROOT
BRANCH   1   3
HETATM    3  N1  UNL     1      24.495   3.691  53.154  1.00  0.00    -0.351 N 
HETATM    4  H3  UNL     1      24.961   4.531  53.601  1.00  0.00     0.166 HD
BRANCH   3   5
HETATM    5  C4  UNL     1      25.031   2.385  53.297  1.00  0.00     0.034 A 
HETATM    6  C3  UNL     1      24.262   1.337  52.773  1.00  0.00     0.032 A 
HETATM    7  C2  UNL     1      24.738   0.038  52.847  1.00  0.00     0.046 A 
HETATM    8  C1  UNL     1      25.946  -0.301  53.413  1.00  0.00     0.138 A 
HETATM    9  F1  UNL     1      26.436  -1.558  53.502  1.00  0.00    -0.204 F 
HETATM   10  C13 UNL     1      26.728   0.733  53.943  1.00  0.00     0.074 A 
HETATM   11  C12 UNL     1      26.227   2.013  53.855  1.00  0.00     0.056 A 
HETATM   12 CL2  UNL     1      28.286   0.490  54.699  1.00  0.00    -0.081 Cl
ENDBRANCH   3   5
ENDBRANCH   1   3
BRANCH   2  13
HETATM   13  C6  UNL     1      24.091   5.882  51.489  1.00  0.00     0.237 C 
HETATM   14  N3  UNL     1      24.484   5.057  50.581  1.00  0.00    -0.216 NA
BRANCH  14  15
HETATM   15  C7  UNL     1      25.618   5.361  49.794  1.00  0.00     0.188 A 
HETATM   16  C8  UNL     1      26.542   4.486  49.453  1.00  0.00     0.086 A 
HETATM   17 CL1  UNL     1      26.401   2.826  49.983  1.00  0.00    -0.080 Cl
HETATM   18  C9  UNL     1      27.706   4.842  48.652  1.00  0.00     0.026 A 
HETATM   19  C10 UNL     1      27.788   6.115  48.281  1.00  0.00     0.001 A 
HETATM   20  C11 UNL     1      26.798   7.175  48.616  1.00  0.00     0.205 A 
HETATM   21  O1  UNL     1      25.722   6.684  49.374  1.00  0.00    -0.329 OA
ENDBRANCH  14  15
ENDBRANCH   2  13
TORSDOF 4
ENDMDL
MODEL 4
REMARK VINA RESULT:      -7.0      2.616      5.994
REMARK  4 active torsions:
REMARK  status: ('A' for Active; 'I' for Inactive)
REMARK    1  A    between atoms: C4_5  and  N1_6 
REMARK    2  A    between atoms: N1_6  and  C5_7 
REMARK    3  A    between atoms: N2_8  and  C6_9 
REMARK    4  A    between atoms: N3_10  and  C7_11 
ROOT
HETATM    1  C5  UNL     1      23.649   2.109  50.793  1.00  0.00     0.208 C 
HETATM    2  N2  UNL     1      24.863   2.457  50.573  1.00  0.00    -0.237 NA
ENDROOT
BRANCH   1   3
HETATM    3  N1  UNL     1      23.056   2.251  52.068  1.00  0.00    -0.351 N 
HETATM    4  H3  UNL     1      23.032   3.209  52.522  1.00  0.00     0.166 HD
BRANCH   3   5
HETATM    5  C4  UNL     1      22.487   1.118  52.703  1.00  0.00     0.034 A 
HETATM    6  C3  UNL     1      23.360   0.330  53.466  1.00  0.00     0.032 A 
HETATM    7  C2  UNL     1      22.869  -0.775  54.143  1.00  0.00     0.046 A 
HETATM    8  C1  UNL     1      21.547  -1.161  54.116  1.00  0.00     0.138 A 
HETATM    9  F1  UNL     1      21.039  -2.233  54.763  1.00  0.00    -0.204 F 
HETATM   10  C13 UNL     1      20.661  -0.386  53.358  1.00  0.00     0.074 A 
HETATM   11  C12 UNL     1      21.179   0.705  52.697  1.00  0.00     0.056 A 
HETATM   12 CL2  UNL     1      18.952  -0.724  53.209  1.00  0.00    -0.081 Cl
ENDBRANCH   3   5
ENDBRANCH   1   3
BRANCH   2  13
HETATM   13  C6  UNL     1      25.684   3.001  51.550  1.00  0.00     0.237 C 
HETATM   14  N3  UNL     1      26.136   1.795  51.543  1.00  0.00    -0.216 NA
BRANCH  14  15
HETATM   15  C7  UNL     1      27.188   1.429  52.413  1.00  0.00     0.188 A 
HETATM   16  C8  UNL     1      27.440   0.194  52.795  1.00  0.00     0.086 A 
HETATM   17 CL1  UNL     1      26.438  -1.115  52.214  1.00  0.00    -0.080 Cl
HETATM   18  C9  UNL     1      28.527  -0.142  53.707  1.00  0.00     0.026 A 
HETATM   19  C10 UNL     1      29.257   0.880  54.141  1.00  0.00     0.001 A 
HETATM   20  C11 UNL     1      29.050   2.307  53.767  1.00  0.00     0.205 A 
HETATM   21  O1  UNL     1      27.983   2.476  52.870  1.00  0.00    -0.329 OA
ENDBRANCH  14  15
ENDBRANCH   2  13
TORSDOF 4
ENDMDL
MODEL 5
REMARK VINA RESULT:      -6.8      3.260      5.424
REMARK  4 active torsions:
REMARK  status: ('A' for Active; 'I' for Inactive)
REMARK    1  A    between atoms: C4_5  and  N1_6 
REMARK    2  A    between atoms: N1_6  and  C5_7 
REMARK    3  A    between atoms: N2_8  and  C6_9 
REMARK    4  A    between atoms: N3_10  and  C7_11 
ROOT
HETATM    1  C5  UNL     1      23.634   1.942  52.897  1.00  0.00     0.208 C 
HETATM    2  N2  UNL     1      23.273   2.962  52.209  1.00  0.00    -0.237 NA
ENDROOT
BRANCH   1   3
HETATM    3  N1  UNL     1      24.327   0.859  52.310  1.00  0.00    -0.351 N 
HETATM    4  H3  UNL     1      23.832   0.258  51.591  1.00  0.00     0.166 HD
BRANCH   3   5
HETATM    5  C4  UNL     1      25.674   0.612  52.678  1.00  0.00     0.034 A 
HETATM    6  C3  UNL     1      26.098  -0.723  52.625  1.00  0.00     0.032 A 
HETATM    7  C2  UNL     1      27.411  -1.036  52.939  1.00  0.00     0.046 A 
HETATM    8  C1  UNL     1      28.351  -0.100  53.309  1.00  0.00     0.138 A 
HETATM    9  F1  UNL     1      29.637  -0.374  53.622  1.00  0.00    -0.204 F 
HETATM   10  C13 UNL     1      27.945   1.238  53.369  1.00  0.00     0.074 A 
HETATM   11  C12 UNL     1      26.635   1.517  53.051  1.00  0.00     0.056 A 
HETATM   12 CL2  UNL     1      29.000   2.559  53.817  1.00  0.00    -0.081 Cl
ENDBRANCH   3   5
ENDBRANCH   1   3
BRANCH   2  13
HETATM   13  C6  UNL     1      23.534   3.091  50.853  1.00  0.00     0.237 C 
HETATM   14  N3  UNL     1      24.421   3.902  51.315  1.00  0.00    -0.216 NA
BRANCH  14  15
HETATM   15  C7  UNL     1      25.280   4.590  50.429  1.00  0.00     0.188 A 
HETATM   16  C8  UNL     1      25.167   5.867  50.127  1.00  0.00     0.086 A 
HETATM   17 CL1  UNL     1      23.888   6.818  50.847  1.00  0.00    -0.080 Cl
HETATM   18  C9  UNL     1      26.064   6.539  49.194  1.00  0.00     0.026 A 
HETATM   19  C10 UNL     1      27.013   5.782  48.655  1.00  0.00     0.001 A 
HETATM   20  C11 UNL     1      27.220   4.333  48.932  1.00  0.00     0.205 A 
HETATM   21  O1  UNL     1      26.297   3.827  49.861  1.00  0.00    -0.329 OA
ENDBRANCH  14  15
ENDBRANCH   2  13
TORSDOF 4
ENDMDL
MODEL 6
REMARK VINA RESULT:      -6.8      2.462      3.159
REMARK  4 active torsions:
REMARK  status: ('A' for Active; 'I' for Inactive)
REMARK    1  A    between atoms: C4_5  and  N1_6 
REMARK    2  A    between atoms: N1_6  and  C5_7 
REMARK    3  A    between atoms: N2_8  and  C6_9 
REMARK    4  A    between atoms: N3_10  and  C7_11 
ROOT
HETATM    1  C5  UNL     1      24.155   1.807  53.042  1.00  0.00     0.208 C 
HETATM    2  N2  UNL     1      23.191   2.042  52.231  1.00  0.00    -0.237 NA
ENDROOT
BRANCH   1   3
HETATM    3  N1  UNL     1      24.594   0.491  53.312  1.00  0.00    -0.351 N 
HETATM    4  H3  UNL     1      23.875  -0.279  53.428  1.00  0.00     0.166 HD
BRANCH   3   5
HETATM    5  C4  UNL     1      25.985   0.224  53.401  1.00  0.00     0.034 A 
HETATM    6  C3  UNL     1      26.409  -1.025  52.926  1.00  0.00     0.032 A 
HETATM    7  C2  UNL     1      27.757  -1.343  52.950  1.00  0.00     0.046 A 
HETATM    8  C1  UNL     1      28.733  -0.493  53.420  1.00  0.00     0.138 A 
HETATM    9  F1  UNL     1      30.055  -0.775  53.458  1.00  0.00    -0.204 F 
HETATM   10  C13 UNL     1      28.328   0.758  53.900  1.00  0.00     0.074 A 
HETATM   11  C12 UNL     1      26.981   1.045  53.863  1.00  0.00     0.056 A 
HETATM   12 CL2  UNL     1      29.426   1.963  54.533  1.00  0.00    -0.081 Cl
ENDBRANCH   3   5
ENDBRANCH   1   3
BRANCH   2  13
HETATM   13  C6  UNL     1      22.509   1.040  51.556  1.00  0.00     0.237 C 
HETATM   14  N3  UNL     1      21.648   1.294  52.480  1.00  0.00    -0.216 NA
BRANCH  14  15
HETATM   15  C7  UNL     1      20.431   0.577  52.528  1.00  0.00     0.188 A 
HETATM   16  C8  UNL     1      20.175  -0.394  53.380  1.00  0.00     0.086 A 
HETATM   17 CL1  UNL     1      21.387  -0.862  54.551  1.00  0.00    -0.080 Cl
HETATM   18  C9  UNL     1      18.912  -1.123  53.389  1.00  0.00     0.026 A 
HETATM   19  C10 UNL     1      18.022  -0.750  52.475  1.00  0.00     0.001 A 
HETATM   20  C11 UNL     1      18.219   0.332  51.471  1.00  0.00     0.205 A 
HETATM   21  O1  UNL     1      19.471   0.956  51.594  1.00  0.00    -0.329 OA
ENDBRANCH  14  15
ENDBRANCH   2  13
TORSDOF 4
ENDMDL
MODEL 7
REMARK VINA RESULT:      -6.8      2.764      4.739
REMARK  4 active torsions:
REMARK  status: ('A' for Active; 'I' for Inactive)
REMARK    1  A    between atoms: C4_5  and  N1_6 
REMARK    2  A    between atoms: N1_6  and  C5_7 
REMARK    3  A    between atoms: N2_8  and  C6_9 
REMARK    4  A    between atoms: N3_10  and  C7_11 
ROOT
HETATM    1  C5  UNL     1      24.224   0.261  53.557  1.00  0.00     0.208 C 
HETATM    2  N2  UNL     1      23.431   1.115  53.022  1.00  0.00    -0.237 NA
ENDROOT
BRANCH   1   3
HETATM    3  N1  UNL     1      25.078  -0.550  52.775  1.00  0.00    -0.351 N 
HETATM    4  H3  UNL     1      24.673  -1.085  51.955  1.00  0.00     0.166 HD
BRANCH   3   5
HETATM    5  C4  UNL     1      26.460  -0.613  53.091  1.00  0.00     0.034 A 
HETATM    6  C3  UNL     1      27.112  -1.815  52.784  1.00  0.00     0.032 A 
HETATM    7  C2  UNL     1      28.470  -1.938  53.034  1.00  0.00     0.046 A 
HETATM    8  C1  UNL     1      29.240  -0.934  53.575  1.00  0.00     0.138 A 
HETATM    9  F1  UNL     1      30.565  -1.025  53.831  1.00  0.00    -0.204 F 
HETATM   10  C13 UNL     1      28.605   0.274  53.888  1.00  0.00     0.074 A 
HETATM   11  C12 UNL     1      27.256   0.365  53.629  1.00  0.00     0.056 A 
HETATM   12 CL2  UNL     1      29.423   1.656  54.580  1.00  0.00    -0.081 Cl
ENDBRANCH   3   5
ENDBRANCH   1   3
BRANCH   2  13
HETATM   13  C6  UNL     1      23.350   1.317  51.652  1.00  0.00     0.237 C 
HETATM   14  N3  UNL     1      23.929   2.416  51.992  1.00  0.00    -0.216 NA
BRANCH  14  15
HETATM   15  C7  UNL     1      24.264   3.372  51.007  1.00  0.00     0.188 A 
HETATM   16  C8  UNL     1      25.435   3.441  50.407  1.00  0.00     0.086 A 
HETATM   17 CL1  UNL     1      26.689   2.294  50.820  1.00  0.00    -0.080 Cl
HETATM   18  C9  UNL     1      25.750   4.453  49.406  1.00  0.00     0.026 A 
HETATM   19  C10 UNL     1      24.779   5.316  49.129  1.00  0.00     0.001 A 
HETATM   20  C11 UNL     1      23.426   5.321  49.753  1.00  0.00     0.205 A 
HETATM   21  O1  UNL     1      23.261   4.280  50.682  1.00  0.00    -0.329 OA
ENDBRANCH  14  15
ENDBRANCH   2  13
TORSDOF 4
ENDMDL
MODEL 8
REMARK VINA RESULT:      -6.6      3.998      5.227
REMARK  4 active torsions:
REMARK  status: ('A' for Active; 'I' for Inactive)
REMARK    1  A    between atoms: C4_5  and  N1_6 
REMARK    2  A    between atoms: N1_6  and  C5_7 
REMARK    3  A    between atoms: N2_8  and  C6_9 
REMARK    4  A    between atoms: N3_10  and  C7_11 
ROOT
HETATM    1  C5  UNL     1      26.938   2.256  51.881  1.00  0.00     0.208 C 
HETATM    2  N2  UNL     1      26.819   1.263  52.684  1.00  0.00    -0.237 NA
ENDROOT
BRANCH   1   3
HETATM    3  N1  UNL     1      26.314   2.264  50.613  1.00  0.00    -0.351 N 
HETATM    4  H3  UNL     1      25.945   1.354  50.214  1.00  0.00     0.166 HD
BRANCH   3   5
HETATM    5  C4  UNL     1      26.176   3.489  49.912  1.00  0.00     0.034 A 
HETATM    6  C3  UNL     1      24.881   4.022  49.841  1.00  0.00     0.032 A 
HETATM    7  C2  UNL     1      24.675   5.233  49.200  1.00  0.00     0.046 A 
HETATM    8  C1  UNL     1      25.682   5.967  48.614  1.00  0.00     0.138 A 
HETATM    9  F1  UNL     1      25.512   7.150  47.981  1.00  0.00    -0.204 F 
HETATM   10  C13 UNL     1      26.981   5.450  48.674  1.00  0.00     0.074 A 
HETATM   11  C12 UNL     1      27.154   4.245  49.318  1.00  0.00     0.056 A 
HETATM   12 CL2  UNL     1      28.380   6.243  47.987  1.00  0.00    -0.081 Cl
ENDBRANCH   3   5
ENDBRANCH   1   3
BRANCH   2  13
HETATM   13  C6  UNL     1      26.075   0.131  52.382  1.00  0.00     0.237 C 
HETATM   14  N3  UNL     1      25.253   0.716  53.184  1.00  0.00    -0.216 NA
BRANCH  14  15
HETATM   15  C7  UNL     1      24.008   0.117  53.480  1.00  0.00     0.188 A 
HETATM   16  C8  UNL     1      22.908   0.306  52.781  1.00  0.00     0.086 A 
HETATM   17 CL1  UNL     1      22.939   1.356  51.383  1.00  0.00    -0.080 Cl
HETATM   18  C9  UNL     1      21.637  -0.318  53.127  1.00  0.00     0.026 A 
HETATM   19  C10 UNL     1      21.648  -1.097  54.204  1.00  0.00     0.001 A 
HETATM   20  C11 UNL     1      22.837  -1.370  55.057  1.00  0.00     0.205 A 
HETATM   21  O1  UNL     1      23.992  -0.719  54.593  1.00  0.00    -0.329 OA
ENDBRANCH  14  15
ENDBRANCH   2  13
TORSDOF 4
ENDMDL
MODEL 9
REMARK VINA RESULT:      -6.6      3.662      6.106
REMARK  4 active torsions:
REMARK  status: ('A' for Active; 'I' for Inactive)
REMARK    1  A    between atoms: C4_5  and  N1_6 
REMARK    2  A    between atoms: N1_6  and  C5_7 
REMARK    3  A    between atoms: N2_8  and  C6_9 
REMARK    4  A    between atoms: N3_10  and  C7_11 
ROOT
HETATM    1  C5  UNL     1      23.393   1.695  51.646  1.00  0.00     0.208 C 
HETATM    2  N2  UNL     1      23.767   0.613  52.224  1.00  0.00    -0.237 NA
ENDROOT
BRANCH   1   3
HETATM    3  N1  UNL     1      23.754   2.967  52.146  1.00  0.00    -0.351 N 
HETATM    4  H3  UNL     1      23.619   3.173  53.177  1.00  0.00     0.166 HD
BRANCH   3   5
HETATM    5  C4  UNL     1      24.308   3.931  51.266  1.00  0.00     0.034 A 
HETATM    6  C3  UNL     1      23.637   5.159  51.186  1.00  0.00     0.032 A 
HETATM    7  C2  UNL     1      24.139   6.161  50.372  1.00  0.00     0.046 A 
HETATM    8  C1  UNL     1      25.283   6.028  49.617  1.00  0.00     0.138 A 
HETATM    9  F1  UNL     1      25.796   6.986  48.812  1.00  0.00    -0.204 F 
HETATM   10  C13 UNL     1      25.966   4.808  49.682  1.00  0.00     0.074 A 
HETATM   11  C12 UNL     1      25.442   3.833  50.501  1.00  0.00     0.056 A 
HETATM   12 CL2  UNL     1      27.432   4.462  48.794  1.00  0.00    -0.081 Cl
ENDBRANCH   3   5
ENDBRANCH   1   3
BRANCH   2  13
HETATM   13  C6  UNL     1      24.551   0.599  53.368  1.00  0.00     0.237 C 
HETATM   14  N3  UNL     1      25.478   0.513  52.478  1.00  0.00    -0.216 NA
BRANCH  14  15
HETATM   15  C7  UNL     1      26.832   0.438  52.873  1.00  0.00     0.188 A 
HETATM   16  C8  UNL     1      27.537  -0.674  52.901  1.00  0.00     0.086 A 
HETATM   17 CL1  UNL     1      26.794  -2.184  52.425  1.00  0.00    -0.080 Cl
HETATM   18  C9  UNL     1      28.930  -0.714  53.331  1.00  0.00     0.026 A 
HETATM   19  C10 UNL     1      29.456   0.448  53.700  1.00  0.00     0.001 A 
HETATM   20  C11 UNL     1      28.742   1.755  53.704  1.00  0.00     0.205 A 
HETATM   21  O1  UNL     1      27.418   1.644  53.249  1.00  0.00    -0.329 OA
ENDBRANCH  14  15
ENDBRANCH   2  13
TORSDOF 4
ENDMDL
