MODEL 1
REMARK VINA RESULT:      -8.5      0.000      0.000
REMARK  7 active torsions:
REMARK  status: ('A' for Active; 'I' for Inactive)
REMARK    1  A    between atoms: O1_2  and  C2_3 
REMARK    2  A    between atoms: C7_9  and  N1_10 
REMARK    3  A    between atoms: N1_10  and  C9_12 
REMARK    4  A    between atoms: C12_15  and  N2_16 
REMARK    5  A    between atoms: N2_16  and  C13_17 
REMARK    6  A    between atoms: C13_17  and  C15_19 
REMARK    7  A    between atoms: C16_20  and  O3_21 
ROOT
HETATM    1  C9  UNL     1      23.854   3.893  50.953  1.00  0.00     0.035 A 
HETATM    2  C10 UNL     1      23.367   2.723  50.396  1.00  0.00     0.032 A 
HETATM    3  C11 UNL     1      23.246   1.525  51.063  1.00  0.00     0.031 A 
HETATM    4  C12 UNL     1      23.631   1.458  52.398  1.00  0.00     0.028 A 
HETATM    5  C20 UNL     1      24.122   2.605  52.989  1.00  0.00     0.031 A 
HETATM    6  C21 UNL     1      24.228   3.784  52.284  1.00  0.00     0.032 A 
ENDROOT
BRANCH   1   7
HETATM    7  N1  UNL     1      23.969   5.114  50.190  1.00  0.00    -0.336 N 
HETATM    8  C8  UNL     1      22.711   5.752  49.848  1.00  0.00     0.158 C 
BRANCH   7   9
HETATM    9  C7  UNL     1      25.262   5.527  49.880  1.00  0.00     0.131 C 
HETATM   10  C6  UNL     1      25.361   6.946  50.203  1.00  0.00     0.049 C 
HETATM   11  C5  UNL     1      26.111   8.030  50.209  1.00  0.00     0.003 C 
HETATM   12  C4  UNL     1      26.870   9.347  50.273  1.00  0.00     0.196 C 
HETATM   13  O2  UNL     1      27.238   9.714  48.973  1.00  0.00    -0.376 OA
HETATM   14  C3  UNL     1      28.382   9.503  48.296  1.00  0.00     0.259 C 
HETATM   15  C2  UNL     1      29.160   8.474  47.888  1.00  0.00     0.080 C 
HETATM   16  C24 UNL     1      29.496   7.005  47.768  1.00  0.00     0.053 C 
HETATM   17  C23 UNL     1      29.144   5.723  48.046  1.00  0.00     0.142 C 
HETATM   18  N5  UNL     1      28.417   4.661  48.537  1.00  0.00    -0.275 NA
HETATM   19  C22 UNL     1      27.260   4.476  48.987  1.00  0.00     0.229 C 
HETATM   20  N4  UNL     1      25.940   4.583  49.431  1.00  0.00    -0.225 NA
BRANCH  15  21
HETATM   21  O1  UNL     1      30.124   9.245  47.264  1.00  0.00    -0.387 OA
HETATM   22  C1  UNL     1      31.303   9.680  47.942  1.00  0.00     0.202 C 
ENDBRANCH  15  21
ENDBRANCH   7   9
ENDBRANCH   1   7
BRANCH   4  23
HETATM   23  N2  UNL     1      23.539   0.221  53.073  1.00  0.00    -0.382 N 
HETATM   24  H14 UNL     1      22.866  -0.520  52.718  1.00  0.00     0.160 HD
BRANCH  23  25
HETATM   25  C13 UNL     1      24.302  -0.158  54.259  1.00  0.00     0.113 C 
HETATM   26  C14 UNL     1      23.655  -1.255  55.042  1.00  0.00     0.037 C 
BRANCH  25  27
HETATM   27  C15 UNL     1      25.674  -0.564  53.889  1.00  0.00    -0.004 A 
HETATM   28  C16 UNL     1      26.730   0.061  54.399  1.00  0.00     0.069 A 
HETATM   29  C17 UNL     1      28.174  -0.221  54.133  1.00  0.00     0.183 A 
HETATM   30  N3  UNL     1      28.272  -1.308  53.199  1.00  0.00    -0.393 N 
HETATM   31  C18 UNL     1      27.181  -2.007  52.628  1.00  0.00     0.084 A 
HETATM   32  H22 UNL     1      29.291  -1.481  53.029  1.00  0.00     0.159 HD
HETATM   33  C19 UNL     1      25.965  -1.639  52.968  1.00  0.00     0.028 A 
BRANCH  28  34
HETATM   34  O3  UNL     1      26.575   1.117  55.299  1.00  0.00    -0.363 OA
HETATM   35  H19 UNL     1      26.096   1.976  55.037  1.00  0.00     0.217 HD
ENDBRANCH  28  34
ENDBRANCH  25  27
ENDBRANCH  23  25
ENDBRANCH   4  23
TORSDOF 7
ENDMDL
MODEL 2
REMARK VINA RESULT:      -8.5      2.318      3.351
REMARK  7 active torsions:
REMARK  status: ('A' for Active; 'I' for Inactive)
REMARK    1  A    between atoms: O1_2  and  C2_3 
REMARK    2  A    between atoms: C7_9  and  N1_10 
REMARK    3  A    between atoms: N1_10  and  C9_12 
REMARK    4  A    between atoms: C12_15  and  N2_16 
REMARK    5  A    between atoms: N2_16  and  C13_17 
REMARK    6  A    between atoms: C13_17  and  C15_19 
REMARK    7  A    between atoms: C16_20  and  O3_21 
ROOT
HETATM    1  C9  UNL     1      25.524   4.910  49.798  1.00  0.00     0.035 A 
HETATM    2  C10 UNL     1      24.660   4.638  50.846  1.00  0.00     0.032 A 
HETATM    3  C11 UNL     1      24.609   3.447  51.534  1.00  0.00     0.031 A 
HETATM    4  C12 UNL     1      25.481   2.424  51.173  1.00  0.00     0.028 A 
HETATM    5  C20 UNL     1      26.358   2.658  50.133  1.00  0.00     0.031 A 
HETATM    6  C21 UNL     1      26.375   3.866  49.469  1.00  0.00     0.032 A 
ENDROOT
BRANCH   1   7
HETATM    7  N1  UNL     1      25.514   6.178  49.109  1.00  0.00    -0.336 N 
HETATM    8  C8  UNL     1      24.208   6.636  48.671  1.00  0.00     0.158 C 
BRANCH   7   9
HETATM    9  C7  UNL     1      26.748   6.803  48.951  1.00  0.00     0.131 C 
HETATM   10  C6  UNL     1      27.684   5.810  48.436  1.00  0.00     0.049 C 
HETATM   11  C5  UNL     1      28.918   5.541  48.062  1.00  0.00     0.003 C 
HETATM   12  C4  UNL     1      30.301   5.105  47.601  1.00  0.00     0.196 C 
HETATM   13  O2  UNL     1      31.196   5.254  48.667  1.00  0.00    -0.376 OA
HETATM   14  C3  UNL     1      32.018   6.273  48.981  1.00  0.00     0.259 C 
HETATM   15  C2  UNL     1      31.957   7.596  49.258  1.00  0.00     0.080 C 
HETATM   16  C24 UNL     1      31.214   8.897  49.455  1.00  0.00     0.053 C 
HETATM   17  C23 UNL     1      30.019   9.544  49.464  1.00  0.00     0.142 C 
HETATM   18  N5  UNL     1      28.661   9.750  49.360  1.00  0.00    -0.275 NA
HETATM   19  C22 UNL     1      27.630   9.036  49.314  1.00  0.00     0.229 C 
HETATM   20  N4  UNL     1      26.691   8.002  49.287  1.00  0.00    -0.225 NA
BRANCH  15  21
HETATM   21  O1  UNL     1      33.314   7.778  49.452  1.00  0.00    -0.387 OA
HETATM   22  C1  UNL     1      34.285   7.284  48.530  1.00  0.00     0.202 C 
ENDBRANCH  15  21
ENDBRANCH   7   9
ENDBRANCH   1   7
BRANCH   4  23
HETATM   23  N2  UNL     1      25.404   1.191  51.856  1.00  0.00    -0.382 N 
HETATM   24  H14 UNL     1      25.097   0.320  51.332  1.00  0.00     0.160 HD
BRANCH  23  25
HETATM   25  C13 UNL     1      25.713   0.983  53.268  1.00  0.00     0.113 C 
HETATM   26  C14 UNL     1      24.834  -0.040  53.913  1.00  0.00     0.037 C 
BRANCH  25  27
HETATM   27  C15 UNL     1      27.128   0.591  53.441  1.00  0.00    -0.004 A 
HETATM   28  C16 UNL     1      28.035   1.474  53.847  1.00  0.00     0.069 A 
HETATM   29  C17 UNL     1      29.494   1.245  54.071  1.00  0.00     0.183 A 
HETATM   30  N3  UNL     1      29.803  -0.124  53.765  1.00  0.00    -0.393 N 
HETATM   31  C18 UNL     1      28.877  -1.104  53.331  1.00  0.00     0.084 A 
HETATM   32  H22 UNL     1      30.830  -0.255  53.927  1.00  0.00     0.159 HD
HETATM   33  C19 UNL     1      27.621  -0.743  53.185  1.00  0.00     0.028 A 
BRANCH  28  34
HETATM   34  O3  UNL     1      27.677   2.795  54.124  1.00  0.00    -0.363 OA
HETATM   35  H19 UNL     1      28.062   3.296  54.920  1.00  0.00     0.217 HD
ENDBRANCH  28  34
ENDBRANCH  25  27
ENDBRANCH  23  25
ENDBRANCH   4  23
TORSDOF 7
ENDMDL
MODEL 3
REMARK VINA RESULT:      -8.3      2.610      9.861
REMARK  7 active torsions:
REMARK  status: ('A' for Active; 'I' for Inactive)
REMARK    1  A    between atoms: O1_2  and  C2_3 
REMARK    2  A    between atoms: C7_9  and  N1_10 
REMARK    3  A    between atoms: N1_10  and  C9_12 
REMARK    4  A    between atoms: C12_15  and  N2_16 
REMARK    5  A    between atoms: N2_16  and  C13_17 
REMARK    6  A    between atoms: C13_17  and  C15_19 
REMARK    7  A    between atoms: C16_20  and  O3_21 
ROOT
HETATM    1  C9  UNL     1      26.375   5.531  48.940  1.00  0.00     0.035 A 
HETATM    2  C10 UNL     1      26.626   6.892  48.890  1.00  0.00     0.032 A 
HETATM    3  C11 UNL     1      27.838   7.457  48.565  1.00  0.00     0.031 A 
HETATM    4  C12 UNL     1      28.908   6.622  48.259  1.00  0.00     0.028 A 
HETATM    5  C20 UNL     1      28.697   5.259  48.297  1.00  0.00     0.031 A 
HETATM    6  C21 UNL     1      27.466   4.734  48.629  1.00  0.00     0.032 A 
ENDROOT
BRANCH   1   7
HETATM    7  N1  UNL     1      25.081   5.004  49.303  1.00  0.00    -0.336 N 
HETATM    8  C8  UNL     1      23.945   5.810  48.889  1.00  0.00     0.158 C 
BRANCH   7   9
HETATM    9  C7  UNL     1      25.079   3.799  49.998  1.00  0.00     0.131 C 
HETATM   10  C6  UNL     1      23.769   3.185  49.815  1.00  0.00     0.049 C 
HETATM   11  C5  UNL     1      22.970   2.176  50.098  1.00  0.00     0.003 C 
HETATM   12  C4  UNL     1      21.953   1.071  50.345  1.00  0.00     0.196 C 
HETATM   13  O2  UNL     1      21.685   1.009  51.718  1.00  0.00    -0.376 OA
HETATM   14  C3  UNL     1      22.223   0.234  52.679  1.00  0.00     0.259 C 
HETATM   15  C2  UNL     1      23.431  -0.041  53.222  1.00  0.00     0.080 C 
HETATM   16  C24 UNL     1      24.928   0.133  53.333  1.00  0.00     0.053 C 
HETATM   17  C23 UNL     1      26.046   0.758  52.878  1.00  0.00     0.142 C 
HETATM   18  N5  UNL     1      26.843   1.594  52.128  1.00  0.00    -0.275 NA
HETATM   19  C22 UNL     1      26.673   2.567  51.353  1.00  0.00     0.229 C 
HETATM   20  N4  UNL     1      26.175   3.601  50.557  1.00  0.00    -0.225 NA
BRANCH  15  21
HETATM   21  O1  UNL     1      22.981  -0.965  54.147  1.00  0.00    -0.387 OA
HETATM   22  C1  UNL     1      21.687  -0.872  54.743  1.00  0.00     0.202 C 
ENDBRANCH  15  21
ENDBRANCH   7   9
ENDBRANCH   1   7
BRANCH   4  23
HETATM   23  N2  UNL     1      30.160   7.201  47.960  1.00  0.00    -0.382 N 
HETATM   24  H14 UNL     1      30.515   7.194  46.960  1.00  0.00     0.160 HD
BRANCH  23  25
HETATM   25  C13 UNL     1      31.057   7.830  48.927  1.00  0.00     0.113 C 
HETATM   26  C14 UNL     1      32.384   7.148  49.021  1.00  0.00     0.037 C 
BRANCH  25  27
HETATM   27  C15 UNL     1      31.263   9.256  48.596  1.00  0.00    -0.004 A 
HETATM   28  C16 UNL     1      30.595  10.208  49.240  1.00  0.00     0.069 A 
HETATM   29  C17 UNL     1      30.684  11.685  49.032  1.00  0.00     0.183 A 
HETATM   30  N3  UNL     1      31.629  11.952  47.984  1.00  0.00    -0.393 N 
HETATM   31  C18 UNL     1      32.366  10.977  47.268  1.00  0.00     0.084 A 
HETATM   32  H22 UNL     1      31.668  12.991  47.857  1.00  0.00     0.159 HD
HETATM   33  C19 UNL     1      32.177   9.712  47.574  1.00  0.00     0.028 A 
BRANCH  28  34
HETATM   34  O3  UNL     1      29.682   9.889  50.247  1.00  0.00    -0.363 OA
HETATM   35  H19 UNL     1      29.157  10.608  50.739  1.00  0.00     0.217 HD
ENDBRANCH  28  34
ENDBRANCH  25  27
ENDBRANCH  23  25
ENDBRANCH   4  23
TORSDOF 7
ENDMDL
MODEL 4
REMARK VINA RESULT:      -8.3      2.398      3.814
REMARK  7 active torsions:
REMARK  status: ('A' for Active; 'I' for Inactive)
REMARK    1  A    between atoms: O1_2  and  C2_3 
REMARK    2  A    between atoms: C7_9  and  N1_10 
REMARK    3  A    between atoms: N1_10  and  C9_12 
REMARK    4  A    between atoms: C12_15  and  N2_16 
REMARK    5  A    between atoms: N2_16  and  C13_17 
REMARK    6  A    between atoms: C13_17  and  C15_19 
REMARK    7  A    between atoms: C16_20  and  O3_21 
ROOT
HETATM    1  C9  UNL     1      25.953   6.107  48.917  1.00  0.00     0.035 A 
HETATM    2  C10 UNL     1      27.011   5.250  48.662  1.00  0.00     0.032 A 
HETATM    3  C11 UNL     1      27.184   4.019  49.252  1.00  0.00     0.031 A 
HETATM    4  C12 UNL     1      26.241   3.577  50.175  1.00  0.00     0.028 A 
HETATM    5  C20 UNL     1      25.172   4.404  50.455  1.00  0.00     0.031 A 
HETATM    6  C21 UNL     1      25.037   5.631  49.842  1.00  0.00     0.032 A 
ENDROOT
BRANCH   1   7
HETATM    7  N1  UNL     1      25.840   7.394  48.273  1.00  0.00    -0.336 N 
HETATM    8  C8  UNL     1      24.496   7.769  47.869  1.00  0.00     0.158 C 
BRANCH   7   9
HETATM    9  C7  UNL     1      27.022   8.113  48.120  1.00  0.00     0.131 C 
HETATM   10  C6  UNL     1      27.348   8.131  46.698  1.00  0.00     0.049 C 
HETATM   11  C5  UNL     1      28.193   8.510  45.761  1.00  0.00     0.003 C 
HETATM   12  C4  UNL     1      29.085   8.889  44.588  1.00  0.00     0.196 C 
HETATM   13  O2  UNL     1      30.340   8.296  44.771  1.00  0.00    -0.376 OA
HETATM   14  C3  UNL     1      31.467   8.787  45.320  1.00  0.00     0.259 C 
HETATM   15  C2  UNL     1      31.895   9.314  46.489  1.00  0.00     0.080 C 
HETATM   16  C24 UNL     1      31.692   9.763  47.919  1.00  0.00     0.053 C 
HETATM   17  C23 UNL     1      30.838   9.901  48.966  1.00  0.00     0.142 C 
HETATM   18  N5  UNL     1      29.672   9.843  49.697  1.00  0.00    -0.275 NA
HETATM   19  C22 UNL     1      28.558   9.274  49.598  1.00  0.00     0.229 C 
HETATM   20  N4  UNL     1      27.444   8.523  49.218  1.00  0.00    -0.225 NA
BRANCH  15  21
HETATM   21  O1  UNL     1      33.205   9.523  46.097  1.00  0.00    -0.387 OA
HETATM   22  C1  UNL     1      34.262   9.686  47.042  1.00  0.00     0.202 C 
ENDBRANCH  15  21
ENDBRANCH   7   9
ENDBRANCH   1   7
BRANCH   4  23
HETATM   23  N2  UNL     1      26.438   2.329  50.806  1.00  0.00    -0.382 N 
HETATM   24  H14 UNL     1      26.987   1.570  50.306  1.00  0.00     0.160 HD
BRANCH  23  25
HETATM   25  C13 UNL     1      25.939   1.958  52.128  1.00  0.00     0.113 C 
HETATM   26  C14 UNL     1      24.572   1.354  52.086  1.00  0.00     0.037 C 
BRANCH  25  27
HETATM   27  C15 UNL     1      26.869   1.020  52.792  1.00  0.00    -0.004 A 
HETATM   28  C16 UNL     1      27.719   1.447  53.720  1.00  0.00     0.069 A 
HETATM   29  C17 UNL     1      28.717   0.638  54.484  1.00  0.00     0.183 A 
HETATM   30  N3  UNL     1      28.637  -0.729  54.052  1.00  0.00    -0.393 N 
HETATM   31  C18 UNL     1      27.751  -1.235  53.069  1.00  0.00     0.084 A 
HETATM   32  H22 UNL     1      29.348  -1.271  54.599  1.00  0.00     0.159 HD
HETATM   33  C19 UNL     1      26.927  -0.391  52.489  1.00  0.00     0.028 A 
BRANCH  28  34
HETATM   34  O3  UNL     1      27.757   2.791  54.096  1.00  0.00    -0.363 OA
HETATM   35  H19 UNL     1      27.250   3.133  54.908  1.00  0.00     0.217 HD
ENDBRANCH  28  34
ENDBRANCH  25  27
ENDBRANCH  23  25
ENDBRANCH   4  23
TORSDOF 7
ENDMDL
MODEL 5
REMARK VINA RESULT:      -8.3      2.891      9.557
REMARK  7 active torsions:
REMARK  status: ('A' for Active; 'I' for Inactive)
REMARK    1  A    between atoms: O1_2  and  C2_3 
REMARK    2  A    between atoms: C7_9  and  N1_10 
REMARK    3  A    between atoms: N1_10  and  C9_12 
REMARK    4  A    between atoms: C12_15  and  N2_16 
REMARK    5  A    between atoms: N2_16  and  C13_17 
REMARK    6  A    between atoms: C13_17  and  C15_19 
REMARK    7  A    between atoms: C16_20  and  O3_21 
ROOT
HETATM    1  C9  UNL     1      23.759   6.425  50.227  1.00  0.00     0.035 A 
HETATM    2  C10 UNL     1      24.627   7.423  50.638  1.00  0.00     0.032 A 
HETATM    3  C11 UNL     1      25.924   7.568  50.200  1.00  0.00     0.031 A 
HETATM    4  C12 UNL     1      26.425   6.658  49.275  1.00  0.00     0.028 A 
HETATM    5  C20 UNL     1      25.590   5.648  48.841  1.00  0.00     0.031 A 
HETATM    6  C21 UNL     1      24.298   5.539  49.306  1.00  0.00     0.032 A 
ENDROOT
BRANCH   1   7
HETATM    7  N1  UNL     1      22.413   6.323  50.739  1.00  0.00    -0.336 N 
HETATM    8  C8  UNL     1      21.555   7.461  50.459  1.00  0.00     0.158 C 
BRANCH   7   9
HETATM    9  C7  UNL     1      22.104   5.155  51.431  1.00  0.00     0.131 C 
HETATM   10  C6  UNL     1      23.337   4.658  52.031  1.00  0.00     0.049 C 
HETATM   11  C5  UNL     1      23.918   3.717  52.747  1.00  0.00     0.003 C 
HETATM   12  C4  UNL     1      24.706   2.700  53.560  1.00  0.00     0.196 C 
HETATM   13  O2  UNL     1      24.630   1.458  52.918  1.00  0.00    -0.376 OA
HETATM   14  C3  UNL     1      23.790   0.424  53.113  1.00  0.00     0.259 C 
HETATM   15  C2  UNL     1      22.464   0.160  53.097  1.00  0.00     0.080 C 
HETATM   16  C24 UNL     1      21.015   0.552  52.916  1.00  0.00     0.053 C 
HETATM   17  C23 UNL     1      20.121   1.533  52.624  1.00  0.00     0.142 C 
HETATM   18  N5  UNL     1      19.632   2.777  52.292  1.00  0.00    -0.275 NA
HETATM   19  C22 UNL     1      20.097   3.851  51.839  1.00  0.00     0.229 C 
HETATM   20  N4  UNL     1      20.891   4.885  51.338  1.00  0.00    -0.225 NA
BRANCH  15  21
HETATM   21  O1  UNL     1      22.566  -1.180  53.422  1.00  0.00    -0.387 OA
HETATM   22  C1  UNL     1      21.659  -1.813  54.324  1.00  0.00     0.202 C 
ENDBRANCH  15  21
ENDBRANCH   7   9
ENDBRANCH   1   7
BRANCH   4  23
HETATM   23  N2  UNL     1      27.766   6.786  48.852  1.00  0.00    -0.382 N 
HETATM   24  H14 UNL     1      28.522   6.208  49.324  1.00  0.00     0.160 HD
BRANCH  23  25
HETATM   25  C13 UNL     1      28.242   7.671  47.792  1.00  0.00     0.113 C 
HETATM   26  C14 UNL     1      27.157   8.088  46.851  1.00  0.00     0.037 C 
BRANCH  25  27
HETATM   27  C15 UNL     1      28.881   8.874  48.365  1.00  0.00    -0.004 A 
HETATM   28  C16 UNL     1      30.005   8.779  49.067  1.00  0.00     0.069 A 
HETATM   29  C17 UNL     1      30.776   9.887  49.710  1.00  0.00     0.183 A 
HETATM   30  N3  UNL     1      30.100  11.130  49.462  1.00  0.00    -0.393 N 
HETATM   31  C18 UNL     1      28.903  11.286  48.722  1.00  0.00     0.084 A 
HETATM   32  H22 UNL     1      30.659  11.885  49.926  1.00  0.00     0.159 HD
HETATM   33  C19 UNL     1      28.346  10.208  48.214  1.00  0.00     0.028 A 
BRANCH  28  34
HETATM   34  O3  UNL     1      30.615   7.542  49.283  1.00  0.00    -0.363 OA
HETATM   35  H19 UNL     1      30.130   6.783  49.755  1.00  0.00     0.217 HD
ENDBRANCH  28  34
ENDBRANCH  25  27
ENDBRANCH  23  25
ENDBRANCH   4  23
TORSDOF 7
ENDMDL
MODEL 6
REMARK VINA RESULT:      -8.3      5.847      9.904
REMARK  7 active torsions:
REMARK  status: ('A' for Active; 'I' for Inactive)
REMARK    1  A    between atoms: O1_2  and  C2_3 
REMARK    2  A    between atoms: C7_9  and  N1_10 
REMARK    3  A    between atoms: N1_10  and  C9_12 
REMARK    4  A    between atoms: C12_15  and  N2_16 
REMARK    5  A    between atoms: N2_16  and  C13_17 
REMARK    6  A    between atoms: C13_17  and  C15_19 
REMARK    7  A    between atoms: C16_20  and  O3_21 
ROOT
HETATM    1  C9  UNL     1      21.826   0.795  51.382  1.00  0.00     0.035 A 
HETATM    2  C10 UNL     1      22.993   1.540  51.427  1.00  0.00     0.032 A 
HETATM    3  C11 UNL     1      24.077   1.256  52.226  1.00  0.00     0.031 A 
HETATM    4  C12 UNL     1      24.024   0.143  53.059  1.00  0.00     0.028 A 
HETATM    5  C20 UNL     1      22.877  -0.625  53.042  1.00  0.00     0.031 A 
HETATM    6  C21 UNL     1      21.813  -0.304  52.226  1.00  0.00     0.032 A 
ENDROOT
BRANCH   1   7
HETATM    7  N1  UNL     1      20.719   1.159  50.529  1.00  0.00    -0.336 N 
HETATM    8  C8  UNL     1      21.005   1.153  49.105  1.00  0.00     0.158 C 
BRANCH   7   9
HETATM    9  C7  UNL     1      19.523   1.466  51.170  1.00  0.00     0.131 C 
HETATM   10  C6  UNL     1      18.954   0.218  51.666  1.00  0.00     0.049 C 
HETATM   11  C5  UNL     1      17.955  -0.373  52.292  1.00  0.00     0.003 C 
HETATM   12  C4  UNL     1      16.870  -1.172  52.997  1.00  0.00     0.196 C 
HETATM   13  O2  UNL     1      15.671  -1.018  52.291  1.00  0.00    -0.376 OA
HETATM   14  C3  UNL     1      14.652  -0.156  52.477  1.00  0.00     0.259 C 
HETATM   15  C2  UNL     1      14.430   1.177  52.525  1.00  0.00     0.080 C 
HETATM   16  C24 UNL     1      14.875   2.620  52.454  1.00  0.00     0.053 C 
HETATM   17  C23 UNL     1      15.898   3.496  52.272  1.00  0.00     0.142 C 
HETATM   18  N5  UNL     1      17.173   3.962  52.041  1.00  0.00    -0.275 NA
HETATM   19  C22 UNL     1      18.258   3.488  51.623  1.00  0.00     0.229 C 
HETATM   20  N4  UNL     1      19.295   2.691  51.135  1.00  0.00    -0.225 NA
BRANCH  15  21
HETATM   21  O1  UNL     1      13.070   1.101  52.767  1.00  0.00    -0.387 OA
HETATM   22  C1  UNL     1      12.545   0.836  54.067  1.00  0.00     0.202 C 
ENDBRANCH  15  21
ENDBRANCH   7   9
ENDBRANCH   1   7
BRANCH   4  23
HETATM   23  N2  UNL     1      25.122  -0.128  53.904  1.00  0.00    -0.382 N 
HETATM   24  H14 UNL     1      25.134   0.266  54.889  1.00  0.00     0.160 HD
BRANCH  23  25
HETATM   25  C13 UNL     1      26.293  -0.924  53.545  1.00  0.00     0.113 C 
HETATM   26  C14 UNL     1      26.182  -1.545  52.190  1.00  0.00     0.037 C 
BRANCH  25  27
HETATM   27  C15 UNL     1      27.521  -0.103  53.608  1.00  0.00    -0.004 A 
HETATM   28  C16 UNL     1      28.721  -0.674  53.639  1.00  0.00     0.069 A 
HETATM   29  C17 UNL     1      30.052   0.003  53.701  1.00  0.00     0.183 A 
HETATM   30  N3  UNL     1      29.850   1.424  53.735  1.00  0.00    -0.393 N 
HETATM   31  C18 UNL     1      28.596   2.083  53.704  1.00  0.00     0.084 A 
HETATM   32  H22 UNL     1      30.796   1.872  53.782  1.00  0.00     0.159 HD
HETATM   33  C19 UNL     1      27.512   1.341  53.644  1.00  0.00     0.028 A 
BRANCH  28  34
HETATM   34  O3  UNL     1      28.856  -2.063  53.611  1.00  0.00    -0.363 OA
HETATM   35  H19 UNL     1      29.739  -2.509  53.374  1.00  0.00     0.217 HD
ENDBRANCH  28  34
ENDBRANCH  25  27
ENDBRANCH  23  25
ENDBRANCH   4  23
TORSDOF 7
ENDMDL
MODEL 7
REMARK VINA RESULT:      -8.2      6.447     10.193
REMARK  7 active torsions:
REMARK  status: ('A' for Active; 'I' for Inactive)
REMARK    1  A    between atoms: O1_2  and  C2_3 
REMARK    2  A    between atoms: C7_9  and  N1_10 
REMARK    3  A    between atoms: N1_10  and  C9_12 
REMARK    4  A    between atoms: C12_15  and  N2_16 
REMARK    5  A    between atoms: N2_16  and  C13_17 
REMARK    6  A    between atoms: C13_17  and  C15_19 
REMARK    7  A    between atoms: C16_20  and  O3_21 
ROOT
HETATM    1  C9  UNL     1      19.676   1.233  50.727  1.00  0.00     0.035 A 
HETATM    2  C10 UNL     1      19.233   2.439  51.243  1.00  0.00     0.032 A 
HETATM    3  C11 UNL     1      17.931   2.714  51.596  1.00  0.00     0.031 A 
HETATM    4  C12 UNL     1      16.968   1.724  51.433  1.00  0.00     0.028 A 
HETATM    5  C20 UNL     1      17.371   0.507  50.921  1.00  0.00     0.031 A 
HETATM    6  C21 UNL     1      18.685   0.273  50.580  1.00  0.00     0.032 A 
ENDROOT
BRANCH   1   7
HETATM    7  N1  UNL     1      21.056   1.016  50.364  1.00  0.00    -0.336 N 
HETATM    8  C8  UNL     1      21.332   1.031  48.938  1.00  0.00     0.158 C 
BRANCH   7   9
HETATM    9  C7  UNL     1      21.946   0.823  51.416  1.00  0.00     0.131 C 
HETATM   10  C6  UNL     1      23.144   1.605  51.130  1.00  0.00     0.049 C 
HETATM   11  C5  UNL     1      24.355   1.956  51.513  1.00  0.00     0.003 C 
HETATM   12  C4  UNL     1      25.760   2.438  51.845  1.00  0.00     0.196 C 
HETATM   13  O2  UNL     1      26.613   1.329  51.898  1.00  0.00    -0.376 OA
HETATM   14  C3  UNL     1      27.012   0.584  52.946  1.00  0.00     0.259 C 
HETATM   15  C2  UNL     1      26.478  -0.175  53.930  1.00  0.00     0.080 C 
HETATM   16  C24 UNL     1      25.317  -0.798  54.671  1.00  0.00     0.053 C 
HETATM   17  C23 UNL     1      23.971  -0.961  54.762  1.00  0.00     0.142 C 
HETATM   18  N5  UNL     1      22.632  -0.837  54.462  1.00  0.00    -0.275 NA
HETATM   19  C22 UNL     1      21.946  -0.439  53.490  1.00  0.00     0.229 C 
HETATM   20  N4  UNL     1      21.468   0.058  52.275  1.00  0.00    -0.225 NA
BRANCH  15  21
HETATM   21  O1  UNL     1      27.677  -0.531  54.521  1.00  0.00    -0.387 OA
HETATM   22  C1  UNL     1      28.835   0.300  54.446  1.00  0.00     0.202 C 
ENDBRANCH  15  21
ENDBRANCH   7   9
ENDBRANCH   1   7
BRANCH   4  23
HETATM   23  N2  UNL     1      15.627   2.017  51.762  1.00  0.00    -0.382 N 
HETATM   24  H14 UNL     1      14.919   1.229  51.829  1.00  0.00     0.160 HD
BRANCH  23  25
HETATM   25  C13 UNL     1      15.090   3.350  52.026  1.00  0.00     0.113 C 
HETATM   26  C14 UNL     1      14.967   4.184  50.791  1.00  0.00     0.037 C 
BRANCH  25  27
HETATM   27  C15 UNL     1      13.772   3.260  52.689  1.00  0.00    -0.004 A 
HETATM   28  C16 UNL     1      13.509   3.970  53.780  1.00  0.00     0.069 A 
HETATM   29  C17 UNL     1      12.239   3.997  54.567  1.00  0.00     0.183 A 
HETATM   30  N3  UNL     1      11.296   3.099  53.960  1.00  0.00    -0.393 N 
HETATM   31  C18 UNL     1      11.525   2.321  52.799  1.00  0.00     0.084 A 
HETATM   32  H22 UNL     1      10.419   3.135  54.533  1.00  0.00     0.159 HD
HETATM   33  C19 UNL     1      12.700   2.413  52.217  1.00  0.00     0.028 A 
BRANCH  28  34
HETATM   34  O3  UNL     1      14.468   4.823  54.331  1.00  0.00    -0.363 OA
HETATM   35  H19 UNL     1      14.227   5.753  54.664  1.00  0.00     0.217 HD
ENDBRANCH  28  34
ENDBRANCH  25  27
ENDBRANCH  23  25
ENDBRANCH   4  23
TORSDOF 7
ENDMDL
MODEL 8
REMARK VINA RESULT:      -8.1      2.421      3.926
REMARK  7 active torsions:
REMARK  status: ('A' for Active; 'I' for Inactive)
REMARK    1  A    between atoms: O1_2  and  C2_3 
REMARK    2  A    between atoms: C7_9  and  N1_10 
REMARK    3  A    between atoms: N1_10  and  C9_12 
REMARK    4  A    between atoms: C12_15  and  N2_16 
REMARK    5  A    between atoms: N2_16  and  C13_17 
REMARK    6  A    between atoms: C13_17  and  C15_19 
REMARK    7  A    between atoms: C16_20  and  O3_21 
ROOT
HETATM    1  C9  UNL     1      24.838   4.911  50.077  1.00  0.00     0.035 A 
HETATM    2  C10 UNL     1      24.214   5.058  51.305  1.00  0.00     0.032 A 
HETATM    3  C11 UNL     1      24.169   4.092  52.284  1.00  0.00     0.031 A 
HETATM    4  C12 UNL     1      24.789   2.869  52.050  1.00  0.00     0.028 A 
HETATM    5  C20 UNL     1      25.422   2.685  50.838  1.00  0.00     0.031 A 
HETATM    6  C21 UNL     1      25.443   3.679  49.883  1.00  0.00     0.032 A 
ENDROOT
BRANCH   1   7
HETATM    7  N1  UNL     1      24.834   5.962  49.087  1.00  0.00    -0.336 N 
HETATM    8  C8  UNL     1      23.576   6.151  48.387  1.00  0.00     0.158 C 
BRANCH   7   9
HETATM    9  C7  UNL     1      26.027   6.662  48.928  1.00  0.00     0.131 C 
HETATM   10  C6  UNL     1      27.054   5.701  48.541  1.00  0.00     0.049 C 
HETATM   11  C5  UNL     1      28.321   5.495  48.243  1.00  0.00     0.003 C 
HETATM   12  C4  UNL     1      29.752   5.125  47.880  1.00  0.00     0.196 C 
HETATM   13  O2  UNL     1      30.581   5.430  48.966  1.00  0.00    -0.376 OA
HETATM   14  C3  UNL     1      31.314   6.530  49.225  1.00  0.00     0.259 C 
HETATM   15  C2  UNL     1      31.146   7.863  49.383  1.00  0.00     0.080 C 
HETATM   16  C24 UNL     1      30.304   9.118  49.434  1.00  0.00     0.053 C 
HETATM   17  C23 UNL     1      29.067   9.672  49.337  1.00  0.00     0.142 C 
HETATM   18  N5  UNL     1      27.705   9.766  49.158  1.00  0.00    -0.275 NA
HETATM   19  C22 UNL     1      26.730   8.976  49.131  1.00  0.00     0.229 C 
HETATM   20  N4  UNL     1      25.870   7.877  49.155  1.00  0.00    -0.225 NA
BRANCH  15  21
HETATM   21  O1  UNL     1      32.476   8.162  49.617  1.00  0.00    -0.387 OA
HETATM   22  C1  UNL     1      33.501   7.844  48.676  1.00  0.00     0.202 C 
ENDBRANCH  15  21
ENDBRANCH   7   9
ENDBRANCH   1   7
BRANCH   4  23
HETATM   23  N2  UNL     1      24.713   1.866  53.041  1.00  0.00    -0.382 N 
HETATM   24  H14 UNL     1      24.773   2.136  54.066  1.00  0.00     0.160 HD
BRANCH  23  25
HETATM   25  C13 UNL     1      24.559   0.435  52.791  1.00  0.00     0.113 C 
HETATM   26  C14 UNL     1      25.669  -0.382  53.371  1.00  0.00     0.037 C 
BRANCH  25  27
HETATM   27  C15 UNL     1      23.266  -0.051  53.319  1.00  0.00    -0.004 A 
HETATM   28  C16 UNL     1      22.125   0.250  52.708  1.00  0.00     0.069 A 
HETATM   29  C17 UNL     1      20.743  -0.156  53.105  1.00  0.00     0.183 A 
HETATM   30  N3  UNL     1      20.816  -0.949  54.301  1.00  0.00    -0.393 N 
HETATM   31  C18 UNL     1      22.004  -1.299  54.989  1.00  0.00     0.084 A 
HETATM   32  H22 UNL     1      19.836  -1.216  54.558  1.00  0.00     0.159 HD
HETATM   33  C19 UNL     1      23.147  -0.863  54.507  1.00  0.00     0.028 A 
BRANCH  28  34
HETATM   34  O3  UNL     1      22.114   1.032  51.551  1.00  0.00    -0.363 OA
HETATM   35  H19 UNL     1      22.807   0.909  50.817  1.00  0.00     0.217 HD
ENDBRANCH  28  34
ENDBRANCH  25  27
ENDBRANCH  23  25
ENDBRANCH   4  23
TORSDOF 7
ENDMDL
MODEL 9
REMARK VINA RESULT:      -8.0      2.315      2.687
REMARK  7 active torsions:
REMARK  status: ('A' for Active; 'I' for Inactive)
REMARK    1  A    between atoms: O1_2  and  C2_3 
REMARK    2  A    between atoms: C7_9  and  N1_10 
REMARK    3  A    between atoms: N1_10  and  C9_12 
REMARK    4  A    between atoms: C12_15  and  N2_16 
REMARK    5  A    between atoms: N2_16  and  C13_17 
REMARK    6  A    between atoms: C13_17  and  C15_19 
REMARK    7  A    between atoms: C16_20  and  O3_21 
ROOT
HETATM    1  C9  UNL     1      23.622   4.976  50.791  1.00  0.00     0.035 A 
HETATM    2  C10 UNL     1      24.203   4.091  49.898  1.00  0.00     0.032 A 
HETATM    3  C11 UNL     1      24.691   2.847  50.229  1.00  0.00     0.031 A 
HETATM    4  C12 UNL     1      24.605   2.422  51.551  1.00  0.00     0.028 A 
HETATM    5  C20 UNL     1      24.032   3.276  52.470  1.00  0.00     0.031 A 
HETATM    6  C21 UNL     1      23.556   4.515  52.097  1.00  0.00     0.032 A 
ENDROOT
BRANCH   1   7
HETATM    7  N1  UNL     1      23.143   6.274  50.379  1.00  0.00    -0.336 N 
HETATM    8  C8  UNL     1      21.901   6.703  50.998  1.00  0.00     0.158 C 
BRANCH   7   9
HETATM    9  C7  UNL     1      23.924   6.952  49.447  1.00  0.00     0.131 C 
HETATM   10  C6  UNL     1      25.046   7.549  50.163  1.00  0.00     0.049 C 
HETATM   11  C5  UNL     1      26.131   8.294  50.097  1.00  0.00     0.003 C 
HETATM   12  C4  UNL     1      27.400   9.132  50.154  1.00  0.00     0.196 C 
HETATM   13  O2  UNL     1      27.094  10.434  49.739  1.00  0.00    -0.376 OA
HETATM   14  C3  UNL     1      27.199  11.012  48.528  1.00  0.00     0.259 C 
HETATM   15  C2  UNL     1      26.747  10.841  47.265  1.00  0.00     0.080 C 
HETATM   16  C24 UNL     1      25.943  10.116  46.208  1.00  0.00     0.053 C 
HETATM   17  C23 UNL     1      25.109   9.086  45.910  1.00  0.00     0.142 C 
HETATM   18  N5  UNL     1      24.330   7.964  46.083  1.00  0.00    -0.275 NA
HETATM   19  C22 UNL     1      23.844   7.329  47.051  1.00  0.00     0.229 C 
HETATM   20  N4  UNL     1      23.448   6.849  48.300  1.00  0.00    -0.225 NA
BRANCH  15  21
HETATM   21  O1  UNL     1      27.397  11.931  46.716  1.00  0.00    -0.387 OA
HETATM   22  C1  UNL     1      28.788  12.170  46.929  1.00  0.00     0.202 C 
ENDBRANCH  15  21
ENDBRANCH   7   9
ENDBRANCH   1   7
BRANCH   4  23
HETATM   23  N2  UNL     1      25.138   1.161  51.896  1.00  0.00    -0.382 N 
HETATM   24  H14 UNL     1      25.353   0.456  51.132  1.00  0.00     0.160 HD
BRANCH  23  25
HETATM   25  C13 UNL     1      25.430   0.705  53.253  1.00  0.00     0.113 C 
HETATM   26  C14 UNL     1      24.671  -0.527  53.631  1.00  0.00     0.037 C 
BRANCH  25  27
HETATM   27  C15 UNL     1      26.877   0.459  53.421  1.00  0.00    -0.004 A 
HETATM   28  C16 UNL     1      27.697   1.440  53.786  1.00  0.00     0.069 A 
HETATM   29  C17 UNL     1      29.174   1.362  54.000  1.00  0.00     0.183 A 
HETATM   30  N3  UNL     1      29.613   0.020  53.735  1.00  0.00    -0.393 N 
HETATM   31  C18 UNL     1      28.783  -1.059  53.344  1.00  0.00     0.084 A 
HETATM   32  H22 UNL     1      30.649  -0.004  53.888  1.00  0.00     0.159 HD
HETATM   33  C19 UNL     1      27.497  -0.828  53.202  1.00  0.00     0.028 A 
BRANCH  28  34
HETATM   34  O3  UNL     1      27.214   2.728  54.024  1.00  0.00    -0.363 OA
HETATM   35  H19 UNL     1      26.674   3.233  53.326  1.00  0.00     0.217 HD
ENDBRANCH  28  34
ENDBRANCH  25  27
ENDBRANCH  23  25
ENDBRANCH   4  23
TORSDOF 7
ENDMDL
