MODEL 1
REMARK VINA RESULT:      -8.1      0.000      0.000
REMARK  5 active torsions:
REMARK  status: ('A' for Active; 'I' for Inactive)
REMARK    1  A    between atoms: O1_1  and  C1_2 
REMARK    2  A    between atoms: C2_3  and  N1_4 
REMARK    3  A    between atoms: N1_4  and  C3_5 
REMARK    4  A    between atoms: C6_10  and  N4_11 
REMARK    5  A    between atoms: N4_11  and  C7_12 
ROOT
HETATM    1  C3  UNL     1      24.792   2.772  51.806  1.00  0.00     0.096 A 
HETATM    2  C4  UNL     1      24.080   3.147  50.697  1.00  0.00     0.151 A 
HETATM    3  N2  UNL     1      24.769   3.447  49.573  1.00  0.00    -0.252 NA
HETATM    4  C5  UNL     1      26.134   3.373  49.561  1.00  0.00     0.235 A 
HETATM    5  N3  UNL     1      26.757   2.999  50.687  1.00  0.00    -0.222 NA
HETATM    6  C6  UNL     1      26.167   2.681  51.849  1.00  0.00     0.157 A 
ENDROOT
BRANCH   1   7
HETATM    7  N1  UNL     1      24.018   2.472  52.947  1.00  0.00    -0.353 N 
HETATM    8  H2  UNL     1      23.841   2.865  53.894  1.00  0.00     0.166 HD
BRANCH   7   9
HETATM    9  C2  UNL     1      23.168   1.335  52.996  1.00  0.00     0.048 C 
HETATM   10  C1  UNL     1      21.852   1.332  52.816  1.00  0.00     0.111 C 
HETATM   11  C16 UNL     1      21.074   0.100  52.889  1.00  0.00     0.080 C 
HETATM   12  C15 UNL     1      21.610  -0.937  53.493  1.00  0.00    -0.003 C 
HETATM   13 CL2  UNL     1      19.482  -0.033  52.209  1.00  0.00    -0.080 Cl
HETATM   14  C14 UNL     1      22.796  -0.836  54.046  1.00  0.00    -0.007 C 
HETATM   15  C13 UNL     1      23.747  -0.027  53.273  1.00  0.00     0.088 C 
BRANCH  10  16
HETATM   16  O1  UNL     1      21.123   2.487  52.549  1.00  0.00    -0.357 OA
HETATM   17  H1  UNL     1      20.313   2.758  53.121  1.00  0.00     0.217 HD
ENDBRANCH  10  16
ENDBRANCH   7   9
ENDBRANCH   1   7
BRANCH   6  18
HETATM   18  N4  UNL     1      26.823   2.285  53.043  1.00  0.00    -0.339 N 
HETATM   19  H5  UNL     1      26.621   2.867  53.894  1.00  0.00     0.167 HD
BRANCH  18  20
HETATM   20  C7  UNL     1      27.716   1.199  53.227  1.00  0.00     0.035 A 
HETATM   21  C8  UNL     1      28.998   1.283  53.715  1.00  0.00     0.029 A 
HETATM   22  C9  UNL     1      29.839   0.204  53.881  1.00  0.00     0.004 A 
HETATM   23  C10 UNL     1      29.382  -1.046  53.542  1.00  0.00     0.024 A 
HETATM   24  C11 UNL     1      28.120  -1.178  53.056  1.00  0.00     0.036 A 
HETATM   25 CL1  UNL     1      27.538  -2.766  52.626  1.00  0.00    -0.084 Cl
HETATM   26  C12 UNL     1      27.321  -0.082  52.908  1.00  0.00     0.053 A 
ENDBRANCH  18  20
ENDBRANCH   6  18
TORSDOF 5
ENDMDL
MODEL 2
REMARK VINA RESULT:      -7.9      2.189      5.833
REMARK  5 active torsions:
REMARK  status: ('A' for Active; 'I' for Inactive)
REMARK    1  A    between atoms: O1_1  and  C1_2 
REMARK    2  A    between atoms: C2_3  and  N1_4 
REMARK    3  A    between atoms: N1_4  and  C3_5 
REMARK    4  A    between atoms: C6_10  and  N4_11 
REMARK    5  A    between atoms: N4_11  and  C7_12 
ROOT
HETATM    1  C3  UNL     1      25.596   2.788  51.669  1.00  0.00     0.096 A 
HETATM    2  C4  UNL     1      26.462   3.057  50.642  1.00  0.00     0.151 A 
HETATM    3  N2  UNL     1      25.941   3.444  49.457  1.00  0.00    -0.252 NA
HETATM    4  C5  UNL     1      24.587   3.559  49.305  1.00  0.00     0.235 A 
HETATM    5  N3  UNL     1      23.806   3.277  50.356  1.00  0.00    -0.222 NA
HETATM    6  C6  UNL     1      24.224   2.886  51.569  1.00  0.00     0.157 A 
ENDROOT
BRANCH   1   7
HETATM    7  N1  UNL     1      26.199   2.388  52.880  1.00  0.00    -0.353 N 
HETATM    8  H2  UNL     1      26.379   2.778  53.827  1.00  0.00     0.166 HD
BRANCH   7   9
HETATM    9  C2  UNL     1      26.788   1.104  53.034  1.00  0.00     0.048 C 
HETATM   10  C1  UNL     1      28.087   0.842  53.123  1.00  0.00     0.111 C 
HETATM   11  C16 UNL     1      28.582  -0.522  53.280  1.00  0.00     0.080 C 
HETATM   12  C15 UNL     1      27.780  -1.513  52.962  1.00  0.00    -0.003 C 
HETATM   13 CL2  UNL     1      30.179  -0.866  53.866  1.00  0.00    -0.080 Cl
HETATM   14  C14 UNL     1      26.585  -1.264  52.479  1.00  0.00    -0.007 C 
HETATM   15  C13 UNL     1      25.913  -0.120  53.109  1.00  0.00     0.088 C 
BRANCH  10  16
HETATM   16  O1  UNL     1      29.062   1.832  53.075  1.00  0.00    -0.357 OA
HETATM   17  H1  UNL     1      28.913   2.712  52.564  1.00  0.00     0.217 HD
ENDBRANCH  10  16
ENDBRANCH   7   9
ENDBRANCH   1   7
BRANCH   6  18
HETATM   18  N4  UNL     1      23.401   2.587  52.685  1.00  0.00    -0.339 N 
HETATM   19  H5  UNL     1      23.637   3.086  53.579  1.00  0.00     0.167 HD
BRANCH  18  20
HETATM   20  C7  UNL     1      22.299   1.697  52.741  1.00  0.00     0.035 A 
HETATM   21  C8  UNL     1      21.082   1.880  52.127  1.00  0.00     0.029 A 
HETATM   22  C9  UNL     1      20.031   0.992  52.204  1.00  0.00     0.004 A 
HETATM   23  C10 UNL     1      20.193  -0.158  52.936  1.00  0.00     0.024 A 
HETATM   24  C11 UNL     1      21.378  -0.383  53.560  1.00  0.00     0.036 A 
HETATM   25 CL1  UNL     1      21.585  -1.844  54.491  1.00  0.00    -0.084 Cl
HETATM   26  C12 UNL     1      22.392   0.525  53.458  1.00  0.00     0.053 A 
ENDBRANCH  18  20
ENDBRANCH   6  18
TORSDOF 5
ENDMDL
MODEL 3
REMARK VINA RESULT:      -7.8      3.191      5.872
REMARK  5 active torsions:
REMARK  status: ('A' for Active; 'I' for Inactive)
REMARK    1  A    between atoms: O1_1  and  C1_2 
REMARK    2  A    between atoms: C2_3  and  N1_4 
REMARK    3  A    between atoms: N1_4  and  C3_5 
REMARK    4  A    between atoms: C6_10  and  N4_11 
REMARK    5  A    between atoms: N4_11  and  C7_12 
ROOT
HETATM    1  C3  UNL     1      23.944   2.906  51.584  1.00  0.00     0.096 A 
HETATM    2  C4  UNL     1      22.668   2.701  52.041  1.00  0.00     0.151 A 
HETATM    3  N2  UNL     1      21.672   2.630  51.130  1.00  0.00    -0.252 NA
HETATM    4  C5  UNL     1      21.947   2.761  49.797  1.00  0.00     0.235 A 
HETATM    5  N3  UNL     1      23.220   2.960  49.430  1.00  0.00    -0.222 NA
HETATM    6  C6  UNL     1      24.276   3.045  50.253  1.00  0.00     0.157 A 
ENDROOT
BRANCH   1   7
HETATM    7  N1  UNL     1      24.939   2.971  52.582  1.00  0.00    -0.353 N 
HETATM    8  H2  UNL     1      25.332   3.668  53.246  1.00  0.00     0.166 HD
BRANCH   7   9
HETATM    9  C2  UNL     1      25.740   1.845  52.913  1.00  0.00     0.048 C 
HETATM   10  C1  UNL     1      27.057   1.750  52.767  1.00  0.00     0.111 C 
HETATM   11  C16 UNL     1      27.781   0.540  53.141  1.00  0.00     0.080 C 
HETATM   12  C15 UNL     1      27.099  -0.575  53.272  1.00  0.00    -0.003 C 
HETATM   13 CL2  UNL     1      29.495   0.533  53.415  1.00  0.00    -0.080 Cl
HETATM   14  C14 UNL     1      25.810  -0.591  53.027  1.00  0.00    -0.007 C 
HETATM   15  C13 UNL     1      25.100   0.609  53.488  1.00  0.00     0.088 C 
BRANCH  10  16
HETATM   16  O1  UNL     1      27.837   2.781  52.251  1.00  0.00    -0.357 OA
HETATM   17  H1  UNL     1      27.862   3.710  52.691  1.00  0.00     0.217 HD
ENDBRANCH  10  16
ENDBRANCH   7   9
ENDBRANCH   1   7
BRANCH   6  18
HETATM   18  N4  UNL     1      25.625   3.256  49.869  1.00  0.00    -0.339 N 
HETATM   19  H5  UNL     1      26.278   2.445  50.016  1.00  0.00     0.167 HD
BRANCH  18  20
HETATM   20  C7  UNL     1      26.200   4.426  49.311  1.00  0.00     0.035 A 
HETATM   21  C8  UNL     1      25.553   5.621  49.102  1.00  0.00     0.029 A 
HETATM   22  C9  UNL     1      26.145   6.739  48.557  1.00  0.00     0.004 A 
HETATM   23  C10 UNL     1      27.467   6.674  48.193  1.00  0.00     0.024 A 
HETATM   24  C11 UNL     1      28.148   5.514  48.382  1.00  0.00     0.036 A 
HETATM   25 CL1  UNL     1      29.829   5.430  47.920  1.00  0.00    -0.084 Cl
HETATM   26  C12 UNL     1      27.521   4.430  48.925  1.00  0.00     0.053 A 
ENDBRANCH  18  20
ENDBRANCH   6  18
TORSDOF 5
ENDMDL
MODEL 4
REMARK VINA RESULT:      -7.8      2.819      4.427
REMARK  5 active torsions:
REMARK  status: ('A' for Active; 'I' for Inactive)
REMARK    1  A    between atoms: O1_1  and  C1_2 
REMARK    2  A    between atoms: C2_3  and  N1_4 
REMARK    3  A    between atoms: N1_4  and  C3_5 
REMARK    4  A    between atoms: C6_10  and  N4_11 
REMARK    5  A    between atoms: N4_11  and  C7_12 
ROOT
HETATM    1  C3  UNL     1      23.161  -0.280  53.330  1.00  0.00     0.096 A 
HETATM    2  C4  UNL     1      22.055  -0.621  54.063  1.00  0.00     0.151 A 
HETATM    3  N2  UNL     1      22.247  -1.213  55.263  1.00  0.00    -0.252 NA
HETATM    4  C5  UNL     1      23.514  -1.456  55.716  1.00  0.00     0.235 A 
HETATM    5  N3  UNL     1      24.544  -1.093  54.940  1.00  0.00    -0.222 NA
HETATM    6  C6  UNL     1      24.459  -0.502  53.739  1.00  0.00     0.157 A 
ENDROOT
BRANCH   1   7
HETATM    7  N1  UNL     1      22.895   0.334  52.088  1.00  0.00    -0.353 N 
HETATM    8  H2  UNL     1      22.927   0.092  51.076  1.00  0.00     0.166 HD
BRANCH   7   9
HETATM    9  C2  UNL     1      22.440   1.677  51.999  1.00  0.00     0.048 C 
HETATM   10  C1  UNL     1      23.175   2.768  52.186  1.00  0.00     0.111 C 
HETATM   11  C16 UNL     1      22.602   4.104  52.070  1.00  0.00     0.080 C 
HETATM   12  C15 UNL     1      21.296   4.227  52.149  1.00  0.00    -0.003 C 
HETATM   13 CL2  UNL     1      23.582   5.516  51.834  1.00  0.00    -0.080 Cl
HETATM   14  C14 UNL     1      20.547   3.171  52.368  1.00  0.00    -0.007 C 
HETATM   15  C13 UNL     1      21.000   1.963  51.667  1.00  0.00     0.088 C 
BRANCH  10  16
HETATM   16  O1  UNL     1      24.529   2.721  52.502  1.00  0.00    -0.357 OA
HETATM   17  H1  UNL     1      24.881   3.040  53.414  1.00  0.00     0.217 HD
ENDBRANCH  10  16
ENDBRANCH   7   9
ENDBRANCH   1   7
BRANCH   6  18
HETATM   18  N4  UNL     1      25.546  -0.116  52.913  1.00  0.00    -0.339 N 
HETATM   19  H5  UNL     1      25.292   0.309  51.986  1.00  0.00     0.167 HD
BRANCH  18  20
HETATM   20  C7  UNL     1      26.932  -0.233  53.187  1.00  0.00     0.035 A 
HETATM   21  C8  UNL     1      27.703  -1.353  52.984  1.00  0.00     0.029 A 
HETATM   22  C9  UNL     1      29.050  -1.431  53.262  1.00  0.00     0.004 A 
HETATM   23  C10 UNL     1      29.681  -0.325  53.777  1.00  0.00     0.024 A 
HETATM   24  C11 UNL     1      28.960   0.806  53.994  1.00  0.00     0.036 A 
HETATM   25 CL1  UNL     1      29.762   2.212  54.647  1.00  0.00    -0.084 Cl
HETATM   26  C12 UNL     1      27.627   0.838  53.704  1.00  0.00     0.053 A 
ENDBRANCH  18  20
ENDBRANCH   6  18
TORSDOF 5
ENDMDL
MODEL 5
REMARK VINA RESULT:      -7.7      2.739      5.550
REMARK  5 active torsions:
REMARK  status: ('A' for Active; 'I' for Inactive)
REMARK    1  A    between atoms: O1_1  and  C1_2 
REMARK    2  A    between atoms: C2_3  and  N1_4 
REMARK    3  A    between atoms: N1_4  and  C3_5 
REMARK    4  A    between atoms: C6_10  and  N4_11 
REMARK    5  A    between atoms: N4_11  and  C7_12 
ROOT
HETATM    1  C3  UNL     1      27.247   1.112  52.750  1.00  0.00     0.096 A 
HETATM    2  C4  UNL     1      28.266   1.982  53.038  1.00  0.00     0.151 A 
HETATM    3  N2  UNL     1      28.938   1.809  54.197  1.00  0.00    -0.252 NA
HETATM    4  C5  UNL     1      28.600   0.792  55.046  1.00  0.00     0.235 A 
HETATM    5  N3  UNL     1      27.591  -0.016  54.692  1.00  0.00    -0.222 NA
HETATM    6  C6  UNL     1      26.864   0.071  53.569  1.00  0.00     0.157 A 
ENDROOT
BRANCH   1   7
HETATM    7  N1  UNL     1      26.583   1.344  51.527  1.00  0.00    -0.353 N 
HETATM    8  H2  UNL     1      26.517   0.913  50.582  1.00  0.00     0.166 HD
BRANCH   7   9
HETATM    9  C2  UNL     1      25.702   2.445  51.351  1.00  0.00     0.048 C 
HETATM   10  C1  UNL     1      25.960   3.553  50.666  1.00  0.00     0.111 C 
HETATM   11  C16 UNL     1      24.977   4.625  50.551  1.00  0.00     0.080 C 
HETATM   12  C15 UNL     1      23.993   4.660  51.421  1.00  0.00    -0.003 C 
HETATM   13 CL2  UNL     1      25.071   5.840  49.315  1.00  0.00    -0.080 Cl
HETATM   14  C14 UNL     1      23.934   3.771  52.385  1.00  0.00    -0.007 C 
HETATM   15  C13 UNL     1      24.331   2.419  51.974  1.00  0.00     0.088 C 
BRANCH  10  16
HETATM   16  O1  UNL     1      27.169   3.776  50.015  1.00  0.00    -0.357 OA
HETATM   17  H1  UNL     1      27.903   4.366  50.427  1.00  0.00     0.217 HD
ENDBRANCH  10  16
ENDBRANCH   7   9
ENDBRANCH   1   7
BRANCH   6  18
HETATM   18  N4  UNL     1      25.796  -0.782  53.191  1.00  0.00    -0.339 N 
HETATM   19  H5  UNL     1      25.989  -1.437  52.392  1.00  0.00     0.167 HD
BRANCH  18  20
HETATM   20  C7  UNL     1      24.500  -0.860  53.760  1.00  0.00     0.035 A 
HETATM   21  C8  UNL     1      24.201  -1.289  55.032  1.00  0.00     0.029 A 
HETATM   22  C9  UNL     1      22.926  -1.351  55.552  1.00  0.00     0.004 A 
HETATM   23  C10 UNL     1      21.873  -0.961  54.762  1.00  0.00     0.024 A 
HETATM   24  C11 UNL     1      22.120  -0.528  53.498  1.00  0.00     0.036 A 
HETATM   25 CL1  UNL     1      20.781  -0.032  52.494  1.00  0.00    -0.084 Cl
HETATM   26  C12 UNL     1      23.398  -0.484  53.023  1.00  0.00     0.053 A 
ENDBRANCH  18  20
ENDBRANCH   6  18
TORSDOF 5
ENDMDL
MODEL 6
REMARK VINA RESULT:      -7.6      1.579      6.001
REMARK  5 active torsions:
REMARK  status: ('A' for Active; 'I' for Inactive)
REMARK    1  A    between atoms: O1_1  and  C1_2 
REMARK    2  A    between atoms: C2_3  and  N1_4 
REMARK    3  A    between atoms: N1_4  and  C3_5 
REMARK    4  A    between atoms: C6_10  and  N4_11 
REMARK    5  A    between atoms: N4_11  and  C7_12 
ROOT
HETATM    1  C3  UNL     1      25.080   2.576  52.110  1.00  0.00     0.096 A 
HETATM    2  C4  UNL     1      25.627   3.145  50.990  1.00  0.00     0.151 A 
HETATM    3  N2  UNL     1      24.880   3.172  49.864  1.00  0.00    -0.252 NA
HETATM    4  C5  UNL     1      23.619   2.643  49.860  1.00  0.00     0.235 A 
HETATM    5  N3  UNL     1      23.157   2.103  50.996  1.00  0.00    -0.222 NA
HETATM    6  C6  UNL     1      23.816   2.028  52.161  1.00  0.00     0.157 A 
ENDROOT
BRANCH   1   7
HETATM    7  N1  UNL     1      25.907   2.578  53.253  1.00  0.00    -0.353 N 
HETATM    8  H2  UNL     1      25.957   3.050  54.179  1.00  0.00     0.166 HD
BRANCH   7   9
HETATM    9  C2  UNL     1      27.059   1.752  53.343  1.00  0.00     0.048 C 
HETATM   10  C1  UNL     1      27.072   0.424  53.370  1.00  0.00     0.111 C 
HETATM   11  C16 UNL     1      28.319  -0.327  53.465  1.00  0.00     0.080 C 
HETATM   12  C15 UNL     1      29.390   0.303  53.896  1.00  0.00    -0.003 C 
HETATM   13 CL2  UNL     1      28.428  -2.004  53.033  1.00  0.00    -0.080 Cl
HETATM   14  C14 UNL     1      29.311   1.560  54.264  1.00  0.00    -0.007 C 
HETATM   15  C13 UNL     1      28.428   2.375  53.420  1.00  0.00     0.088 C 
BRANCH  10  16
HETATM   16  O1  UNL     1      25.913  -0.344  53.311  1.00  0.00    -0.357 OA
HETATM   17  H1  UNL     1      25.896  -1.259  52.842  1.00  0.00     0.217 HD
ENDBRANCH  10  16
ENDBRANCH   7   9
ENDBRANCH   1   7
BRANCH   6  18
HETATM   18  N4  UNL     1      23.330   1.458  53.366  1.00  0.00    -0.339 N 
HETATM   19  H5  UNL     1      23.779   1.802  54.252  1.00  0.00     0.167 HD
BRANCH  18  20
HETATM   20  C7  UNL     1      22.313   0.483  53.520  1.00  0.00     0.035 A 
HETATM   21  C8  UNL     1      22.413  -0.681  54.247  1.00  0.00     0.029 A 
HETATM   22  C9  UNL     1      21.402  -1.607  54.374  1.00  0.00     0.004 A 
HETATM   23  C10 UNL     1      20.207  -1.369  53.742  1.00  0.00     0.024 A 
HETATM   24  C11 UNL     1      20.060  -0.232  53.013  1.00  0.00     0.036 A 
HETATM   25 CL1  UNL     1      18.541   0.071  52.208  1.00  0.00    -0.084 Cl
HETATM   26  C12 UNL     1      21.089   0.658  52.913  1.00  0.00     0.053 A 
ENDBRANCH  18  20
ENDBRANCH   6  18
TORSDOF 5
ENDMDL
MODEL 7
REMARK VINA RESULT:      -7.4      2.661      6.238
REMARK  5 active torsions:
REMARK  status: ('A' for Active; 'I' for Inactive)
REMARK    1  A    between atoms: O1_1  and  C1_2 
REMARK    2  A    between atoms: C2_3  and  N1_4 
REMARK    3  A    between atoms: N1_4  and  C3_5 
REMARK    4  A    between atoms: C6_10  and  N4_11 
REMARK    5  A    between atoms: N4_11  and  C7_12 
ROOT
HETATM    1  C3  UNL     1      23.473   3.372  50.991  1.00  0.00     0.096 A 
HETATM    2  C4  UNL     1      23.998   4.608  51.261  1.00  0.00     0.151 A 
HETATM    3  N2  UNL     1      23.139   5.617  51.527  1.00  0.00    -0.252 NA
HETATM    4  C5  UNL     1      21.790   5.393  51.525  1.00  0.00     0.235 A 
HETATM    5  N3  UNL     1      21.356   4.156  51.251  1.00  0.00    -0.222 NA
HETATM    6  C6  UNL     1      22.123   3.091  50.975  1.00  0.00     0.157 A 
ENDROOT
BRANCH   1   7
HETATM    7  N1  UNL     1      24.418   2.360  50.720  1.00  0.00    -0.353 N 
HETATM    8  H2  UNL     1      24.723   1.772  49.918  1.00  0.00     0.166 HD
BRANCH   7   9
HETATM    9  C2  UNL     1      25.304   1.877  51.721  1.00  0.00     0.048 C 
HETATM   10  C1  UNL     1      26.553   2.281  51.924  1.00  0.00     0.111 C 
HETATM   11  C16 UNL     1      27.376   1.713  52.986  1.00  0.00     0.080 C 
HETATM   12  C15 UNL     1      27.017   0.556  53.496  1.00  0.00    -0.003 C 
HETATM   13 CL2  UNL     1      28.796   2.510  53.586  1.00  0.00    -0.080 Cl
HETATM   14  C14 UNL     1      25.969  -0.076  53.023  1.00  0.00    -0.007 C 
HETATM   15  C13 UNL     1      24.847   0.805  52.676  1.00  0.00     0.088 C 
BRANCH  10  16
HETATM   16  O1  UNL     1      27.165   3.262  51.150  1.00  0.00    -0.357 OA
HETATM   17  H1  UNL     1      28.147   3.181  50.854  1.00  0.00     0.217 HD
ENDBRANCH  10  16
ENDBRANCH   7   9
ENDBRANCH   1   7
BRANCH   6  18
HETATM   18  N4  UNL     1      21.667   1.779  50.684  1.00  0.00    -0.339 N 
HETATM   19  H5  UNL     1      21.984   1.374  49.768  1.00  0.00     0.167 HD
BRANCH  18  20
HETATM   20  C7  UNL     1      20.836   0.950  51.479  1.00  0.00     0.035 A 
HETATM   21  C8  UNL     1      19.506   0.684  51.251  1.00  0.00     0.029 A 
HETATM   22  C9  UNL     1      18.729  -0.129  52.047  1.00  0.00     0.004 A 
HETATM   23  C10 UNL     1      19.304  -0.722  53.144  1.00  0.00     0.024 A 
HETATM   24  C11 UNL     1      20.616  -0.489  53.409  1.00  0.00     0.036 A 
HETATM   25 CL1  UNL     1      21.347  -1.243  54.803  1.00  0.00    -0.084 Cl
HETATM   26  C12 UNL     1      21.348   0.324  52.594  1.00  0.00     0.053 A 
ENDBRANCH  18  20
ENDBRANCH   6  18
TORSDOF 5
ENDMDL
MODEL 8
REMARK VINA RESULT:      -7.4      1.603      2.173
REMARK  5 active torsions:
REMARK  status: ('A' for Active; 'I' for Inactive)
REMARK    1  A    between atoms: O1_1  and  C1_2 
REMARK    2  A    between atoms: C2_3  and  N1_4 
REMARK    3  A    between atoms: N1_4  and  C3_5 
REMARK    4  A    between atoms: C6_10  and  N4_11 
REMARK    5  A    between atoms: N4_11  and  C7_12 
ROOT
HETATM    1  C3  UNL     1      22.970   2.487  51.660  1.00  0.00     0.096 A 
HETATM    2  C4  UNL     1      21.913   3.251  52.082  1.00  0.00     0.151 A 
HETATM    3  N2  UNL     1      22.147   4.548  52.379  1.00  0.00    -0.252 NA
HETATM    4  C5  UNL     1      23.407   5.067  52.257  1.00  0.00     0.235 A 
HETATM    5  N3  UNL     1      24.387   4.255  51.839  1.00  0.00    -0.222 NA
HETATM    6  C6  UNL     1      24.258   2.958  51.521  1.00  0.00     0.157 A 
ENDROOT
BRANCH   1   7
HETATM    7  N1  UNL     1      22.662   1.142  51.366  1.00  0.00    -0.353 N 
HETATM    8  H2  UNL     1      22.707   0.491  50.555  1.00  0.00     0.166 HD
BRANCH   7   9
HETATM    9  C2  UNL     1      22.125   0.266  52.347  1.00  0.00     0.048 C 
HETATM   10  C1  UNL     1      20.838  -0.003  52.538  1.00  0.00     0.111 C 
HETATM   11  C16 UNL     1      20.396  -0.923  53.580  1.00  0.00     0.080 C 
HETATM   12  C15 UNL     1      21.229  -1.195  54.560  1.00  0.00    -0.003 C 
HETATM   13 CL2  UNL     1      18.824  -1.657  53.563  1.00  0.00    -0.080 Cl
HETATM   14  C14 UNL     1      22.405  -0.614  54.606  1.00  0.00    -0.007 C 
HETATM   15  C13 UNL     1      23.045  -0.460  53.293  1.00  0.00     0.088 C 
BRANCH  10  16
HETATM   16  O1  UNL     1      19.826   0.564  51.770  1.00  0.00    -0.357 OA
HETATM   17  H1  UNL     1      19.929   1.494  51.343  1.00  0.00     0.217 HD
ENDBRANCH  10  16
ENDBRANCH   7   9
ENDBRANCH   1   7
BRANCH   6  18
HETATM   18  N4  UNL     1      25.293   2.095  51.078  1.00  0.00    -0.339 N 
HETATM   19  H5  UNL     1      25.318   1.897  50.046  1.00  0.00     0.167 HD
BRANCH  18  20
HETATM   20  C7  UNL     1      26.297   1.468  51.857  1.00  0.00     0.035 A 
HETATM   21  C8  UNL     1      27.279   2.109  52.576  1.00  0.00     0.029 A 
HETATM   22  C9  UNL     1      28.240   1.466  53.324  1.00  0.00     0.004 A 
HETATM   23  C10 UNL     1      28.233   0.093  53.366  1.00  0.00     0.024 A 
HETATM   24  C11 UNL     1      27.282  -0.584  52.672  1.00  0.00     0.036 A 
HETATM   25 CL1  UNL     1      27.272  -2.329  52.725  1.00  0.00    -0.084 Cl
HETATM   26  C12 UNL     1      26.348   0.094  51.944  1.00  0.00     0.053 A 
ENDBRANCH  18  20
ENDBRANCH   6  18
TORSDOF 5
ENDMDL
MODEL 9
REMARK VINA RESULT:      -7.4      5.135      7.709
REMARK  5 active torsions:
REMARK  status: ('A' for Active; 'I' for Inactive)
REMARK    1  A    between atoms: O1_1  and  C1_2 
REMARK    2  A    between atoms: C2_3  and  N1_4 
REMARK    3  A    between atoms: N1_4  and  C3_5 
REMARK    4  A    between atoms: C6_10  and  N4_11 
REMARK    5  A    between atoms: N4_11  and  C7_12 
ROOT
HETATM    1  C3  UNL     1      24.553   6.942  50.756  1.00  0.00     0.096 A 
HETATM    2  C4  UNL     1      23.745   8.035  50.579  1.00  0.00     0.151 A 
HETATM    3  N2  UNL     1      22.414   7.828  50.470  1.00  0.00    -0.252 NA
HETATM    4  C5  UNL     1      21.906   6.560  50.537  1.00  0.00     0.235 A 
HETATM    5  N3  UNL     1      22.762   5.545  50.710  1.00  0.00    -0.222 NA
HETATM    6  C6  UNL     1      24.094   5.645  50.829  1.00  0.00     0.157 A 
ENDROOT
BRANCH   1   7
HETATM    7  N1  UNL     1      25.931   7.222  50.863  1.00  0.00    -0.353 N 
HETATM    8  H2  UNL     1      26.701   7.097  51.551  1.00  0.00     0.166 HD
BRANCH   7   9
HETATM    9  C2  UNL     1      26.648   7.860  49.815  1.00  0.00     0.048 C 
HETATM   10  C1  UNL     1      27.375   8.966  49.922  1.00  0.00     0.111 C 
HETATM   11  C16 UNL     1      28.072   9.536  48.774  1.00  0.00     0.080 C 
HETATM   12  C15 UNL     1      27.686   9.173  47.571  1.00  0.00    -0.003 C 
HETATM   13 CL2  UNL     1      29.380  10.664  48.950  1.00  0.00    -0.080 Cl
HETATM   14  C14 UNL     1      26.672   8.353  47.425  1.00  0.00    -0.007 C 
HETATM   15  C13 UNL     1      26.624   7.279  48.425  1.00  0.00     0.088 C 
BRANCH  10  16
HETATM   16  O1  UNL     1      27.526   9.659  51.119  1.00  0.00    -0.357 OA
HETATM   17  H1  UNL     1      28.265  10.361  51.247  1.00  0.00     0.217 HD
ENDBRANCH  10  16
ENDBRANCH   7   9
ENDBRANCH   1   7
BRANCH   6  18
HETATM   18  N4  UNL     1      25.003   4.572  51.013  1.00  0.00    -0.339 N 
HETATM   19  H5  UNL     1      25.977   4.725  50.648  1.00  0.00     0.167 HD
BRANCH  18  20
HETATM   20  C7  UNL     1      24.760   3.319  51.630  1.00  0.00     0.035 A 
HETATM   21  C8  UNL     1      23.655   2.989  52.380  1.00  0.00     0.029 A 
HETATM   22  C9  UNL     1      23.452   1.759  52.965  1.00  0.00     0.004 A 
HETATM   23  C10 UNL     1      24.405   0.784  52.798  1.00  0.00     0.024 A 
HETATM   24  C11 UNL     1      25.514   1.063  52.064  1.00  0.00     0.036 A 
HETATM   25 CL1  UNL     1      26.726  -0.175  51.851  1.00  0.00    -0.084 Cl
HETATM   26  C12 UNL     1      25.675   2.297  51.503  1.00  0.00     0.053 A 
ENDBRANCH  18  20
ENDBRANCH   6  18
TORSDOF 5
ENDMDL
