MODEL 1
REMARK VINA RESULT:      -8.5      0.000      0.000
REMARK  3 active torsions:
REMARK  status: ('A' for Active; 'I' for Inactive)
REMARK    1  A    between atoms: O1_2  and  C2_3 
REMARK    2  A    between atoms: C6_9  and  N3_10 
REMARK    3  A    between atoms: N3_10  and  C7_11 
ROOT
HETATM    1  C2  UNL     1      24.034   5.264  50.859  1.00  0.00     0.076 C 
HETATM    2  C3  UNL     1      23.332   4.915  51.921  1.00  0.00     0.056 C 
HETATM    3  C4  UNL     1      22.544   3.723  52.188  1.00  0.00     0.120 C 
HETATM    4  N1  UNL     1      22.315   2.686  51.457  1.00  0.00    -0.254 NA
HETATM    5  C5  UNL     1      22.893   2.617  50.159  1.00  0.00     0.234 C 
HETATM    6  N2  UNL     1      24.118   2.768  49.873  1.00  0.00    -0.223 NA
HETATM    7  C6  UNL     1      25.176   3.037  50.777  1.00  0.00     0.156 C 
HETATM    8  C14 UNL     1      25.887   3.363  49.742  1.00  0.00     0.037 C 
HETATM    9  C15 UNL     1      25.781   4.553  49.290  1.00  0.00    -0.001 C 
HETATM   10  C16 UNL     1      24.587   5.101  49.518  1.00  0.00    -0.017 C 
HETATM   11  C17 UNL     1      23.859   5.535  48.286  1.00  0.00     0.052 C 
ENDROOT
BRANCH   7  12
HETATM   12  N3  UNL     1      26.112   3.258  51.776  1.00  0.00    -0.169 N 
HETATM   13  H7  UNL     1      26.269   4.173  52.238  1.00  0.00     0.186 HD
BRANCH  12  14
HETATM   14  C7  UNL     1      26.891   2.147  52.175  1.00  0.00     0.747 A 
HETATM   15  N4  UNL     1      28.126   2.319  52.678  1.00  0.00     0.044 NA
HETATM   16  N5  UNL     1      28.917   1.332  53.072  1.00  0.00    -0.132 NA
HETATM   17  C8  UNL     1      28.518   0.045  52.990  1.00  0.00     0.109 A 
HETATM   18  C9  UNL     1      29.331  -0.993  53.397  1.00  0.00     0.036 A 
HETATM   19  C13 UNL     1      27.253  -0.186  52.480  1.00  0.00     0.106 A 
HETATM   20  C10 UNL     1      28.843  -2.290  53.278  1.00  0.00     0.003 A 
HETATM   21  C11 UNL     1      27.577  -2.514  52.767  1.00  0.00     0.002 A 
HETATM   22  C12 UNL     1      26.752  -1.480  52.356  1.00  0.00     0.035 A 
HETATM   23  N6  UNL     1      26.487   0.866  52.092  1.00  0.00    -0.059 NA
ENDBRANCH  12  14
ENDBRANCH   7  12
BRANCH   1  24
HETATM   24  O1  UNL     1      24.718   6.500  50.861  1.00  0.00    -0.355 OA
HETATM   25  C1  UNL     1      23.984   7.704  50.926  1.00  0.00     0.210 C 
ENDBRANCH   1  24
TORSDOF 3
ENDMDL
MODEL 2
REMARK VINA RESULT:      -8.1      1.828      3.278
REMARK  3 active torsions:
REMARK  status: ('A' for Active; 'I' for Inactive)
REMARK    1  A    between atoms: O1_2  and  C2_3 
REMARK    2  A    between atoms: C6_9  and  N3_10 
REMARK    3  A    between atoms: N3_10  and  C7_11 
ROOT
HETATM    1  C2  UNL     1      22.202   3.138  50.205  1.00  0.00     0.076 C 
HETATM    2  C3  UNL     1      23.034   3.741  49.376  1.00  0.00     0.056 C 
HETATM    3  C4  UNL     1      23.972   4.830  49.598  1.00  0.00     0.120 C 
HETATM    4  N1  UNL     1      24.241   5.502  50.665  1.00  0.00    -0.254 NA
HETATM    5  C5  UNL     1      23.551   5.191  51.868  1.00  0.00     0.234 C 
HETATM    6  N2  UNL     1      23.449   4.047  52.402  1.00  0.00    -0.223 NA
HETATM    7  C6  UNL     1      23.999   2.832  51.921  1.00  0.00     0.156 C 
HETATM    8  C14 UNL     1      23.203   2.224  52.745  1.00  0.00     0.037 C 
HETATM    9  C15 UNL     1      22.004   1.996  52.367  1.00  0.00    -0.001 C 
HETATM   10  C16 UNL     1      21.550   2.888  51.487  1.00  0.00    -0.017 C 
HETATM   11  C17 UNL     1      20.316   3.613  51.919  1.00  0.00     0.052 C 
ENDROOT
BRANCH   7  12
HETATM   12  N3  UNL     1      24.627   1.731  51.356  1.00  0.00    -0.169 N 
HETATM   13  H7  UNL     1      24.243   1.183  50.564  1.00  0.00     0.186 HD
BRANCH  12  14
HETATM   14  C7  UNL     1      25.869   1.352  51.913  1.00  0.00     0.747 A 
HETATM   15  N4  UNL     1      26.768   2.281  52.284  1.00  0.00     0.044 NA
HETATM   16  N5  UNL     1      27.953   2.007  52.810  1.00  0.00    -0.132 NA
HETATM   17  C8  UNL     1      28.346   0.732  53.015  1.00  0.00     0.109 A 
HETATM   18  C9  UNL     1      29.576   0.432  53.562  1.00  0.00     0.036 A 
HETATM   19  C13 UNL     1      27.456  -0.262  52.652  1.00  0.00     0.106 A 
HETATM   20  C10 UNL     1      29.903  -0.908  53.740  1.00  0.00     0.003 A 
HETATM   21  C11 UNL     1      29.009  -1.898  53.374  1.00  0.00     0.002 A 
HETATM   22  C12 UNL     1      27.771  -1.609  52.824  1.00  0.00     0.035 A 
HETATM   23  N6  UNL     1      26.255   0.079  52.116  1.00  0.00    -0.059 NA
ENDBRANCH  12  14
ENDBRANCH   7  12
BRANCH   1  24
HETATM   24  O1  UNL     1      21.387   2.090  49.722  1.00  0.00    -0.355 OA
HETATM   25  C1  UNL     1      21.782   1.371  48.573  1.00  0.00     0.210 C 
ENDBRANCH   1  24
TORSDOF 3
ENDMDL
MODEL 3
REMARK VINA RESULT:      -7.9      7.275      9.716
REMARK  3 active torsions:
REMARK  status: ('A' for Active; 'I' for Inactive)
REMARK    1  A    between atoms: O1_2  and  C2_3 
REMARK    2  A    between atoms: C6_9  and  N3_10 
REMARK    3  A    between atoms: N3_10  and  C7_11 
ROOT
HETATM    1  C2  UNL     1      34.487   5.257  47.187  1.00  0.00     0.076 C 
HETATM    2  C3  UNL     1      34.265   6.544  46.996  1.00  0.00     0.056 C 
HETATM    3  C4  UNL     1      33.585   7.241  45.916  1.00  0.00     0.120 C 
HETATM    4  N1  UNL     1      33.016   6.788  44.852  1.00  0.00    -0.254 NA
HETATM    5  C5  UNL     1      33.009   5.385  44.618  1.00  0.00     0.234 C 
HETATM    6  N2  UNL     1      32.613   4.491  45.423  1.00  0.00    -0.223 NA
HETATM    7  C6  UNL     1      32.092   4.690  46.726  1.00  0.00     0.156 C 
HETATM    8  C14 UNL     1      32.283   3.422  46.923  1.00  0.00     0.037 C 
HETATM    9  C15 UNL     1      33.444   3.039  47.292  1.00  0.00    -0.001 C 
HETATM   10  C16 UNL     1      34.424   3.835  46.864  1.00  0.00    -0.017 C 
HETATM   11  C17 UNL     1      35.456   3.151  46.025  1.00  0.00     0.052 C 
ENDROOT
BRANCH   7  12
HETATM   12  N3  UNL     1      31.565   5.036  47.962  1.00  0.00    -0.169 N 
HETATM   13  H7  UNL     1      32.064   4.916  48.864  1.00  0.00     0.186 HD
BRANCH  12  14
HETATM   14  C7  UNL     1      30.263   5.587  47.967  1.00  0.00     0.747 A 
HETATM   15  N4  UNL     1      30.032   6.805  47.447  1.00  0.00     0.044 NA
HETATM   16  N5  UNL     1      28.843   7.390  47.415  1.00  0.00    -0.132 NA
HETATM   17  C8  UNL     1      27.751   6.779  47.921  1.00  0.00     0.109 A 
HETATM   18  C9  UNL     1      26.508   7.376  47.896  1.00  0.00     0.036 A 
HETATM   19  C13 UNL     1      27.937   5.521  48.468  1.00  0.00     0.106 A 
HETATM   20  C10 UNL     1      25.436   6.676  48.439  1.00  0.00     0.003 A 
HETATM   21  C11 UNL     1      25.628   5.420  48.984  1.00  0.00     0.002 A 
HETATM   22  C12 UNL     1      26.871   4.810  49.016  1.00  0.00     0.035 A 
HETATM   23  N6  UNL     1      29.179   4.971  48.473  1.00  0.00    -0.059 NA
ENDBRANCH  12  14
ENDBRANCH   7  12
BRANCH   1  24
HETATM   24  O1  UNL     1      35.187   4.842  48.342  1.00  0.00    -0.355 OA
HETATM   25  C1  UNL     1      35.575   5.798  49.305  1.00  0.00     0.210 C 
ENDBRANCH   1  24
TORSDOF 3
ENDMDL
MODEL 4
REMARK VINA RESULT:      -7.9      1.961      3.311
REMARK  3 active torsions:
REMARK  status: ('A' for Active; 'I' for Inactive)
REMARK    1  A    between atoms: O1_2  and  C2_3 
REMARK    2  A    between atoms: C6_9  and  N3_10 
REMARK    3  A    between atoms: N3_10  and  C7_11 
ROOT
HETATM    1  C2  UNL     1      22.553   3.256  49.871  1.00  0.00     0.076 C 
HETATM    2  C3  UNL     1      23.742   2.887  49.433  1.00  0.00     0.056 C 
HETATM    3  C4  UNL     1      25.041   3.530  49.556  1.00  0.00     0.120 C 
HETATM    4  N1  UNL     1      25.379   4.635  50.125  1.00  0.00    -0.254 NA
HETATM    5  C5  UNL     1      24.378   5.419  50.761  1.00  0.00     0.234 C 
HETATM    6  N2  UNL     1      23.552   5.019  51.634  1.00  0.00    -0.223 NA
HETATM    7  C6  UNL     1      23.445   3.709  52.166  1.00  0.00     0.156 C 
HETATM    8  C14 UNL     1      22.284   4.062  52.623  1.00  0.00     0.037 C 
HETATM    9  C15 UNL     1      21.278   3.978  51.839  1.00  0.00    -0.001 C 
HETATM   10  C16 UNL     1      21.597   4.124  50.553  1.00  0.00    -0.017 C 
HETATM   11  C17 UNL     1      20.896   5.250  49.864  1.00  0.00     0.052 C 
ENDROOT
BRANCH   7  12
HETATM   12  N3  UNL     1      23.483   2.401  52.626  1.00  0.00    -0.169 N 
HETATM   13  H7  UNL     1      22.650   1.789  52.716  1.00  0.00     0.186 HD
BRANCH  12  14
HETATM   14  C7  UNL     1      24.751   1.890  52.987  1.00  0.00     0.747 A 
HETATM   15  N4  UNL     1      25.598   2.620  53.733  1.00  0.00     0.044 NA
HETATM   16  N5  UNL     1      26.802   2.213  54.111  1.00  0.00    -0.132 NA
HETATM   17  C8  UNL     1      27.268   0.997  53.759  1.00  0.00     0.109 A 
HETATM   18  C9  UNL     1      28.519   0.561  54.145  1.00  0.00     0.036 A 
HETATM   19  C13 UNL     1      26.433   0.205  52.992  1.00  0.00     0.106 A 
HETATM   20  C10 UNL     1      28.923  -0.707  53.739  1.00  0.00     0.003 A 
HETATM   21  C11 UNL     1      28.083  -1.493  52.972  1.00  0.00     0.002 A 
HETATM   22  C12 UNL     1      26.825  -1.066  52.578  1.00  0.00     0.035 A 
HETATM   23  N6  UNL     1      25.209   0.675  52.633  1.00  0.00    -0.059 NA
ENDBRANCH  12  14
ENDBRANCH   7  12
BRANCH   1  24
HETATM   24  O1  UNL     1      21.435   2.433  49.609  1.00  0.00    -0.355 OA
HETATM   25  C1  UNL     1      21.568   1.334  48.732  1.00  0.00     0.210 C 
ENDBRANCH   1  24
TORSDOF 3
ENDMDL
MODEL 5
REMARK VINA RESULT:      -7.7      6.219      8.627
REMARK  3 active torsions:
REMARK  status: ('A' for Active; 'I' for Inactive)
REMARK    1  A    between atoms: O1_2  and  C2_3 
REMARK    2  A    between atoms: C6_9  and  N3_10 
REMARK    3  A    between atoms: N3_10  and  C7_11 
ROOT
HETATM    1  C2  UNL     1      33.248   6.283  46.799  1.00  0.00     0.076 C 
HETATM    2  C3  UNL     1      32.906   5.576  45.737  1.00  0.00     0.056 C 
HETATM    3  C4  UNL     1      32.532   4.177  45.608  1.00  0.00     0.120 C 
HETATM    4  N1  UNL     1      32.437   3.248  46.495  1.00  0.00    -0.254 NA
HETATM    5  C5  UNL     1      32.729   3.558  47.852  1.00  0.00     0.234 C 
HETATM    6  N2  UNL     1      32.228   4.503  48.532  1.00  0.00    -0.223 NA
HETATM    7  C6  UNL     1      31.271   5.452  48.092  1.00  0.00     0.156 C 
HETATM    8  C14 UNL     1      31.580   6.148  49.142  1.00  0.00     0.037 C 
HETATM    9  C15 UNL     1      32.592   6.925  49.073  1.00  0.00    -0.001 C 
HETATM   10  C16 UNL     1      33.521   6.507  48.215  1.00  0.00    -0.017 C 
HETATM   11  C17 UNL     1      34.870   6.285  48.821  1.00  0.00     0.052 C 
ENDROOT
BRANCH   7  12
HETATM   12  N3  UNL     1      30.309   6.285  47.540  1.00  0.00    -0.169 N 
HETATM   13  H7  UNL     1      30.508   7.021  46.837  1.00  0.00     0.186 HD
BRANCH  12  14
HETATM   14  C7  UNL     1      28.979   6.100  47.981  1.00  0.00     0.747 A 
HETATM   15  N4  UNL     1      28.101   7.118  47.962  1.00  0.00     0.044 NA
HETATM   16  N5  UNL     1      26.840   7.026  48.359  1.00  0.00    -0.132 NA
HETATM   17  C8  UNL     1      26.339   5.861  48.823  1.00  0.00     0.109 A 
HETATM   18  C9  UNL     1      25.029   5.751  49.239  1.00  0.00     0.036 A 
HETATM   19  C13 UNL     1      27.203   4.781  48.861  1.00  0.00     0.106 A 
HETATM   20  C10 UNL     1      24.594   4.514  49.704  1.00  0.00     0.003 A 
HETATM   21  C11 UNL     1      25.462   3.438  49.740  1.00  0.00     0.002 A 
HETATM   22  C12 UNL     1      26.779   3.537  49.324  1.00  0.00     0.035 A 
HETATM   23  N6  UNL     1      28.486   4.936  48.441  1.00  0.00    -0.059 NA
ENDBRANCH  12  14
ENDBRANCH   7  12
BRANCH   1  24
HETATM   24  O1  UNL     1      33.570   7.649  46.643  1.00  0.00    -0.355 OA
HETATM   25  C1  UNL     1      32.897   8.419  45.670  1.00  0.00     0.210 C 
ENDBRANCH   1  24
TORSDOF 3
ENDMDL
MODEL 6
REMARK VINA RESULT:      -7.6      1.949      3.025
REMARK  3 active torsions:
REMARK  status: ('A' for Active; 'I' for Inactive)
REMARK    1  A    between atoms: O1_2  and  C2_3 
REMARK    2  A    between atoms: C6_9  and  N3_10 
REMARK    3  A    between atoms: N3_10  and  C7_11 
ROOT
HETATM    1  C2  UNL     1      21.598   3.359  51.207  1.00  0.00     0.076 C 
HETATM    2  C3  UNL     1      21.746   2.296  50.438  1.00  0.00     0.056 C 
HETATM    3  C4  UNL     1      22.720   2.004  49.399  1.00  0.00     0.120 C 
HETATM    4  N1  UNL     1      23.700   2.708  48.946  1.00  0.00    -0.254 NA
HETATM    5  C5  UNL     1      23.939   3.995  49.500  1.00  0.00     0.234 C 
HETATM    6  N2  UNL     1      24.077   4.272  50.728  1.00  0.00    -0.223 NA
HETATM    7  C6  UNL     1      24.026   3.363  51.815  1.00  0.00     0.156 C 
HETATM    8  C14 UNL     1      23.902   4.398  52.587  1.00  0.00     0.037 C 
HETATM    9  C15 UNL     1      22.733   4.885  52.755  1.00  0.00    -0.001 C 
HETATM   10  C16 UNL     1      21.923   4.688  51.716  1.00  0.00    -0.017 C 
HETATM   11  C17 UNL     1      21.374   5.940  51.111  1.00  0.00     0.052 C 
ENDROOT
BRANCH   7  12
HETATM   12  N3  UNL     1      23.992   2.359  52.772  1.00  0.00    -0.169 N 
HETATM   13  H7  UNL     1      23.126   2.014  53.226  1.00  0.00     0.186 HD
BRANCH  12  14
HETATM   14  C7  UNL     1      25.231   1.783  53.135  1.00  0.00     0.747 A 
HETATM   15  N4  UNL     1      26.082   2.437  53.945  1.00  0.00     0.044 NA
HETATM   16  N5  UNL     1      27.260   1.966  54.329  1.00  0.00    -0.132 NA
HETATM   17  C8  UNL     1      27.695   0.758  53.915  1.00  0.00     0.109 A 
HETATM   18  C9  UNL     1      28.919   0.256  54.307  1.00  0.00     0.036 A 
HETATM   19  C13 UNL     1      26.855   0.043  53.080  1.00  0.00     0.106 A 
HETATM   20  C10 UNL     1      29.292  -0.999  53.835  1.00  0.00     0.003 A 
HETATM   21  C11 UNL     1      28.448  -1.708  52.999  1.00  0.00     0.002 A 
HETATM   22  C12 UNL     1      27.217  -1.214  52.600  1.00  0.00     0.035 A 
HETATM   23  N6  UNL     1      25.659   0.577  52.719  1.00  0.00    -0.059 NA
ENDBRANCH  12  14
ENDBRANCH   7  12
BRANCH   1  24
HETATM   24  O1  UNL     1      20.548   3.385  52.153  1.00  0.00    -0.355 OA
HETATM   25  C1  UNL     1      19.671   2.284  52.253  1.00  0.00     0.210 C 
ENDBRANCH   1  24
TORSDOF 3
ENDMDL
MODEL 7
REMARK VINA RESULT:      -7.6      3.348      6.088
REMARK  3 active torsions:
REMARK  status: ('A' for Active; 'I' for Inactive)
REMARK    1  A    between atoms: O1_2  and  C2_3 
REMARK    2  A    between atoms: C6_9  and  N3_10 
REMARK    3  A    between atoms: N3_10  and  C7_11 
ROOT
HETATM    1  C2  UNL     1      22.556   2.580  50.496  1.00  0.00     0.076 C 
HETATM    2  C3  UNL     1      22.230   3.672  49.830  1.00  0.00     0.056 C 
HETATM    3  C4  UNL     1      22.319   5.074  50.203  1.00  0.00     0.120 C 
HETATM    4  N1  UNL     1      22.737   5.629  51.289  1.00  0.00    -0.254 NA
HETATM    5  C5  UNL     1      23.207   4.805  52.348  1.00  0.00     0.234 C 
HETATM    6  N2  UNL     1      24.090   3.900  52.261  1.00  0.00    -0.223 NA
HETATM    7  C6  UNL     1      24.800   3.514  51.097  1.00  0.00     0.156 C 
HETATM    8  C14 UNL     1      25.147   2.445  51.745  1.00  0.00     0.037 C 
HETATM    9  C15 UNL     1      24.338   1.456  51.752  1.00  0.00    -0.001 C 
HETATM   10  C16 UNL     1      23.061   1.818  51.634  1.00  0.00    -0.017 C 
HETATM   11  C17 UNL     1      22.186   1.378  52.764  1.00  0.00     0.052 C 
ENDROOT
BRANCH   7  12
HETATM   12  N3  UNL     1      25.445   3.269  49.893  1.00  0.00    -0.169 N 
HETATM   13  H7  UNL     1      25.454   2.351  49.412  1.00  0.00     0.186 HD
BRANCH  12  14
HETATM   14  C7  UNL     1      26.125   4.359  49.303  1.00  0.00     0.747 A 
HETATM   15  N4  UNL     1      25.468   5.489  48.988  1.00  0.00     0.044 NA
HETATM   16  N5  UNL     1      26.033   6.552  48.433  1.00  0.00    -0.132 NA
HETATM   17  C8  UNL     1      27.349   6.567  48.137  1.00  0.00     0.109 A 
HETATM   18  C9  UNL     1      27.950   7.665  47.558  1.00  0.00     0.036 A 
HETATM   19  C13 UNL     1      28.071   5.426  48.442  1.00  0.00     0.106 A 
HETATM   20  C10 UNL     1      29.312   7.597  47.286  1.00  0.00     0.003 A 
HETATM   21  C11 UNL     1      30.028   6.454  47.593  1.00  0.00     0.002 A 
HETATM   22  C12 UNL     1      29.436   5.345  48.174  1.00  0.00     0.035 A 
HETATM   23  N6  UNL     1      27.438   4.367  49.011  1.00  0.00    -0.059 NA
ENDBRANCH  12  14
ENDBRANCH   7  12
BRANCH   1  24
HETATM   24  O1  UNL     1      22.364   1.318  49.890  1.00  0.00    -0.355 OA
HETATM   25  C1  UNL     1      21.426   1.182  48.844  1.00  0.00     0.210 C 
ENDBRANCH   1  24
TORSDOF 3
ENDMDL
MODEL 8
REMARK VINA RESULT:      -7.4      1.751      2.226
REMARK  3 active torsions:
REMARK  status: ('A' for Active; 'I' for Inactive)
REMARK    1  A    between atoms: O1_2  and  C2_3 
REMARK    2  A    between atoms: C6_9  and  N3_10 
REMARK    3  A    between atoms: N3_10  and  C7_11 
ROOT
HETATM    1  C2  UNL     1      23.458   5.919  50.354  1.00  0.00     0.076 C 
HETATM    2  C3  UNL     1      23.758   5.676  51.616  1.00  0.00     0.056 C 
HETATM    3  C4  UNL     1      23.193   4.726  52.560  1.00  0.00     0.120 C 
HETATM    4  N1  UNL     1      22.243   3.867  52.420  1.00  0.00    -0.254 NA
HETATM    5  C5  UNL     1      21.585   3.766  51.164  1.00  0.00     0.234 C 
HETATM    6  N2  UNL     1      22.138   3.602  50.036  1.00  0.00    -0.223 NA
HETATM    7  C6  UNL     1      23.527   3.482  49.780  1.00  0.00     0.156 C 
HETATM    8  C14 UNL     1      23.247   3.698  48.532  1.00  0.00     0.037 C 
HETATM    9  C15 UNL     1      23.134   4.909  48.141  1.00  0.00    -0.001 C 
HETATM   10  C16 UNL     1      22.728   5.739  49.102  1.00  0.00    -0.017 C 
HETATM   11  C17 UNL     1      21.462   6.472  48.793  1.00  0.00     0.052 C 
ENDROOT
BRANCH   7  12
HETATM   12  N3  UNL     1      24.904   3.341  49.683  1.00  0.00    -0.169 N 
HETATM   13  H7  UNL     1      25.471   3.678  48.883  1.00  0.00     0.186 HD
BRANCH  12  14
HETATM   14  C7  UNL     1      25.554   2.693  50.758  1.00  0.00     0.747 A 
HETATM   15  N4  UNL     1      26.846   2.944  51.031  1.00  0.00     0.044 NA
HETATM   16  N5  UNL     1      27.525   2.377  52.018  1.00  0.00    -0.132 NA
HETATM   17  C8  UNL     1      26.941   1.480  52.840  1.00  0.00     0.109 A 
HETATM   18  C9  UNL     1      27.636   0.882  53.871  1.00  0.00     0.036 A 
HETATM   19  C13 UNL     1      25.610   1.187  52.601  1.00  0.00     0.106 A 
HETATM   20  C10 UNL     1      26.959  -0.033  54.671  1.00  0.00     0.003 A 
HETATM   21  C11 UNL     1      25.628  -0.321  54.427  1.00  0.00     0.002 A 
HETATM   22  C12 UNL     1      24.921   0.273  53.396  1.00  0.00     0.035 A 
HETATM   23  N6  UNL     1      24.965   1.799  51.575  1.00  0.00    -0.059 NA
ENDBRANCH  12  14
ENDBRANCH   7  12
BRANCH   1  24
HETATM   24  O1  UNL     1      24.175   6.914  49.653  1.00  0.00    -0.355 OA
HETATM   25  C1  UNL     1      25.484   7.249  50.061  1.00  0.00     0.210 C 
ENDBRANCH   1  24
TORSDOF 3
ENDMDL
MODEL 9
REMARK VINA RESULT:      -7.4      2.458      3.374
REMARK  3 active torsions:
REMARK  status: ('A' for Active; 'I' for Inactive)
REMARK    1  A    between atoms: O1_2  and  C2_3 
REMARK    2  A    between atoms: C6_9  and  N3_10 
REMARK    3  A    between atoms: N3_10  and  C7_11 
ROOT
HETATM    1  C2  UNL     1      20.856   3.293  51.092  1.00  0.00     0.076 C 
HETATM    2  C3  UNL     1      20.856   2.866  52.341  1.00  0.00     0.056 C 
HETATM    3  C4  UNL     1      20.888   1.517  52.883  1.00  0.00     0.120 C 
HETATM    4  N1  UNL     1      20.921   0.374  52.289  1.00  0.00    -0.254 NA
HETATM    5  C5  UNL     1      20.930   0.336  50.868  1.00  0.00     0.234 C 
HETATM    6  N2  UNL     1      21.730   0.954  50.104  1.00  0.00    -0.223 NA
HETATM    7  C6  UNL     1      22.787   1.814  50.497  1.00  0.00     0.156 C 
HETATM    8  C14 UNL     1      22.815   2.230  49.268  1.00  0.00     0.037 C 
HETATM    9  C15 UNL     1      22.000   3.153  48.927  1.00  0.00    -0.001 C 
HETATM   10  C16 UNL     1      20.874   3.154  49.639  1.00  0.00    -0.017 C 
HETATM   11  C17 UNL     1      19.627   3.001  48.828  1.00  0.00     0.052 C 
ENDROOT
BRANCH   7  12
HETATM   12  N3  UNL     1      23.805   2.595  51.025  1.00  0.00    -0.169 N 
HETATM   13  H7  UNL     1      23.928   3.606  50.826  1.00  0.00     0.186 HD
BRANCH  12  14
HETATM   14  C7  UNL     1      24.719   1.950  51.888  1.00  0.00     0.747 A 
HETATM   15  N4  UNL     1      24.391   0.798  52.499  1.00  0.00     0.044 NA
HETATM   16  N5  UNL     1      25.190   0.134  53.322  1.00  0.00    -0.132 NA
HETATM   17  C8  UNL     1      26.428   0.589  53.609  1.00  0.00     0.109 A 
HETATM   18  C9  UNL     1      27.270  -0.091  54.463  1.00  0.00     0.036 A 
HETATM   19  C13 UNL     1      26.815   1.772  53.004  1.00  0.00     0.106 A 
HETATM   20  C10 UNL     1      28.530   0.447  54.705  1.00  0.00     0.003 A 
HETATM   21  C11 UNL     1      28.911   1.630  54.098  1.00  0.00     0.002 A 
HETATM   22  C12 UNL     1      28.073   2.322  53.238  1.00  0.00     0.035 A 
HETATM   23  N6  UNL     1      25.952   2.409  52.169  1.00  0.00    -0.059 NA
ENDBRANCH  12  14
ENDBRANCH   7  12
BRANCH   1  24
HETATM   24  O1  UNL     1      20.820   4.683  50.839  1.00  0.00    -0.355 OA
HETATM   25  C1  UNL     1      21.705   5.541  51.526  1.00  0.00     0.210 C 
ENDBRANCH   1  24
TORSDOF 3
ENDMDL
