MODEL 1
REMARK VINA RESULT:      -6.6      0.000      0.000
REMARK  6 active torsions:
REMARK  status: ('A' for Active; 'I' for Inactive)
REMARK    1  A    between atoms: C2_2  and  O1_3 
REMARK    2  A    between atoms: O1_3  and  C3_4 
REMARK    3  A    between atoms: C7_9  and  N2_10 
REMARK       I    between atoms: N3_12  and  C9_13 
REMARK    4  A    between atoms: C9_13  and  C10_15 
REMARK    5  A    between atoms: C11_16  and  C12_17 
REMARK    6  A    between atoms: C12_17  and  N4_18 
ROOT
HETATM    1  C3  UNL     1      21.794   0.608  51.051  1.00  0.00     0.097 C 
HETATM    2  C4  UNL     1      20.540   0.216  51.431  1.00  0.00     0.066 C 
HETATM    3  C5  UNL     1      20.567   1.538  52.386  1.00  0.00     0.040 C 
HETATM    4  N1  UNL     1      20.576   2.933  52.463  1.00  0.00    -0.261 NA
HETATM    5  C6  UNL     1      21.979   3.572  52.332  1.00  0.00     0.165 C 
HETATM    6  C7  UNL     1      23.345   3.127  52.505  1.00  0.00     0.128 C 
HETATM    7  N3  UNL     1      23.822   1.645  52.315  1.00  0.00    -0.261 N 
HETATM    8  C9  UNL     1      25.208   1.656  52.160  1.00  0.00     0.253 C 
HETATM    9  O2  UNL     1      25.624   2.828  52.227  1.00  0.00    -0.268 OA
HETATM   10  C15 UNL     1      22.636   0.684  52.359  1.00  0.00     0.074 C 
HETATM   11  C16 UNL     1      22.118   0.303  53.597  1.00  0.00     0.012 C 
HETATM   12  C17 UNL     1      20.795   1.032  53.824  1.00  0.00     0.088 C 
ENDROOT
BRANCH   6  13
HETATM   13  N2  UNL     1      24.085   4.294  52.854  1.00  0.00    -0.379 N 
HETATM   14  C8  UNL     1      23.749   5.500  52.080  1.00  0.00     0.147 C 
HETATM   15  H8  UNL     1      24.834   4.362  53.601  1.00  0.00     0.160 HD
ENDBRANCH   6  13
BRANCH   8  16
HETATM   16  C10 UNL     1      25.939   0.432  51.958  1.00  0.00     0.073 C 
HETATM   17  C11 UNL     1      26.691  -0.139  52.881  1.00  0.00     0.008 C 
BRANCH  17  18
HETATM   18  C12 UNL     1      27.007   0.232  54.271  1.00  0.00     0.299 C 
BRANCH  18  19
HETATM   19  N4  UNL     1      28.429   0.530  54.438  1.00  0.00     0.083 N 
HETATM   20  C13 UNL     1      28.680   1.835  53.832  1.00  0.00     0.309 C 
HETATM   21  C14 UNL     1      29.248  -0.497  53.840  1.00  0.00     0.309 C 
ENDBRANCH  18  19
ENDBRANCH  17  18
ENDBRANCH   8  16
BRANCH   1  22
HETATM   22  O1  UNL     1      21.542   0.691  49.592  1.00  0.00    -0.349 OA
BRANCH  22  23
HETATM   23  C2  UNL     1      21.604   2.036  49.088  1.00  0.00     0.171 C 
HETATM   24  C1  UNL     1      23.008   2.479  48.890  1.00  0.00     0.034 C 
ENDBRANCH  22  23
ENDBRANCH   1  22
TORSDOF 6
ENDMDL
MODEL 2
REMARK VINA RESULT:      -6.5      1.956      3.163
REMARK  6 active torsions:
REMARK  status: ('A' for Active; 'I' for Inactive)
REMARK    1  A    between atoms: C2_2  and  O1_3 
REMARK    2  A    between atoms: O1_3  and  C3_4 
REMARK    3  A    between atoms: C7_9  and  N2_10 
REMARK       I    between atoms: N3_12  and  C9_13 
REMARK    4  A    between atoms: C9_13  and  C10_15 
REMARK    5  A    between atoms: C11_16  and  C12_17 
REMARK    6  A    between atoms: C12_17  and  N4_18 
ROOT
HETATM    1  C3  UNL     1      22.752   2.118  51.981  1.00  0.00     0.097 C 
HETATM    2  C4  UNL     1      21.580   2.820  51.923  1.00  0.00     0.066 C 
HETATM    3  C5  UNL     1      22.426   3.890  51.029  1.00  0.00     0.040 C 
HETATM    4  N1  UNL     1      23.093   4.152  49.830  1.00  0.00    -0.261 NA
HETATM    5  C6  UNL     1      24.563   3.670  49.796  1.00  0.00     0.165 C 
HETATM    6  C7  UNL     1      25.571   3.335  50.778  1.00  0.00     0.128 C 
HETATM    7  N3  UNL     1      25.256   2.799  52.219  1.00  0.00    -0.261 N 
HETATM    8  C9  UNL     1      26.416   2.213  52.722  1.00  0.00     0.253 C 
HETATM    9  O2  UNL     1      27.328   2.306  51.879  1.00  0.00    -0.268 OA
HETATM   10  C15 UNL     1      23.804   3.086  52.599  1.00  0.00     0.074 C 
HETATM   11  C16 UNL     1      23.462   4.359  53.054  1.00  0.00     0.012 C 
HETATM   12  C17 UNL     1      22.712   5.095  51.946  1.00  0.00     0.088 C 
ENDROOT
BRANCH   6  13
HETATM   13  N2  UNL     1      26.822   3.587  50.145  1.00  0.00    -0.379 N 
HETATM   14  C8  UNL     1      26.785   4.600  49.077  1.00  0.00     0.147 C 
HETATM   15  H8  UNL     1      27.745   3.122  50.371  1.00  0.00     0.160 HD
ENDBRANCH   6  13
BRANCH   8  16
HETATM   16  C10 UNL     1      26.435   1.621  54.035  1.00  0.00     0.073 C 
HETATM   17  C11 UNL     1      26.726   0.356  54.270  1.00  0.00     0.008 C 
BRANCH  17  18
HETATM   18  C12 UNL     1      27.088  -0.760  53.378  1.00  0.00     0.299 C 
BRANCH  18  19
HETATM   19  N4  UNL     1      28.535  -0.852  53.192  1.00  0.00     0.083 N 
HETATM   20  C13 UNL     1      28.880  -2.269  53.109  1.00  0.00     0.309 C 
HETATM   21  C14 UNL     1      29.239  -0.199  54.271  1.00  0.00     0.309 C 
ENDBRANCH  18  19
ENDBRANCH  17  18
ENDBRANCH   8  16
BRANCH   1  22
HETATM   22  O1  UNL     1      22.247   0.842  51.419  1.00  0.00    -0.349 OA
BRANCH  22  23
HETATM   23  C2  UNL     1      21.934  -0.132  52.428  1.00  0.00     0.171 C 
HETATM   24  C1  UNL     1      23.132  -0.487  53.232  1.00  0.00     0.034 C 
ENDBRANCH  22  23
ENDBRANCH   1  22
TORSDOF 6
ENDMDL
MODEL 3
REMARK VINA RESULT:      -6.3      1.812      3.359
REMARK  6 active torsions:
REMARK  status: ('A' for Active; 'I' for Inactive)
REMARK    1  A    between atoms: C2_2  and  O1_3 
REMARK    2  A    between atoms: O1_3  and  C3_4 
REMARK    3  A    between atoms: C7_9  and  N2_10 
REMARK       I    between atoms: N3_12  and  C9_13 
REMARK    4  A    between atoms: C9_13  and  C10_15 
REMARK    5  A    between atoms: C11_16  and  C12_17 
REMARK    6  A    between atoms: C12_17  and  N4_18 
ROOT
HETATM    1  C3  UNL     1      21.780   3.112  51.472  1.00  0.00     0.097 C 
HETATM    2  C4  UNL     1      20.693   3.312  50.666  1.00  0.00     0.066 C 
HETATM    3  C5  UNL     1      20.115   1.945  51.342  1.00  0.00     0.040 C 
HETATM    4  N1  UNL     1      19.633   1.315  52.492  1.00  0.00    -0.261 NA
HETATM    5  C6  UNL     1      20.733   0.755  53.425  1.00  0.00     0.165 C 
HETATM    6  C7  UNL     1      22.124   0.379  53.284  1.00  0.00     0.128 C 
HETATM    7  N3  UNL     1      23.104   0.999  52.227  1.00  0.00    -0.261 N 
HETATM    8  C9  UNL     1      24.407   0.718  52.633  1.00  0.00     0.253 C 
HETATM    9  O2  UNL     1      24.380   0.065  53.693  1.00  0.00    -0.268 OA
HETATM   10  C15 UNL     1      22.327   1.699  51.113  1.00  0.00     0.074 C 
HETATM   11  C16 UNL     1      21.783   0.933  50.082  1.00  0.00     0.012 C 
HETATM   12  C17 UNL     1      20.272   0.836  50.284  1.00  0.00     0.088 C 
ENDROOT
BRANCH   6  13
HETATM   13  N2  UNL     1      22.354  -0.612  54.281  1.00  0.00    -0.379 N 
HETATM   14  C8  UNL     1      21.226  -1.525  54.524  1.00  0.00     0.147 C 
HETATM   15  H8  UNL     1      23.242  -0.741  54.844  1.00  0.00     0.160 HD
ENDBRANCH   6  13
BRANCH   8  16
HETATM   16  C10 UNL     1      25.536   1.168  51.860  1.00  0.00     0.073 C 
HETATM   17  C11 UNL     1      26.734   0.618  51.914  1.00  0.00     0.008 C 
BRANCH  17  18
HETATM   18  C12 UNL     1      27.271  -0.514  52.690  1.00  0.00     0.299 C 
BRANCH  18  19
HETATM   19  N4  UNL     1      28.442  -0.121  53.473  1.00  0.00     0.083 N 
HETATM   20  C13 UNL     1      29.413  -1.210  53.391  1.00  0.00     0.309 C 
HETATM   21  C14 UNL     1      28.080   0.162  54.841  1.00  0.00     0.309 C 
ENDBRANCH  18  19
ENDBRANCH  17  18
ENDBRANCH   8  16
BRANCH   1  22
HETATM   22  O1  UNL     1      21.748   4.417  52.176  1.00  0.00    -0.349 OA
BRANCH  22  23
HETATM   23  C2  UNL     1      23.035   5.054  52.236  1.00  0.00     0.171 C 
HETATM   24  C1  UNL     1      23.928   4.386  53.216  1.00  0.00     0.034 C 
ENDBRANCH  22  23
ENDBRANCH   1  22
TORSDOF 6
ENDMDL
MODEL 4
REMARK VINA RESULT:      -6.1      1.879      3.415
REMARK  6 active torsions:
REMARK  status: ('A' for Active; 'I' for Inactive)
REMARK    1  A    between atoms: C2_2  and  O1_3 
REMARK    2  A    between atoms: O1_3  and  C3_4 
REMARK    3  A    between atoms: C7_9  and  N2_10 
REMARK       I    between atoms: N3_12  and  C9_13 
REMARK    4  A    between atoms: C9_13  and  C10_15 
REMARK    5  A    between atoms: C11_16  and  C12_17 
REMARK    6  A    between atoms: C12_17  and  N4_18 
ROOT
HETATM    1  C3  UNL     1      21.415   0.297  52.765  1.00  0.00     0.097 C 
HETATM    2  C4  UNL     1      20.089   0.127  53.054  1.00  0.00     0.066 C 
HETATM    3  C5  UNL     1      19.827   0.789  51.587  1.00  0.00     0.040 C 
HETATM    4  N1  UNL     1      19.940   0.657  50.201  1.00  0.00    -0.261 NA
HETATM    5  C6  UNL     1      21.315   1.078  49.628  1.00  0.00     0.165 C 
HETATM    6  C7  UNL     1      22.415   1.908  50.068  1.00  0.00     0.128 C 
HETATM    7  N3  UNL     1      22.777   2.170  51.572  1.00  0.00    -0.261 N 
HETATM    8  C9  UNL     1      24.084   2.653  51.621  1.00  0.00     0.253 C 
HETATM    9  O2  UNL     1      24.543   2.729  50.466  1.00  0.00    -0.268 OA
HETATM   10  C15 UNL     1      21.602   1.817  52.482  1.00  0.00     0.074 C 
HETATM   11  C16 UNL     1      20.559   2.732  52.628  1.00  0.00     0.012 C 
HETATM   12  C17 UNL     1      19.350   2.232  51.840  1.00  0.00     0.088 C 
ENDROOT
BRANCH   6  13
HETATM   13  N2  UNL     1      23.039   2.379  48.877  1.00  0.00    -0.379 N 
HETATM   14  C8  UNL     1      22.251   2.198  47.647  1.00  0.00     0.147 C 
HETATM   15  H8  UNL     1      23.994   2.832  48.806  1.00  0.00     0.160 HD
ENDBRANCH   6  13
BRANCH   8  16
HETATM   16  C10 UNL     1      24.703   2.982  52.879  1.00  0.00     0.073 C 
HETATM   17  C11 UNL     1      25.311   2.103  53.654  1.00  0.00     0.008 C 
BRANCH  17  18
HETATM   18  C12 UNL     1      25.539   0.654  53.520  1.00  0.00     0.299 C 
BRANCH  18  19
HETATM   19  N4  UNL     1      26.952   0.350  53.301  1.00  0.00     0.083 N 
HETATM   20  C13 UNL     1      27.027  -0.951  52.641  1.00  0.00     0.309 C 
HETATM   21  C14 UNL     1      27.683   0.354  54.546  1.00  0.00     0.309 C 
ENDBRANCH  18  19
ENDBRANCH  17  18
ENDBRANCH   8  16
BRANCH   1  22
HETATM   22  O1  UNL     1      21.838  -1.114  52.931  1.00  0.00    -0.349 OA
BRANCH  22  23
HETATM   23  C2  UNL     1      21.626  -1.611  54.263  1.00  0.00     0.171 C 
HETATM   24  C1  UNL     1      22.755  -1.258  55.161  1.00  0.00     0.034 C 
ENDBRANCH  22  23
ENDBRANCH   1  22
TORSDOF 6
ENDMDL
MODEL 5
REMARK VINA RESULT:      -6.0      2.183      3.869
REMARK  6 active torsions:
REMARK  status: ('A' for Active; 'I' for Inactive)
REMARK    1  A    between atoms: C2_2  and  O1_3 
REMARK    2  A    between atoms: O1_3  and  C3_4 
REMARK    3  A    between atoms: C7_9  and  N2_10 
REMARK       I    between atoms: N3_12  and  C9_13 
REMARK    4  A    between atoms: C9_13  and  C10_15 
REMARK    5  A    between atoms: C11_16  and  C12_17 
REMARK    6  A    between atoms: C12_17  and  N4_18 
ROOT
HETATM    1  C3  UNL     1      22.351   2.419  51.988  1.00  0.00     0.097 C 
HETATM    2  C4  UNL     1      21.368   3.369  52.044  1.00  0.00     0.066 C 
HETATM    3  C5  UNL     1      22.342   4.236  51.065  1.00  0.00     0.040 C 
HETATM    4  N1  UNL     1      22.930   4.362  49.804  1.00  0.00    -0.261 NA
HETATM    5  C6  UNL     1      24.243   3.562  49.626  1.00  0.00     0.165 C 
HETATM    6  C7  UNL     1      25.240   2.990  50.505  1.00  0.00     0.128 C 
HETATM    7  N3  UNL     1      24.955   2.514  51.973  1.00  0.00    -0.261 N 
HETATM    8  C9  UNL     1      25.996   1.673  52.361  1.00  0.00     0.253 C 
HETATM    9  O2  UNL     1      26.818   1.573  51.431  1.00  0.00    -0.268 OA
HETATM   10  C15 UNL     1      23.650   3.114  52.493  1.00  0.00     0.074 C 
HETATM   11  C16 UNL     1      23.651   4.423  52.974  1.00  0.00     0.012 C 
HETATM   12  C17 UNL     1      22.981   5.329  51.943  1.00  0.00     0.088 C 
ENDROOT
BRANCH   6  13
HETATM   13  N2  UNL     1      26.447   2.966  49.749  1.00  0.00    -0.379 N 
HETATM   14  C8  UNL     1      26.845   4.260  49.170  1.00  0.00     0.147 C 
HETATM   15  H8  UNL     1      27.062   2.121  49.575  1.00  0.00     0.160 HD
ENDBRANCH   6  13
BRANCH   8  16
HETATM   16  C10 UNL     1      26.010   1.069  53.669  1.00  0.00     0.073 C 
HETATM   17  C11 UNL     1      25.162   0.135  54.059  1.00  0.00     0.008 C 
BRANCH  17  18
HETATM   18  C12 UNL     1      24.041  -0.534  53.376  1.00  0.00     0.299 C 
BRANCH  18  19
HETATM   19  N4  UNL     1      22.900  -0.720  54.272  1.00  0.00     0.083 N 
HETATM   20  C13 UNL     1      23.393  -1.366  55.486  1.00  0.00     0.309 C 
HETATM   21  C14 UNL     1      21.866  -1.503  53.638  1.00  0.00     0.309 C 
ENDBRANCH  18  19
ENDBRANCH  17  18
ENDBRANCH   8  16
BRANCH   1  22
HETATM   22  O1  UNL     1      21.518   1.300  51.485  1.00  0.00    -0.349 OA
BRANCH  22  23
HETATM   23  C2  UNL     1      20.128   1.438  51.823  1.00  0.00     0.171 C 
HETATM   24  C1  UNL     1      19.375   0.187  51.550  1.00  0.00     0.034 C 
ENDBRANCH  22  23
ENDBRANCH   1  22
TORSDOF 6
ENDMDL
MODEL 6
REMARK VINA RESULT:      -5.9      2.393      3.621
REMARK  6 active torsions:
REMARK  status: ('A' for Active; 'I' for Inactive)
REMARK    1  A    between atoms: C2_2  and  O1_3 
REMARK    2  A    between atoms: O1_3  and  C3_4 
REMARK    3  A    between atoms: C7_9  and  N2_10 
REMARK       I    between atoms: N3_12  and  C9_13 
REMARK    4  A    between atoms: C9_13  and  C10_15 
REMARK    5  A    between atoms: C11_16  and  C12_17 
REMARK    6  A    between atoms: C12_17  and  N4_18 
ROOT
HETATM    1  C3  UNL     1      22.532   3.744  49.772  1.00  0.00     0.097 C 
HETATM    2  C4  UNL     1      21.567   4.714  49.744  1.00  0.00     0.066 C 
HETATM    3  C5  UNL     1      22.816   5.755  49.617  1.00  0.00     0.040 C 
HETATM    4  N1  UNL     1      23.871   6.237  48.838  1.00  0.00    -0.261 NA
HETATM    5  C6  UNL     1      25.177   5.414  48.950  1.00  0.00     0.165 C 
HETATM    6  C7  UNL     1      25.742   4.484  49.904  1.00  0.00     0.128 C 
HETATM    7  N3  UNL     1      24.893   3.575  50.860  1.00  0.00    -0.261 N 
HETATM    8  C9  UNL     1      25.718   2.552  51.325  1.00  0.00     0.253 C 
HETATM    9  O2  UNL     1      26.858   2.686  50.842  1.00  0.00    -0.268 OA
HETATM   10  C15 UNL     1      23.461   4.094  50.972  1.00  0.00     0.074 C 
HETATM   11  C16 UNL     1      23.192   5.160  51.831  1.00  0.00     0.012 C 
HETATM   12  C17 UNL     1      22.970   6.421  50.999  1.00  0.00     0.088 C 
ENDROOT
BRANCH   6  13
HETATM   13  N2  UNL     1      27.154   4.592  49.753  1.00  0.00    -0.379 N 
HETATM   14  C8  UNL     1      27.599   5.305  48.544  1.00  0.00     0.147 C 
HETATM   15  H8  UNL     1      27.887   4.214  50.417  1.00  0.00     0.160 HD
ENDBRANCH   6  13
BRANCH   8  16
HETATM   16  C10 UNL     1      25.214   1.547  52.225  1.00  0.00     0.073 C 
HETATM   17  C11 UNL     1      25.957   0.599  52.763  1.00  0.00     0.008 C 
BRANCH  17  18
HETATM   18  C12 UNL     1      27.390   0.276  52.646  1.00  0.00     0.299 C 
BRANCH  18  19
HETATM   19  N4  UNL     1      28.120   0.617  53.865  1.00  0.00     0.083 N 
HETATM   20  C13 UNL     1      28.574   2.000  53.735  1.00  0.00     0.309 C 
HETATM   21  C14 UNL     1      29.227  -0.285  54.076  1.00  0.00     0.309 C 
ENDBRANCH  18  19
ENDBRANCH  17  18
ENDBRANCH   8  16
BRANCH   1  22
HETATM   22  O1  UNL     1      22.046   2.948  48.619  1.00  0.00    -0.349 OA
BRANCH  22  23
HETATM   23  C2  UNL     1      21.137   1.902  49.002  1.00  0.00     0.171 C 
HETATM   24  C1  UNL     1      21.714   1.041  50.065  1.00  0.00     0.034 C 
ENDBRANCH  22  23
ENDBRANCH   1  22
TORSDOF 6
ENDMDL
MODEL 7
REMARK VINA RESULT:      -5.8      9.937     12.841
REMARK  6 active torsions:
REMARK  status: ('A' for Active; 'I' for Inactive)
REMARK    1  A    between atoms: C2_2  and  O1_3 
REMARK    2  A    between atoms: O1_3  and  C3_4 
REMARK    3  A    between atoms: C7_9  and  N2_10 
REMARK       I    between atoms: N3_12  and  C9_13 
REMARK    4  A    between atoms: C9_13  and  C10_15 
REMARK    5  A    between atoms: C11_16  and  C12_17 
REMARK    6  A    between atoms: C12_17  and  N4_18 
ROOT
HETATM    1  C3  UNL     1      32.328   4.794  46.963  1.00  0.00     0.097 C 
HETATM    2  C4  UNL     1      32.361   3.507  46.499  1.00  0.00     0.066 C 
HETATM    3  C5  UNL     1      33.916   3.517  46.990  1.00  0.00     0.040 C 
HETATM    4  N1  UNL     1      34.810   3.565  48.063  1.00  0.00    -0.261 NA
HETATM    5  C6  UNL     1      35.129   4.993  48.568  1.00  0.00     0.165 C 
HETATM    6  C7  UNL     1      35.044   6.331  48.024  1.00  0.00     0.128 C 
HETATM    7  N3  UNL     1      34.022   6.773  46.919  1.00  0.00    -0.261 N 
HETATM    8  C9  UNL     1      33.947   8.164  46.935  1.00  0.00     0.253 C 
HETATM    9  O2  UNL     1      34.713   8.612  47.809  1.00  0.00    -0.268 OA
HETATM   10  C15 UNL     1      33.449   5.557  46.195  1.00  0.00     0.074 C 
HETATM   11  C16 UNL     1      34.199   4.952  45.186  1.00  0.00     0.012 C 
HETATM   12  C17 UNL     1      34.775   3.641  45.716  1.00  0.00     0.088 C 
ENDROOT
BRANCH   6  13
HETATM   13  N2  UNL     1      36.043   7.085  48.707  1.00  0.00    -0.379 N 
HETATM   14  C8  UNL     1      36.890   6.307  49.626  1.00  0.00     0.147 C 
HETATM   15  H8  UNL     1      36.220   8.124  48.610  1.00  0.00     0.160 HD
ENDBRANCH   6  13
BRANCH   8  16
HETATM   16  C10 UNL     1      33.077   8.868  46.028  1.00  0.00     0.073 C 
HETATM   17  C11 UNL     1      31.933   9.420  46.383  1.00  0.00     0.008 C 
BRANCH  17  18
HETATM   18  C12 UNL     1      31.228   9.501  47.674  1.00  0.00     0.299 C 
BRANCH  18  19
HETATM   19  N4  UNL     1      30.190  10.529  47.658  1.00  0.00     0.083 N 
HETATM   20  C13 UNL     1      30.845  11.815  47.434  1.00  0.00     0.309 C 
HETATM   21  C14 UNL     1      29.438  10.527  48.891  1.00  0.00     0.309 C 
ENDBRANCH  18  19
ENDBRANCH  17  18
ENDBRANCH   8  16
BRANCH   1  22
HETATM   22  O1  UNL     1      31.201   4.634  47.912  1.00  0.00    -0.349 OA
BRANCH  22  23
HETATM   23  C2  UNL     1      30.841   5.862  48.568  1.00  0.00     0.171 C 
HETATM   24  C1  UNL     1      31.774   6.178  49.680  1.00  0.00     0.034 C 
ENDBRANCH  22  23
ENDBRANCH   1  22
TORSDOF 6
ENDMDL
MODEL 8
REMARK VINA RESULT:      -5.8      9.402     12.307
REMARK  6 active torsions:
REMARK  status: ('A' for Active; 'I' for Inactive)
REMARK    1  A    between atoms: C2_2  and  O1_3 
REMARK    2  A    between atoms: O1_3  and  C3_4 
REMARK    3  A    between atoms: C7_9  and  N2_10 
REMARK       I    between atoms: N3_12  and  C9_13 
REMARK    4  A    between atoms: C9_13  and  C10_15 
REMARK    5  A    between atoms: C11_16  and  C12_17 
REMARK    6  A    between atoms: C12_17  and  N4_18 
ROOT
HETATM    1  C3  UNL     1      34.331   5.504  47.932  1.00  0.00     0.097 C 
HETATM    2  C4  UNL     1      34.916   4.296  48.192  1.00  0.00     0.066 C 
HETATM    3  C5  UNL     1      34.550   3.941  46.643  1.00  0.00     0.040 C 
HETATM    4  N1  UNL     1      34.784   4.201  45.290  1.00  0.00    -0.261 NA
HETATM    5  C6  UNL     1      33.980   5.393  44.719  1.00  0.00     0.165 C 
HETATM    6  C7  UNL     1      32.778   6.109  45.088  1.00  0.00     0.128 C 
HETATM    7  N3  UNL     1      32.244   6.242  46.557  1.00  0.00    -0.261 N 
HETATM    8  C9  UNL     1      31.337   7.299  46.591  1.00  0.00     0.253 C 
HETATM    9  O2  UNL     1      31.234   7.795  45.453  1.00  0.00    -0.268 OA
HETATM   10  C15 UNL     1      32.880   5.188  47.461  1.00  0.00     0.074 C 
HETATM   11  C16 UNL     1      32.372   3.889  47.449  1.00  0.00     0.012 C 
HETATM   12  C17 UNL     1      33.341   2.986  46.689  1.00  0.00     0.088 C 
ENDROOT
BRANCH   6  13
HETATM   13  N2  UNL     1      32.254   6.629  43.869  1.00  0.00    -0.379 N 
HETATM   14  C8  UNL     1      32.840   6.059  42.645  1.00  0.00     0.147 C 
HETATM   15  H8  UNL     1      31.501   7.369  43.775  1.00  0.00     0.160 HD
ENDBRANCH   6  13
BRANCH   8  16
HETATM   16  C10 UNL     1      30.680   7.670  47.818  1.00  0.00     0.073 C 
HETATM   17  C11 UNL     1      29.758   6.936  48.411  1.00  0.00     0.008 C 
BRANCH  17  18
HETATM   18  C12 UNL     1      29.152   5.638  48.069  1.00  0.00     0.299 C 
BRANCH  18  19
HETATM   19  N4  UNL     1      27.694   5.679  48.179  1.00  0.00     0.083 N 
HETATM   20  C13 UNL     1      27.330   6.975  48.746  1.00  0.00     0.309 C 
HETATM   21  C14 UNL     1      27.205   4.590  48.992  1.00  0.00     0.309 C 
ENDBRANCH  18  19
ENDBRANCH  17  18
ENDBRANCH   8  16
BRANCH   1  22
HETATM   22  O1  UNL     1      35.482   6.365  48.295  1.00  0.00    -0.349 OA
BRANCH  22  23
HETATM   23  C2  UNL     1      35.110   7.735  48.525  1.00  0.00     0.171 C 
HETATM   24  C1  UNL     1      34.928   8.470  47.247  1.00  0.00     0.034 C 
ENDBRANCH  22  23
ENDBRANCH   1  22
TORSDOF 6
ENDMDL
MODEL 9
REMARK VINA RESULT:      -5.8      2.067      4.229
REMARK  6 active torsions:
REMARK  status: ('A' for Active; 'I' for Inactive)
REMARK    1  A    between atoms: C2_2  and  O1_3 
REMARK    2  A    between atoms: O1_3  and  C3_4 
REMARK    3  A    between atoms: C7_9  and  N2_10 
REMARK       I    between atoms: N3_12  and  C9_13 
REMARK    4  A    between atoms: C9_13  and  C10_15 
REMARK    5  A    between atoms: C11_16  and  C12_17 
REMARK    6  A    between atoms: C12_17  and  N4_18 
ROOT
HETATM    1  C3  UNL     1      23.289   2.718  50.085  1.00  0.00     0.097 C 
HETATM    2  C4  UNL     1      23.574   3.064  48.793  1.00  0.00     0.066 C 
HETATM    3  C5  UNL     1      21.999   3.475  48.701  1.00  0.00     0.040 C 
HETATM    4  N1  UNL     1      20.983   4.340  49.117  1.00  0.00    -0.261 NA
HETATM    5  C6  UNL     1      20.322   3.951  50.461  1.00  0.00     0.165 C 
HETATM    6  C7  UNL     1      20.206   2.745  51.253  1.00  0.00     0.128 C 
HETATM    7  N3  UNL     1      21.252   1.576  51.240  1.00  0.00    -0.261 N 
HETATM    8  C9  UNL     1      21.044   0.801  52.380  1.00  0.00     0.253 C 
HETATM    9  O2  UNL     1      20.098   1.275  53.038  1.00  0.00    -0.268 OA
HETATM   10  C15 UNL     1      22.146   1.662  50.005  1.00  0.00     0.074 C 
HETATM   11  C16 UNL     1      21.669   1.178  48.788  1.00  0.00     0.012 C 
HETATM   12  C17 UNL     1      21.304   2.361  47.894  1.00  0.00     0.088 C 
ENDROOT
BRANCH   6  13
HETATM   13  N2  UNL     1      18.997   2.889  51.994  1.00  0.00    -0.379 N 
HETATM   14  C8  UNL     1      17.972   3.731  51.355  1.00  0.00     0.147 C 
HETATM   15  H8  UNL     1      18.783   2.455  52.935  1.00  0.00     0.160 HD
ENDBRANCH   6  13
BRANCH   8  16
HETATM   16  C10 UNL     1      21.864  -0.352  52.651  1.00  0.00     0.073 C 
HETATM   17  C11 UNL     1      23.126  -0.286  53.029  1.00  0.00     0.008 C 
BRANCH  17  18
HETATM   18  C12 UNL     1      24.029   0.851  53.278  1.00  0.00     0.299 C 
BRANCH  18  19
HETATM   19  N4  UNL     1      25.333   0.649  52.648  1.00  0.00     0.083 N 
HETATM   20  C13 UNL     1      25.817  -0.670  53.047  1.00  0.00     0.309 C 
HETATM   21  C14 UNL     1      26.259   1.689  53.030  1.00  0.00     0.309 C 
ENDBRANCH  18  19
ENDBRANCH  17  18
ENDBRANCH   8  16
BRANCH   1  22
HETATM   22  O1  UNL     1      24.294   3.582  50.749  1.00  0.00    -0.349 OA
BRANCH  22  23
HETATM   23  C2  UNL     1      23.760   4.305  51.871  1.00  0.00     0.171 C 
HETATM   24  C1  UNL     1      23.503   5.728  51.529  1.00  0.00     0.034 C 
ENDBRANCH  22  23
ENDBRANCH   1  22
TORSDOF 6
ENDMDL
