MODEL 1
REMARK VINA RESULT:      -8.8      0.000      0.000
REMARK  5 active torsions:
REMARK  status: ('A' for Active; 'I' for Inactive)
REMARK    1  A    between atoms: C2_2  and  C4_4 
REMARK    2  A    between atoms: C2_2  and  C5_6 
REMARK    3  A    between atoms: C4_4  and  O1_5 
REMARK    4  A    between atoms: C7_8  and  C8_9 
REMARK    5  A    between atoms: C9_10  and  C11_13 
REMARK       I    between atoms: C11_13  and  N2_14 
ROOT
HETATM    1  C8  UNL     1      27.104  -0.658  53.220  1.00  0.00     0.039 C 
HETATM    2  C9  UNL     1      28.292  -0.350  53.661  1.00  0.00     0.112 C 
HETATM    3  C10 UNL     1      28.793   0.857  54.241  1.00  0.00     0.105 C 
HETATM    4  N1  UNL     1      29.183   1.839  54.698  1.00  0.00    -0.191 NA
ENDROOT
BRANCH   2   5
HETATM    5  C11 UNL     1      29.317  -1.417  53.543  1.00  0.00     0.260 C 
HETATM    6  N2  UNL     1      28.808  -2.664  53.131  1.00  0.00    -0.365 N 
HETATM    7  H12 UNL     1      28.451  -3.577  52.870  1.00  0.00     0.159 HD
HETATM    8  H13 UNL     1      28.367  -3.328  52.474  1.00  0.00     0.159 HD
HETATM    9  O2  UNL     1      30.525  -1.249  53.781  1.00  0.00    -0.267 OA
ENDBRANCH   2   5
BRANCH   1  10
HETATM   10  C7  UNL     1      25.795  -0.107  53.060  1.00  0.00    -0.034 A 
HETATM   11  C6  UNL     1      24.642  -0.607  53.684  1.00  0.00     0.020 A 
HETATM   12  C5  UNL     1      23.366  -0.103  53.559  1.00  0.00    -0.040 A 
HETATM   13  C14 UNL     1      23.274   1.001  52.724  1.00  0.00    -0.043 A 
HETATM   14  C13 UNL     1      24.352   1.523  52.097  1.00  0.00    -0.042 A 
HETATM   15  C15 UNL     1      22.375   1.988  52.153  1.00  0.00     0.053 A 
HETATM   16  C12 UNL     1      25.613   0.991  52.249  1.00  0.00     0.020 A 
HETATM   17  C16 UNL     1      23.571   2.563  51.460  1.00  0.00    -0.016 A 
HETATM   18  C17 UNL     1      23.980   3.944  51.927  1.00  0.00     0.020 C 
HETATM   19  C18 UNL     1      23.536   2.416  49.947  1.00  0.00     0.020 C 
BRANCH  12  20
HETATM   20  C2  UNL     1      22.301  -0.802  54.320  1.00  0.00     0.001 C 
HETATM   21  C1  UNL     1      21.601  -1.832  53.416  1.00  0.00     0.022 C 
HETATM   22  C3  UNL     1      22.780  -1.547  55.520  1.00  0.00     0.022 C 
BRANCH  20  23
HETATM   23  C4  UNL     1      21.187   0.137  54.760  1.00  0.00     0.177 C 
BRANCH  23  24
HETATM   24  O1  UNL     1      19.988  -0.337  54.303  1.00  0.00    -0.400 OA
HETATM   25  H9  UNL     1      19.351  -0.545  55.047  1.00  0.00     0.209 HD
ENDBRANCH  23  24
ENDBRANCH  20  23
ENDBRANCH  12  20
ENDBRANCH   1  10
TORSDOF 5
ENDMDL
MODEL 2
REMARK VINA RESULT:      -8.6      1.683      2.446
REMARK  5 active torsions:
REMARK  status: ('A' for Active; 'I' for Inactive)
REMARK    1  A    between atoms: C2_2  and  C4_4 
REMARK    2  A    between atoms: C2_2  and  C5_6 
REMARK    3  A    between atoms: C4_4  and  O1_5 
REMARK    4  A    between atoms: C7_8  and  C8_9 
REMARK    5  A    between atoms: C9_10  and  C11_13 
REMARK       I    between atoms: C11_13  and  N2_14 
ROOT
HETATM    1  C8  UNL     1      26.351   1.329  52.798  1.00  0.00     0.039 C 
HETATM    2  C9  UNL     1      27.437   0.636  53.005  1.00  0.00     0.112 C 
HETATM    3  C10 UNL     1      27.648  -0.774  53.086  1.00  0.00     0.105 C 
HETATM    4  N1  UNL     1      27.799  -1.914  53.157  1.00  0.00    -0.191 NA
ENDROOT
BRANCH   2   5
HETATM    5  C11 UNL     1      28.675   1.430  53.202  1.00  0.00     0.260 C 
HETATM    6  N2  UNL     1      29.793   0.669  53.595  1.00  0.00    -0.365 N 
HETATM    7  H12 UNL     1      30.599   0.140  53.914  1.00  0.00     0.159 HD
HETATM    8  H13 UNL     1      30.536  -0.039  53.479  1.00  0.00     0.159 HD
HETATM    9  O2  UNL     1      28.746   2.660  53.038  1.00  0.00    -0.267 OA
ENDBRANCH   2   5
BRANCH   1  10
HETATM   10  C7  UNL     1      24.951   1.166  52.564  1.00  0.00    -0.034 A 
HETATM   11  C6  UNL     1      24.091   0.415  53.379  1.00  0.00     0.020 A 
HETATM   12  C5  UNL     1      22.738   0.237  53.190  1.00  0.00    -0.040 A 
HETATM   13  C14 UNL     1      22.235   0.884  52.071  1.00  0.00    -0.043 A 
HETATM   14  C13 UNL     1      23.017   1.619  51.250  1.00  0.00    -0.042 A 
HETATM   15  C15 UNL     1      21.041   1.151  51.289  1.00  0.00     0.053 A 
HETATM   16  C12 UNL     1      24.368   1.774  51.474  1.00  0.00     0.020 A 
HETATM   17  C16 UNL     1      21.911   1.964  50.382  1.00  0.00    -0.016 A 
HETATM   18  C17 UNL     1      21.630   3.452  50.388  1.00  0.00     0.020 C 
HETATM   19  C18 UNL     1      22.065   1.377  48.987  1.00  0.00     0.020 C 
BRANCH  12  20
HETATM   20  C2  UNL     1      22.035  -0.603  54.191  1.00  0.00     0.001 C 
HETATM   21  C1  UNL     1      20.869   0.187  54.812  1.00  0.00     0.022 C 
HETATM   22  C3  UNL     1      21.450  -1.862  53.647  1.00  0.00     0.022 C 
BRANCH  20  23
HETATM   23  C4  UNL     1      22.921  -0.965  55.374  1.00  0.00     0.177 C 
BRANCH  23  24
HETATM   24  O1  UNL     1      22.730  -2.280  55.698  1.00  0.00    -0.400 OA
HETATM   25  H9  UNL     1      23.277  -2.897  55.129  1.00  0.00     0.209 HD
ENDBRANCH  23  24
ENDBRANCH  20  23
ENDBRANCH  12  20
ENDBRANCH   1  10
TORSDOF 5
ENDMDL
MODEL 3
REMARK VINA RESULT:      -8.5      1.875      3.939
REMARK  5 active torsions:
REMARK  status: ('A' for Active; 'I' for Inactive)
REMARK    1  A    between atoms: C2_2  and  C4_4 
REMARK    2  A    between atoms: C2_2  and  C5_6 
REMARK    3  A    between atoms: C4_4  and  O1_5 
REMARK    4  A    between atoms: C7_8  and  C8_9 
REMARK    5  A    between atoms: C9_10  and  C11_13 
REMARK       I    between atoms: C11_13  and  N2_14 
ROOT
HETATM    1  C8  UNL     1      26.992  -0.317  53.076  1.00  0.00     0.039 C 
HETATM    2  C9  UNL     1      28.152   0.160  53.435  1.00  0.00     0.112 C 
HETATM    3  C10 UNL     1      28.549   1.483  53.800  1.00  0.00     0.105 C 
HETATM    4  N1  UNL     1      28.855   2.557  54.083  1.00  0.00    -0.191 NA
ENDROOT
BRANCH   2   5
HETATM    5  C11 UNL     1      29.265  -0.821  53.470  1.00  0.00     0.260 C 
HETATM    6  N2  UNL     1      30.548  -0.240  53.436  1.00  0.00    -0.365 N 
HETATM    7  H12 UNL     1      31.478   0.161  53.376  1.00  0.00     0.159 HD
HETATM    8  H13 UNL     1      31.334   0.323  53.799  1.00  0.00     0.159 HD
HETATM    9  O2  UNL     1      29.105  -2.052  53.525  1.00  0.00    -0.267 OA
ENDBRANCH   2   5
BRANCH   1  10
HETATM   10  C7  UNL     1      25.639   0.087  52.857  1.00  0.00    -0.034 A 
HETATM   11  C6  UNL     1      25.249   1.138  52.014  1.00  0.00     0.020 A 
HETATM   12  C5  UNL     1      23.958   1.554  51.773  1.00  0.00    -0.040 A 
HETATM   13  C14 UNL     1      22.995   0.828  52.459  1.00  0.00    -0.043 A 
HETATM   14  C13 UNL     1      23.313  -0.193  53.285  1.00  0.00    -0.042 A 
HETATM   15  C15 UNL     1      21.572   0.673  52.701  1.00  0.00     0.053 A 
HETATM   16  C12 UNL     1      24.618  -0.580  53.498  1.00  0.00     0.020 A 
HETATM   17  C16 UNL     1      21.928  -0.457  53.615  1.00  0.00    -0.016 A 
HETATM   18  C17 UNL     1      21.485  -1.826  53.144  1.00  0.00     0.020 C 
HETATM   19  C18 UNL     1      21.620  -0.185  55.079  1.00  0.00     0.020 C 
BRANCH  12  20
HETATM   20  C2  UNL     1      23.793   2.693  50.837  1.00  0.00     0.001 C 
HETATM   21  C1  UNL     1      25.146   3.041  50.192  1.00  0.00     0.022 C 
HETATM   22  C3  UNL     1      22.841   2.444  49.716  1.00  0.00     0.022 C 
BRANCH  20  23
HETATM   23  C4  UNL     1      23.368   3.971  51.544  1.00  0.00     0.177 C 
BRANCH  23  24
HETATM   24  O1  UNL     1      24.402   4.867  51.522  1.00  0.00    -0.400 OA
HETATM   25  H9  UNL     1      25.224   4.511  51.969  1.00  0.00     0.209 HD
ENDBRANCH  23  24
ENDBRANCH  20  23
ENDBRANCH  12  20
ENDBRANCH   1  10
TORSDOF 5
ENDMDL
MODEL 4
REMARK VINA RESULT:      -8.4      1.911      4.217
REMARK  5 active torsions:
REMARK  status: ('A' for Active; 'I' for Inactive)
REMARK    1  A    between atoms: C2_2  and  C4_4 
REMARK    2  A    between atoms: C2_2  and  C5_6 
REMARK    3  A    between atoms: C4_4  and  O1_5 
REMARK    4  A    between atoms: C7_8  and  C8_9 
REMARK    5  A    between atoms: C9_10  and  C11_13 
REMARK       I    between atoms: C11_13  and  N2_14 
ROOT
HETATM    1  C8  UNL     1      26.352   1.405  53.055  1.00  0.00     0.039 C 
HETATM    2  C9  UNL     1      27.444   0.722  53.266  1.00  0.00     0.112 C 
HETATM    3  C10 UNL     1      27.698  -0.683  53.203  1.00  0.00     0.105 C 
HETATM    4  N1  UNL     1      27.883  -1.819  53.156  1.00  0.00    -0.191 NA
ENDROOT
BRANCH   2   5
HETATM    5  C11 UNL     1      28.636   1.520  53.646  1.00  0.00     0.260 C 
HETATM    6  N2  UNL     1      29.856   0.826  53.534  1.00  0.00    -0.365 N 
HETATM    7  H12 UNL     1      30.740   0.327  53.492  1.00  0.00     0.159 HD
HETATM    8  H13 UNL     1      30.620   0.343  53.033  1.00  0.00     0.159 HD
HETATM    9  O2  UNL     1      28.588   2.700  54.032  1.00  0.00    -0.267 OA
ENDBRANCH   2   5
BRANCH   1  10
HETATM   10  C7  UNL     1      24.980   1.233  52.696  1.00  0.00    -0.034 A 
HETATM   11  C6  UNL     1      24.376   1.808  51.568  1.00  0.00     0.020 A 
HETATM   12  C5  UNL     1      23.061   1.663  51.186  1.00  0.00    -0.040 A 
HETATM   13  C14 UNL     1      22.311   0.863  52.036  1.00  0.00    -0.043 A 
HETATM   14  C13 UNL     1      22.841   0.285  53.137  1.00  0.00    -0.042 A 
HETATM   15  C15 UNL     1      20.999   0.293  52.281  1.00  0.00     0.053 A 
HETATM   16  C12 UNL     1      24.163   0.453  53.485  1.00  0.00     0.020 A 
HETATM   17  C16 UNL     1      21.589  -0.345  53.500  1.00  0.00    -0.016 A 
HETATM   18  C17 UNL     1      21.682  -1.856  53.451  1.00  0.00     0.020 C 
HETATM   19  C18 UNL     1      21.029   0.190  54.809  1.00  0.00     0.020 C 
BRANCH  12  20
HETATM   20  C2  UNL     1      22.649   2.370  49.948  1.00  0.00     0.001 C 
HETATM   21  C1  UNL     1      23.879   3.006  49.274  1.00  0.00     0.022 C 
HETATM   22  C3  UNL     1      22.006   1.502  48.920  1.00  0.00     0.022 C 
BRANCH  20  23
HETATM   23  C4  UNL     1      21.720   3.542  50.227  1.00  0.00     0.177 C 
BRANCH  23  24
HETATM   24  O1  UNL     1      20.421   3.130  50.104  1.00  0.00    -0.400 OA
HETATM   25  H9  UNL     1      19.804   3.623  50.719  1.00  0.00     0.209 HD
ENDBRANCH  23  24
ENDBRANCH  20  23
ENDBRANCH  12  20
ENDBRANCH   1  10
TORSDOF 5
ENDMDL
MODEL 5
REMARK VINA RESULT:      -8.3      3.936      5.639
REMARK  5 active torsions:
REMARK  status: ('A' for Active; 'I' for Inactive)
REMARK    1  A    between atoms: C2_2  and  C4_4 
REMARK    2  A    between atoms: C2_2  and  C5_6 
REMARK    3  A    between atoms: C4_4  and  O1_5 
REMARK    4  A    between atoms: C7_8  and  C8_9 
REMARK    5  A    between atoms: C9_10  and  C11_13 
REMARK       I    between atoms: C11_13  and  N2_14 
ROOT
HETATM    1  C8  UNL     1      26.749   3.836  49.755  1.00  0.00     0.039 C 
HETATM    2  C9  UNL     1      26.620   4.955  49.098  1.00  0.00     0.112 C 
HETATM    3  C10 UNL     1      25.485   5.801  48.900  1.00  0.00     0.105 C 
HETATM    4  N1  UNL     1      24.558   6.466  48.743  1.00  0.00    -0.191 NA
ENDROOT
BRANCH   2   5
HETATM    5  C11 UNL     1      27.847   5.449  48.426  1.00  0.00     0.260 C 
HETATM    6  N2  UNL     1      27.738   6.756  47.911  1.00  0.00    -0.365 N 
HETATM    7  H12 UNL     1      27.664   7.682  47.503  1.00  0.00     0.159 HD
HETATM    8  H13 UNL     1      27.629   7.781  47.967  1.00  0.00     0.159 HD
HETATM    9  O2  UNL     1      28.893   4.787  48.316  1.00  0.00    -0.267 OA
ENDBRANCH   2   5
BRANCH   1  10
HETATM   10  C7  UNL     1      25.997   2.912  50.545  1.00  0.00    -0.034 A 
HETATM   11  C6  UNL     1      26.561   1.978  51.427  1.00  0.00     0.020 A 
HETATM   12  C5  UNL     1      25.873   1.076  52.208  1.00  0.00    -0.040 A 
HETATM   13  C14 UNL     1      24.495   1.142  52.065  1.00  0.00    -0.043 A 
HETATM   14  C13 UNL     1      23.898   2.021  51.229  1.00  0.00    -0.042 A 
HETATM   15  C15 UNL     1      23.226   0.587  52.501  1.00  0.00     0.053 A 
HETATM   16  C12 UNL     1      24.622   2.910  50.465  1.00  0.00     0.020 A 
HETATM   17  C16 UNL     1      22.569   1.562  51.574  1.00  0.00    -0.016 A 
HETATM   18  C17 UNL     1      21.754   2.643  52.253  1.00  0.00     0.020 C 
HETATM   19  C18 UNL     1      21.858   0.910  50.397  1.00  0.00     0.020 C 
BRANCH  12  20
HETATM   20  C2  UNL     1      26.690   0.185  53.067  1.00  0.00     0.001 C 
HETATM   21  C1  UNL     1      26.560  -1.271  52.586  1.00  0.00     0.022 C 
HETATM   22  C3  UNL     1      28.148   0.498  53.080  1.00  0.00     0.022 C 
BRANCH  20  23
HETATM   23  C4  UNL     1      26.200   0.154  54.508  1.00  0.00     0.177 C 
BRANCH  23  24
HETATM   24  O1  UNL     1      25.579  -1.040  54.750  1.00  0.00    -0.400 OA
HETATM   25  H9  UNL     1      25.625  -1.660  53.965  1.00  0.00     0.209 HD
ENDBRANCH  23  24
ENDBRANCH  20  23
ENDBRANCH  12  20
ENDBRANCH   1  10
TORSDOF 5
ENDMDL
MODEL 6
REMARK VINA RESULT:      -8.3      3.592      6.776
REMARK  5 active torsions:
REMARK  status: ('A' for Active; 'I' for Inactive)
REMARK    1  A    between atoms: C2_2  and  C4_4 
REMARK    2  A    between atoms: C2_2  and  C5_6 
REMARK    3  A    between atoms: C4_4  and  O1_5 
REMARK    4  A    between atoms: C7_8  and  C8_9 
REMARK    5  A    between atoms: C9_10  and  C11_13 
REMARK       I    between atoms: C11_13  and  N2_14 
ROOT
HETATM    1  C8  UNL     1      21.516   0.414  52.510  1.00  0.00     0.039 C 
HETATM    2  C9  UNL     1      20.833  -0.408  53.259  1.00  0.00     0.112 C 
HETATM    3  C10 UNL     1      21.256  -1.325  54.269  1.00  0.00     0.105 C 
HETATM    4  N1  UNL     1      21.614  -2.066  55.075  1.00  0.00    -0.191 NA
ENDROOT
BRANCH   2   5
HETATM    5  C11 UNL     1      19.367  -0.413  53.034  1.00  0.00     0.260 C 
HETATM    6  N2  UNL     1      18.661  -1.322  53.845  1.00  0.00    -0.365 N 
HETATM    7  H12 UNL     1      18.142  -1.998  54.397  1.00  0.00     0.159 HD
HETATM    8  H13 UNL     1      18.297  -1.702  54.734  1.00  0.00     0.159 HD
HETATM    9  O2  UNL     1      18.788   0.313  52.208  1.00  0.00    -0.267 OA
ENDBRANCH   2   5
BRANCH   1  10
HETATM   10  C7  UNL     1      22.854   0.847  52.260  1.00  0.00    -0.034 A 
HETATM   11  C6  UNL     1      23.206   1.860  51.356  1.00  0.00     0.020 A 
HETATM   12  C5  UNL     1      24.481   2.309  51.090  1.00  0.00    -0.040 A 
HETATM   13  C14 UNL     1      25.470   1.659  51.814  1.00  0.00    -0.043 A 
HETATM   14  C13 UNL     1      25.188   0.675  52.697  1.00  0.00    -0.042 A 
HETATM   15  C15 UNL     1      26.897   1.576  52.068  1.00  0.00     0.053 A 
HETATM   16  C12 UNL     1      23.898   0.255  52.936  1.00  0.00     0.020 A 
HETATM   17  C16 UNL     1      26.581   0.487  53.045  1.00  0.00    -0.016 A 
HETATM   18  C17 UNL     1      26.853   0.828  54.495  1.00  0.00     0.020 C 
HETATM   19  C18 UNL     1      27.101  -0.882  52.632  1.00  0.00     0.020 C 
BRANCH  12  20
HETATM   20  C2  UNL     1      24.605   3.398  50.090  1.00  0.00     0.001 C 
HETATM   21  C1  UNL     1      26.017   3.388  49.476  1.00  0.00     0.022 C 
HETATM   22  C3  UNL     1      23.647   3.308  48.950  1.00  0.00     0.022 C 
BRANCH  20  23
HETATM   23  C4  UNL     1      24.471   4.780  50.713  1.00  0.00     0.177 C 
BRANCH  23  24
HETATM   24  O1  UNL     1      25.674   5.427  50.643  1.00  0.00    -0.400 OA
HETATM   25  H9  UNL     1      26.450   4.804  50.754  1.00  0.00     0.209 HD
ENDBRANCH  23  24
ENDBRANCH  20  23
ENDBRANCH  12  20
ENDBRANCH   1  10
TORSDOF 5
ENDMDL
MODEL 7
REMARK VINA RESULT:      -8.2      3.773      5.586
REMARK  5 active torsions:
REMARK  status: ('A' for Active; 'I' for Inactive)
REMARK    1  A    between atoms: C2_2  and  C4_4 
REMARK    2  A    between atoms: C2_2  and  C5_6 
REMARK    3  A    between atoms: C4_4  and  O1_5 
REMARK    4  A    between atoms: C7_8  and  C8_9 
REMARK    5  A    between atoms: C9_10  and  C11_13 
REMARK       I    between atoms: C11_13  and  N2_14 
ROOT
HETATM    1  C8  UNL     1      26.304   3.551  50.125  1.00  0.00     0.039 C 
HETATM    2  C9  UNL     1      26.010   4.569  49.364  1.00  0.00     0.112 C 
HETATM    3  C10 UNL     1      24.752   5.169  49.045  1.00  0.00     0.105 C 
HETATM    4  N1  UNL     1      23.730   5.635  48.792  1.00  0.00    -0.191 NA
ENDROOT
BRANCH   2   5
HETATM    5  C11 UNL     1      27.162   5.227  48.699  1.00  0.00     0.260 C 
HETATM    6  N2  UNL     1      26.903   6.538  48.257  1.00  0.00    -0.365 N 
HETATM    7  H12 UNL     1      26.720   7.472  47.901  1.00  0.00     0.159 HD
HETATM    8  H13 UNL     1      26.685   7.542  48.369  1.00  0.00     0.159 HD
HETATM    9  O2  UNL     1      28.270   4.688  48.536  1.00  0.00    -0.267 OA
ENDBRANCH   2   5
BRANCH   1  10
HETATM   10  C7  UNL     1      25.690   2.571  50.965  1.00  0.00    -0.034 A 
HETATM   11  C6  UNL     1      24.306   2.441  51.153  1.00  0.00     0.020 A 
HETATM   12  C5  UNL     1      23.677   1.509  51.949  1.00  0.00    -0.040 A 
HETATM   13  C14 UNL     1      24.544   0.646  52.602  1.00  0.00    -0.043 A 
HETATM   14  C13 UNL     1      25.886   0.728  52.458  1.00  0.00    -0.042 A 
HETATM   15  C15 UNL     1      24.639  -0.482  53.510  1.00  0.00     0.053 A 
HETATM   16  C12 UNL     1      26.478   1.674  51.650  1.00  0.00     0.020 A 
HETATM   17  C16 UNL     1      26.124  -0.389  53.349  1.00  0.00    -0.016 A 
HETATM   18  C17 UNL     1      26.765  -1.558  52.632  1.00  0.00     0.020 C 
HETATM   19  C18 UNL     1      26.857   0.027  54.615  1.00  0.00     0.020 C 
BRANCH  12  20
HETATM   20  C2  UNL     1      22.194   1.566  51.989  1.00  0.00     0.001 C 
HETATM   21  C1  UNL     1      21.610   0.885  50.739  1.00  0.00     0.022 C 
HETATM   22  C3  UNL     1      21.577   0.891  53.167  1.00  0.00     0.022 C 
BRANCH  20  23
HETATM   23  C4  UNL     1      21.664   2.991  51.928  1.00  0.00     0.177 C 
BRANCH  23  24
HETATM   24  O1  UNL     1      20.530   3.086  52.688  1.00  0.00    -0.400 OA
HETATM   25  H9  UNL     1      19.737   3.383  52.154  1.00  0.00     0.209 HD
ENDBRANCH  23  24
ENDBRANCH  20  23
ENDBRANCH  12  20
ENDBRANCH   1  10
TORSDOF 5
ENDMDL
MODEL 8
REMARK VINA RESULT:      -8.1      3.297      5.552
REMARK  5 active torsions:
REMARK  status: ('A' for Active; 'I' for Inactive)
REMARK    1  A    between atoms: C2_2  and  C4_4 
REMARK    2  A    between atoms: C2_2  and  C5_6 
REMARK    3  A    between atoms: C4_4  and  O1_5 
REMARK    4  A    between atoms: C7_8  and  C8_9 
REMARK    5  A    between atoms: C9_10  and  C11_13 
REMARK       I    between atoms: C11_13  and  N2_14 
ROOT
HETATM    1  C8  UNL     1      23.914   3.993  51.889  1.00  0.00     0.039 C 
HETATM    2  C9  UNL     1      24.458   4.748  50.975  1.00  0.00     0.112 C 
HETATM    3  C10 UNL     1      25.498   4.478  50.033  1.00  0.00     0.105 C 
HETATM    4  N1  UNL     1      26.344   4.247  49.287  1.00  0.00    -0.191 NA
ENDROOT
BRANCH   2   5
HETATM    5  C11 UNL     1      23.926   6.131  50.886  1.00  0.00     0.260 C 
HETATM    6  N2  UNL     1      24.288   6.960  51.965  1.00  0.00    -0.365 N 
HETATM    7  H12 UNL     1      24.510   7.560  52.754  1.00  0.00     0.159 HD
HETATM    8  H13 UNL     1      24.940   7.492  52.564  1.00  0.00     0.159 HD
HETATM    9  O2  UNL     1      23.222   6.545  49.950  1.00  0.00    -0.267 OA
ENDBRANCH   2   5
BRANCH   1  10
HETATM   10  C7  UNL     1      23.986   2.675  52.435  1.00  0.00    -0.034 A 
HETATM   11  C6  UNL     1      22.872   1.867  52.711  1.00  0.00     0.020 A 
HETATM   12  C5  UNL     1      22.898   0.593  53.232  1.00  0.00    -0.040 A 
HETATM   13  C14 UNL     1      24.175   0.115  53.490  1.00  0.00    -0.043 A 
HETATM   14  C13 UNL     1      25.283   0.850  53.245  1.00  0.00    -0.042 A 
HETATM   15  C15 UNL     1      24.945  -1.012  53.983  1.00  0.00     0.053 A 
HETATM   16  C12 UNL     1      25.214   2.122  52.721  1.00  0.00     0.020 A 
HETATM   17  C16 UNL     1      26.170  -0.196  53.711  1.00  0.00    -0.016 A 
HETATM   18  C17 UNL     1      27.057  -0.721  52.602  1.00  0.00     0.020 C 
HETATM   19  C18 UNL     1      26.933   0.208  54.963  1.00  0.00     0.020 C 
BRANCH  12  20
HETATM   20  C2  UNL     1      21.585  -0.067  53.436  1.00  0.00     0.001 C 
HETATM   21  C1  UNL     1      20.871   0.552  54.651  1.00  0.00     0.022 C 
HETATM   22  C3  UNL     1      20.643   0.052  52.286  1.00  0.00     0.022 C 
BRANCH  20  23
HETATM   23  C4  UNL     1      21.721  -1.542  53.785  1.00  0.00     0.177 C 
BRANCH  23  24
HETATM   24  O1  UNL     1      21.078  -1.789  54.967  1.00  0.00    -0.400 OA
HETATM   25  H9  UNL     1      21.490  -1.297  55.736  1.00  0.00     0.209 HD
ENDBRANCH  23  24
ENDBRANCH  20  23
ENDBRANCH  12  20
ENDBRANCH   1  10
TORSDOF 5
ENDMDL
MODEL 9
REMARK VINA RESULT:      -8.0      3.256      6.089
REMARK  5 active torsions:
REMARK  status: ('A' for Active; 'I' for Inactive)
REMARK    1  A    between atoms: C2_2  and  C4_4 
REMARK    2  A    between atoms: C2_2  and  C5_6 
REMARK    3  A    between atoms: C4_4  and  O1_5 
REMARK    4  A    between atoms: C7_8  and  C8_9 
REMARK    5  A    between atoms: C9_10  and  C11_13 
REMARK       I    between atoms: C11_13  and  N2_14 
ROOT
HETATM    1  C8  UNL     1      21.029   0.414  52.528  1.00  0.00     0.039 C 
HETATM    2  C9  UNL     1      20.480  -0.498  53.282  1.00  0.00     0.112 C 
HETATM    3  C10 UNL     1      21.050  -1.380  54.251  1.00  0.00     0.105 C 
HETATM    4  N1  UNL     1      21.526  -2.090  55.023  1.00  0.00    -0.191 NA
ENDROOT
BRANCH   2   5
HETATM    5  C11 UNL     1      19.016  -0.670  53.116  1.00  0.00     0.260 C 
HETATM    6  N2  UNL     1      18.453  -1.660  53.946  1.00  0.00    -0.365 N 
HETATM    7  H12 UNL     1      18.038  -2.394  54.511  1.00  0.00     0.159 HD
HETATM    8  H13 UNL     1      18.172  -2.084  54.845  1.00  0.00     0.159 HD
HETATM    9  O2  UNL     1      18.324  -0.011  52.322  1.00  0.00    -0.267 OA
ENDBRANCH   2   5
BRANCH   1  10
HETATM   10  C7  UNL     1      22.296   1.006  52.236  1.00  0.00    -0.034 A 
HETATM   11  C6  UNL     1      23.524   0.544  52.735  1.00  0.00     0.020 A 
HETATM   12  C5  UNL     1      24.764   1.083  52.474  1.00  0.00    -0.040 A 
HETATM   13  C14 UNL     1      24.735   2.186  51.634  1.00  0.00    -0.043 A 
HETATM   14  C13 UNL     1      23.581   2.674  51.125  1.00  0.00    -0.042 A 
HETATM   15  C15 UNL     1      25.539   3.190  50.962  1.00  0.00     0.053 A 
HETATM   16  C12 UNL     1      22.360   2.105  51.408  1.00  0.00     0.020 A 
HETATM   17  C16 UNL     1      24.260   3.728  50.400  1.00  0.00    -0.016 A 
HETATM   18  C17 UNL     1      24.104   3.577  48.902  1.00  0.00     0.020 C 
HETATM   19  C18 UNL     1      23.895   5.112  50.915  1.00  0.00     0.020 C 
BRANCH  12  20
HETATM   20  C2  UNL     1      25.924   0.418  53.118  1.00  0.00     0.001 C 
HETATM   21  C1  UNL     1      26.765  -0.313  52.057  1.00  0.00     0.022 C 
HETATM   22  C3  UNL     1      26.852   1.340  53.834  1.00  0.00     0.022 C 
BRANCH  20  23
HETATM   23  C4  UNL     1      25.502  -0.676  54.089  1.00  0.00     0.177 C 
BRANCH  23  24
HETATM   24  O1  UNL     1      26.109  -0.469  55.297  1.00  0.00    -0.400 OA
HETATM   25  H9  UNL     1      26.045   0.485  55.597  1.00  0.00     0.209 HD
ENDBRANCH  23  24
ENDBRANCH  20  23
ENDBRANCH  12  20
ENDBRANCH   1  10
TORSDOF 5
ENDMDL
