MODEL 1
REMARK VINA RESULT:      -7.8      0.000      0.000
REMARK  3 active torsions:
REMARK  status: ('A' for Active; 'I' for Inactive)
REMARK       I    between atoms: C1_2  and  N1_3 
REMARK       I    between atoms: C1_2  and  N3_15 
REMARK    1  A    between atoms: N1_3  and  C2_4 
REMARK    2  A    between atoms: N2_11  and  C9_12 
REMARK    3  A    between atoms: N3_15  and  C11_16 
ROOT
HETATM    1  O1  UNL     1      24.836  -0.848  52.453  1.00  0.00    -0.247 OA
HETATM    2  C1  UNL     1      24.995   0.287  52.951  1.00  0.00     0.321 C 
HETATM    3  N1  UNL     1      23.857   1.190  53.030  1.00  0.00    -0.331 N 
HETATM    4  N3  UNL     1      26.209   0.776  53.459  1.00  0.00    -0.309 N 
HETATM    5  H1  UNL     1      24.000   2.130  53.480  1.00  0.00     0.165 HD
HETATM    6  H9  UNL     1      26.213   1.721  53.890  1.00  0.00     0.170 HD
ENDROOT
BRANCH   3   7
HETATM    7  C2  UNL     1      22.442   0.740  52.562  1.00  0.00     0.067 A 
HETATM    8  C3  UNL     1      22.663   1.331  51.538  1.00  0.00     0.028 A 
HETATM    9  C4  UNL     1      21.295   0.623  51.658  1.00  0.00     0.070 A 
HETATM   10  C5  UNL     1      21.359   0.019  53.170  1.00  0.00     0.064 A 
HETATM   11  C6  UNL     1      22.198  -0.285  54.504  1.00  0.00     0.034 A 
HETATM   12  N2  UNL     1      20.123  -0.446  53.167  1.00  0.00    -0.368 N 
HETATM   13  C8  UNL     1      21.398  -0.107  53.467  1.00  0.00     0.066 A 
HETATM   14  C7  UNL     1      21.192  -0.802  54.815  1.00  0.00     0.062 A 
BRANCH  12  15
HETATM   15  C9  UNL     1      18.751  -0.953  53.166  1.00  0.00     0.077 C 
HETATM   16  C10 UNL     1      17.834  -0.671  52.210  1.00  0.00     0.214 C 
HETATM   17  I1  UNL     1      17.424   0.346  50.413  1.00  0.00    -0.182 I 
ENDBRANCH  12  15
ENDBRANCH   3   7
BRANCH   4  18
HETATM   18  C11 UNL     1      27.426   0.059  53.444  1.00  0.00     0.036 A 
HETATM   19  C12 UNL     1      28.521   0.852  53.798  1.00  0.00     0.029 A 
HETATM   20  C13 UNL     1      29.836   0.403  53.869  1.00  0.00     0.002 A 
HETATM   21  C14 UNL     1      30.078  -0.921  53.568  1.00  0.00     0.000 A 
HETATM   22  C15 UNL     1      29.007  -1.728  53.212  1.00  0.00     0.002 A 
HETATM   23  C16 UNL     1      27.703  -1.272  53.145  1.00  0.00     0.029 A 
ENDBRANCH   4  18
TORSDOF 3
ENDMDL
MODEL 2
REMARK VINA RESULT:      -7.6      1.630      2.554
REMARK  3 active torsions:
REMARK  status: ('A' for Active; 'I' for Inactive)
REMARK       I    between atoms: C1_2  and  N1_3 
REMARK       I    between atoms: C1_2  and  N3_15 
REMARK    1  A    between atoms: N1_3  and  C2_4 
REMARK    2  A    between atoms: N2_11  and  C9_12 
REMARK    3  A    between atoms: N3_15  and  C11_16 
ROOT
HETATM    1  O1  UNL     1      23.868   1.462  53.466  1.00  0.00    -0.247 OA
HETATM    2  C1  UNL     1      24.145   0.265  53.240  1.00  0.00     0.321 C 
HETATM    3  N1  UNL     1      23.063  -0.682  53.023  1.00  0.00    -0.331 N 
HETATM    4  N3  UNL     1      25.447  -0.257  53.173  1.00  0.00    -0.309 N 
HETATM    5  H1  UNL     1      23.313  -1.681  52.805  1.00  0.00     0.165 HD
HETATM    6  H9  UNL     1      25.558  -1.262  52.935  1.00  0.00     0.170 HD
ENDROOT
BRANCH   3   7
HETATM    7  C2  UNL     1      21.578  -0.213  53.007  1.00  0.00     0.067 A 
HETATM    8  C3  UNL     1      21.512  -0.598  54.145  1.00  0.00     0.028 A 
HETATM    9  C4  UNL     1      20.232   0.019  53.537  1.00  0.00     0.070 A 
HETATM   10  C5  UNL     1      20.704   0.338  52.010  1.00  0.00     0.064 A 
HETATM   11  C6  UNL     1      21.873   0.428  50.913  1.00  0.00     0.034 A 
HETATM   12  N2  UNL     1      19.517   0.744  51.598  1.00  0.00    -0.368 N 
HETATM   13  C8  UNL     1      20.822   0.409  51.716  1.00  0.00     0.066 A 
HETATM   14  C7  UNL     1      20.992   0.837  50.256  1.00  0.00     0.062 A 
BRANCH  12  15
HETATM   15  C9  UNL     1      18.200   1.185  51.141  1.00  0.00     0.077 C 
HETATM   16  C10 UNL     1      17.045   0.518  51.380  1.00  0.00     0.214 C 
HETATM   17  I1  UNL     1      16.138  -1.162  52.267  1.00  0.00    -0.182 I 
ENDBRANCH  12  15
ENDBRANCH   3   7
BRANCH   4  18
HETATM   18  C11 UNL     1      26.621   0.499  53.384  1.00  0.00     0.036 A 
HETATM   19  C12 UNL     1      27.461  -0.070  54.344  1.00  0.00     0.029 A 
HETATM   20  C13 UNL     1      28.683   0.461  54.746  1.00  0.00     0.002 A 
HETATM   21  C14 UNL     1      29.096   1.635  54.152  1.00  0.00     0.000 A 
HETATM   22  C15 UNL     1      28.279   2.220  53.196  1.00  0.00     0.002 A 
HETATM   23  C16 UNL     1      27.066   1.684  52.803  1.00  0.00     0.029 A 
ENDBRANCH   4  18
TORSDOF 3
ENDMDL
MODEL 3
REMARK VINA RESULT:      -7.6      2.582      3.740
REMARK  3 active torsions:
REMARK  status: ('A' for Active; 'I' for Inactive)
REMARK       I    between atoms: C1_2  and  N1_3 
REMARK       I    between atoms: C1_2  and  N3_15 
REMARK    1  A    between atoms: N1_3  and  C2_4 
REMARK    2  A    between atoms: N2_11  and  C9_12 
REMARK    3  A    between atoms: N3_15  and  C11_16 
ROOT
HETATM    1  O1  UNL     1      25.569   1.082  51.686  1.00  0.00    -0.247 OA
HETATM    2  C1  UNL     1      25.124   0.775  52.812  1.00  0.00     0.321 C 
HETATM    3  N1  UNL     1      23.768   1.165  53.166  1.00  0.00    -0.331 N 
HETATM    4  N3  UNL     1      25.838   0.064  53.789  1.00  0.00    -0.309 N 
HETATM    5  H1  UNL     1      23.397   0.873  54.107  1.00  0.00     0.165 HD
HETATM    6  H9  UNL     1      25.350  -0.173  54.675  1.00  0.00     0.170 HD
ENDROOT
BRANCH   3   7
HETATM    7  C2  UNL     1      22.851   1.900  52.144  1.00  0.00     0.067 A 
HETATM    8  C3  UNL     1      22.447   0.813  51.823  1.00  0.00     0.028 A 
HETATM    9  C4  UNL     1      21.846   2.031  51.087  1.00  0.00     0.070 A 
HETATM   10  C5  UNL     1      22.682   3.268  51.742  1.00  0.00     0.064 A 
HETATM   11  C6  UNL     1      23.711   3.810  52.848  1.00  0.00     0.034 A 
HETATM   12  N2  UNL     1      22.155   4.196  50.963  1.00  0.00    -0.368 N 
HETATM   13  C8  UNL     1      22.846   3.501  51.896  1.00  0.00     0.066 A 
HETATM   14  C7  UNL     1      23.445   4.837  52.346  1.00  0.00     0.062 A 
BRANCH  12  15
HETATM   15  C9  UNL     1      21.578   5.221  50.095  1.00  0.00     0.077 C 
HETATM   16  C10 UNL     1      21.418   5.087  48.756  1.00  0.00     0.214 C 
HETATM   17  I1  UNL     1      21.673   3.851  47.072  1.00  0.00    -0.182 I 
ENDBRANCH  12  15
ENDBRANCH   3   7
BRANCH   4  18
HETATM   18  C11 UNL     1      27.173  -0.374  53.641  1.00  0.00     0.036 A 
HETATM   19  C12 UNL     1      28.100   0.563  54.106  1.00  0.00     0.029 A 
HETATM   20  C13 UNL     1      29.481   0.391  54.084  1.00  0.00     0.002 A 
HETATM   21  C14 UNL     1      29.971  -0.790  53.567  1.00  0.00     0.000 A 
HETATM   22  C15 UNL     1      29.070  -1.734  53.098  1.00  0.00     0.002 A 
HETATM   23  C16 UNL     1      27.699  -1.555  53.124  1.00  0.00     0.029 A 
ENDBRANCH   4  18
TORSDOF 3
ENDMDL
MODEL 4
REMARK VINA RESULT:      -7.6      4.396      5.527
REMARK  3 active torsions:
REMARK  status: ('A' for Active; 'I' for Inactive)
REMARK       I    between atoms: C1_2  and  N1_3 
REMARK       I    between atoms: C1_2  and  N3_15 
REMARK    1  A    between atoms: N1_3  and  C2_4 
REMARK    2  A    between atoms: N2_11  and  C9_12 
REMARK    3  A    between atoms: N3_15  and  C11_16 
ROOT
HETATM    1  O1  UNL     1      26.737   2.389  50.403  1.00  0.00    -0.247 OA
HETATM    2  C1  UNL     1      26.194   2.787  51.455  1.00  0.00     0.321 C 
HETATM    3  N1  UNL     1      25.148   3.794  51.374  1.00  0.00    -0.331 N 
HETATM    4  N3  UNL     1      26.515   2.330  52.744  1.00  0.00    -0.309 N 
HETATM    5  H1  UNL     1      24.680   4.097  52.267  1.00  0.00     0.165 HD
HETATM    6  H9  UNL     1      25.966   2.702  53.544  1.00  0.00     0.170 HD
ENDROOT
BRANCH   3   7
HETATM    7  C2  UNL     1      24.657   4.331  49.998  1.00  0.00     0.067 A 
HETATM    8  C3  UNL     1      25.461   5.216  50.128  1.00  0.00     0.028 A 
HETATM    9  C4  UNL     1      24.606   5.229  48.841  1.00  0.00     0.070 A 
HETATM   10  C5  UNL     1      23.625   3.948  49.074  1.00  0.00     0.064 A 
HETATM   11  C6  UNL     1      23.228   2.646  49.925  1.00  0.00     0.034 A 
HETATM   12  N2  UNL     1      22.907   4.146  47.984  1.00  0.00    -0.368 N 
HETATM   13  C8  UNL     1      23.451   3.680  49.132  1.00  0.00     0.066 A 
HETATM   14  C7  UNL     1      22.433   2.538  49.069  1.00  0.00     0.062 A 
BRANCH  12  15
HETATM   15  C9  UNL     1      22.106   4.371  46.781  1.00  0.00     0.077 C 
HETATM   16  C10 UNL     1      22.100   5.526  46.073  1.00  0.00     0.214 C 
HETATM   17  I1  UNL     1      22.856   7.483  45.896  1.00  0.00    -0.182 I 
ENDBRANCH  12  15
ENDBRANCH   3   7
BRANCH   4  18
HETATM   18  C11 UNL     1      27.520   1.379  53.026  1.00  0.00     0.036 A 
HETATM   19  C12 UNL     1      27.090   0.066  52.819  1.00  0.00     0.029 A 
HETATM   20  C13 UNL     1      27.875  -1.066  53.015  1.00  0.00     0.002 A 
HETATM   21  C14 UNL     1      29.172  -0.879  53.446  1.00  0.00     0.000 A 
HETATM   22  C15 UNL     1      29.622   0.415  53.659  1.00  0.00     0.002 A 
HETATM   23  C16 UNL     1      28.834   1.535  53.461  1.00  0.00     0.029 A 
ENDBRANCH   4  18
TORSDOF 3
ENDMDL
MODEL 5
REMARK VINA RESULT:      -7.5      5.295      7.847
REMARK  3 active torsions:
REMARK  status: ('A' for Active; 'I' for Inactive)
REMARK       I    between atoms: C1_2  and  N1_3 
REMARK       I    between atoms: C1_2  and  N3_15 
REMARK    1  A    between atoms: N1_3  and  C2_4 
REMARK    2  A    between atoms: N2_11  and  C9_12 
REMARK    3  A    between atoms: N3_15  and  C11_16 
ROOT
HETATM    1  O1  UNL     1      24.768   2.725  52.235  1.00  0.00    -0.247 OA
HETATM    2  C1  UNL     1      23.973   2.405  51.326  1.00  0.00     0.321 C 
HETATM    3  N1  UNL     1      24.031   3.109  50.055  1.00  0.00    -0.331 N 
HETATM    4  N3  UNL     1      23.004   1.393  51.429  1.00  0.00    -0.309 N 
HETATM    5  H1  UNL     1      23.374   2.808  49.290  1.00  0.00     0.165 HD
HETATM    6  H9  UNL     1      22.425   1.185  50.593  1.00  0.00     0.170 HD
ENDROOT
BRANCH   3   7
HETATM    7  C2  UNL     1      25.104   4.206  49.794  1.00  0.00     0.067 A 
HETATM    8  C3  UNL     1      25.840   3.315  49.459  1.00  0.00     0.028 A 
HETATM    9  C4  UNL     1      26.407   4.751  49.402  1.00  0.00     0.070 A 
HETATM   10  C5  UNL     1      25.161   5.629  49.982  1.00  0.00     0.064 A 
HETATM   11  C6  UNL     1      23.628   5.714  50.449  1.00  0.00     0.034 A 
HETATM   12  N2  UNL     1      25.810   6.779  49.976  1.00  0.00    -0.368 N 
HETATM   13  C8  UNL     1      24.896   5.787  50.084  1.00  0.00     0.066 A 
HETATM   14  C7  UNL     1      23.902   6.849  50.559  1.00  0.00     0.062 A 
BRANCH  12  15
HETATM   15  C9  UNL     1      26.533   8.050  49.978  1.00  0.00     0.077 C 
HETATM   16  C10 UNL     1      27.599   8.324  49.189  1.00  0.00     0.214 C 
HETATM   17  I1  UNL     1      28.913   7.616  47.704  1.00  0.00    -0.182 I 
ENDBRANCH  12  15
ENDBRANCH   3   7
BRANCH   4  18
HETATM   18  C11 UNL     1      22.778   0.621  52.590  1.00  0.00     0.036 A 
HETATM   19  C12 UNL     1      21.514   0.841  53.143  1.00  0.00     0.029 A 
HETATM   20  C13 UNL     1      21.026   0.211  54.284  1.00  0.00     0.002 A 
HETATM   21  C14 UNL     1      21.851  -0.695  54.917  1.00  0.00     0.000 A 
HETATM   22  C15 UNL     1      23.111  -0.929  54.388  1.00  0.00     0.002 A 
HETATM   23  C16 UNL     1      23.587  -0.299  53.252  1.00  0.00     0.029 A 
ENDBRANCH   4  18
TORSDOF 3
ENDMDL
MODEL 6
REMARK VINA RESULT:      -7.5      5.020      7.750
REMARK  3 active torsions:
REMARK  status: ('A' for Active; 'I' for Inactive)
REMARK       I    between atoms: C1_2  and  N1_3 
REMARK       I    between atoms: C1_2  and  N3_15 
REMARK    1  A    between atoms: N1_3  and  C2_4 
REMARK    2  A    between atoms: N2_11  and  C9_12 
REMARK    3  A    between atoms: N3_15  and  C11_16 
ROOT
HETATM    1  O1  UNL     1      23.245   3.306  51.963  1.00  0.00    -0.247 OA
HETATM    2  C1  UNL     1      23.039   2.496  51.035  1.00  0.00     0.321 C 
HETATM    3  N1  UNL     1      23.338   2.894  49.669  1.00  0.00    -0.331 N 
HETATM    4  N3  UNL     1      22.531   1.197  51.203  1.00  0.00    -0.309 N 
HETATM    5  H1  UNL     1      23.187   2.190  48.901  1.00  0.00     0.165 HD
HETATM    6  H9  UNL     1      22.441   0.596  50.362  1.00  0.00     0.170 HD
ENDROOT
BRANCH   3   7
HETATM    7  C2  UNL     1      23.967   4.284  49.358  1.00  0.00     0.067 A 
HETATM    8  C3  UNL     1      22.843   4.697  49.246  1.00  0.00     0.028 A 
HETATM    9  C4  UNL     1      23.987   5.712  49.030  1.00  0.00     0.070 A 
HETATM   10  C5  UNL     1      25.308   4.772  49.196  1.00  0.00     0.064 A 
HETATM   11  C6  UNL     1      25.961   3.360  49.591  1.00  0.00     0.034 A 
HETATM   12  N2  UNL     1      26.172   5.722  48.888  1.00  0.00    -0.368 N 
HETATM   13  C8  UNL     1      25.559   4.572  49.249  1.00  0.00     0.066 A 
HETATM   14  C7  UNL     1      26.952   3.951  49.378  1.00  0.00     0.062 A 
BRANCH  12  15
HETATM   15  C9  UNL     1      27.127   6.773  48.539  1.00  0.00     0.077 C 
HETATM   16  C10 UNL     1      26.892   7.747  47.627  1.00  0.00     0.214 C 
HETATM   17  I1  UNL     1      25.532   8.570  46.246  1.00  0.00    -0.182 I 
ENDBRANCH  12  15
ENDBRANCH   3   7
BRANCH   4  18
HETATM   18  C11 UNL     1      22.155   0.643  52.447  1.00  0.00     0.036 A 
HETATM   19  C12 UNL     1      23.142  -0.186  52.986  1.00  0.00     0.029 A 
HETATM   20  C13 UNL     1      23.038  -0.857  54.201  1.00  0.00     0.002 A 
HETATM   21  C14 UNL     1      21.876  -0.693  54.926  1.00  0.00     0.000 A 
HETATM   22  C15 UNL     1      20.882   0.125  54.411  1.00  0.00     0.002 A 
HETATM   23  C16 UNL     1      20.994   0.789  53.203  1.00  0.00     0.029 A 
ENDBRANCH   4  18
TORSDOF 3
ENDMDL
MODEL 7
REMARK VINA RESULT:      -7.3      2.129      2.650
REMARK  3 active torsions:
REMARK  status: ('A' for Active; 'I' for Inactive)
REMARK       I    between atoms: C1_2  and  N1_3 
REMARK       I    between atoms: C1_2  and  N3_15 
REMARK    1  A    between atoms: N1_3  and  C2_4 
REMARK    2  A    between atoms: N2_11  and  C9_12 
REMARK    3  A    between atoms: N3_15  and  C11_16 
ROOT
HETATM    1  O1  UNL     1      25.484   1.307  51.597  1.00  0.00    -0.247 OA
HETATM    2  C1  UNL     1      25.070   1.164  52.767  1.00  0.00     0.321 C 
HETATM    3  N1  UNL     1      23.777   1.722  53.131  1.00  0.00    -0.331 N 
HETATM    4  N3  UNL     1      25.763   0.491  53.786  1.00  0.00    -0.309 N 
HETATM    5  H1  UNL     1      23.428   1.568  54.113  1.00  0.00     0.165 HD
HETATM    6  H9  UNL     1      25.300   0.397  54.711  1.00  0.00     0.170 HD
ENDROOT
BRANCH   3   7
HETATM    7  C2  UNL     1      22.883   2.434  52.074  1.00  0.00     0.067 A 
HETATM    8  C3  UNL     1      23.408   3.461  52.415  1.00  0.00     0.028 A 
HETATM    9  C4  UNL     1      22.343   3.555  51.300  1.00  0.00     0.070 A 
HETATM   10  C5  UNL     1      21.840   2.009  51.182  1.00  0.00     0.064 A 
HETATM   11  C6  UNL     1      22.016   0.462  51.578  1.00  0.00     0.034 A 
HETATM   12  N2  UNL     1      20.889   2.257  50.300  1.00  0.00    -0.368 N 
HETATM   13  C8  UNL     1      21.766   1.693  51.163  1.00  0.00     0.066 A 
HETATM   14  C7  UNL     1      21.129   0.344  50.818  1.00  0.00     0.062 A 
BRANCH  12  15
HETATM   15  C9  UNL     1      19.831   2.535  49.330  1.00  0.00     0.077 C 
HETATM   16  C10 UNL     1      18.613   3.034  49.650  1.00  0.00     0.214 C 
HETATM   17  I1  UNL     1      17.338   3.707  51.184  1.00  0.00    -0.182 I 
ENDBRANCH  12  15
ENDBRANCH   3   7
BRANCH   4  18
HETATM   18  C11 UNL     1      27.041  -0.090  53.631  1.00  0.00     0.036 A 
HETATM   19  C12 UNL     1      28.066   0.737  54.096  1.00  0.00     0.029 A 
HETATM   20  C13 UNL     1      29.420   0.414  54.070  1.00  0.00     0.002 A 
HETATM   21  C14 UNL     1      29.775  -0.812  53.547  1.00  0.00     0.000 A 
HETATM   22  C15 UNL     1      28.775  -1.650  53.078  1.00  0.00     0.002 A 
HETATM   23  C16 UNL     1      27.432  -1.321  53.109  1.00  0.00     0.029 A 
ENDBRANCH   4  18
TORSDOF 3
ENDMDL
MODEL 8
REMARK VINA RESULT:      -7.3      5.445      6.521
REMARK  3 active torsions:
REMARK  status: ('A' for Active; 'I' for Inactive)
REMARK       I    between atoms: C1_2  and  N1_3 
REMARK       I    between atoms: C1_2  and  N3_15 
REMARK    1  A    between atoms: N1_3  and  C2_4 
REMARK    2  A    between atoms: N2_11  and  C9_12 
REMARK    3  A    between atoms: N3_15  and  C11_16 
ROOT
HETATM    1  O1  UNL     1      24.727   4.461  49.084  1.00  0.00    -0.247 OA
HETATM    2  C1  UNL     1      25.438   4.829  50.043  1.00  0.00     0.321 C 
HETATM    3  N1  UNL     1      25.289   4.167  51.329  1.00  0.00    -0.331 N 
HETATM    4  N3  UNL     1      26.397   5.853  49.982  1.00  0.00    -0.309 N 
HETATM    5  H1  UNL     1      25.916   4.469  52.119  1.00  0.00     0.165 HD
HETATM    6  H9  UNL     1      26.961   6.045  50.832  1.00  0.00     0.170 HD
ENDROOT
BRANCH   3   7
HETATM    7  C2  UNL     1      24.306   2.972  51.507  1.00  0.00     0.067 A 
HETATM    8  C3  UNL     1      25.222   2.256  51.198  1.00  0.00     0.028 A 
HETATM    9  C4  UNL     1      23.874   1.573  51.518  1.00  0.00     0.070 A 
HETATM   10  C5  UNL     1      22.908   2.852  51.813  1.00  0.00     0.064 A 
HETATM   11  C6  UNL     1      22.736   4.432  52.044  1.00  0.00     0.034 A 
HETATM   12  N2  UNL     1      21.805   2.141  51.958  1.00  0.00    -0.368 N 
HETATM   13  C8  UNL     1      22.737   3.119  51.884  1.00  0.00     0.066 A 
HETATM   14  C7  UNL     1      21.623   4.110  52.233  1.00  0.00     0.062 A 
BRANCH  12  15
HETATM   15  C9  UNL     1      20.583   1.353  52.110  1.00  0.00     0.077 C 
HETATM   16  C10 UNL     1      20.465   0.275  52.923  1.00  0.00     0.214 C 
HETATM   17  I1  UNL     1      21.417  -0.996  54.305  1.00  0.00    -0.182 I 
ENDBRANCH  12  15
ENDBRANCH   3   7
BRANCH   4  18
HETATM   18  C11 UNL     1      26.664   6.628  48.831  1.00  0.00     0.036 A 
HETATM   19  C12 UNL     1      27.984   6.501  48.392  1.00  0.00     0.029 A 
HETATM   20  C13 UNL     1      28.517   7.148  47.282  1.00  0.00     0.002 A 
HETATM   21  C14 UNL     1      27.682   7.976  46.561  1.00  0.00     0.000 A 
HETATM   22  C15 UNL     1      26.367   8.119  46.978  1.00  0.00     0.002 A 
HETATM   23  C16 UNL     1      25.846   7.471  48.083  1.00  0.00     0.029 A 
ENDBRANCH   4  18
TORSDOF 3
ENDMDL
MODEL 9
REMARK VINA RESULT:      -7.2      4.067      5.308
REMARK  3 active torsions:
REMARK  status: ('A' for Active; 'I' for Inactive)
REMARK       I    between atoms: C1_2  and  N1_3 
REMARK       I    between atoms: C1_2  and  N3_15 
REMARK    1  A    between atoms: N1_3  and  C2_4 
REMARK    2  A    between atoms: N2_11  and  C9_12 
REMARK    3  A    between atoms: N3_15  and  C11_16 
ROOT
HETATM    1  O1  UNL     1      25.548   1.271  51.375  1.00  0.00    -0.247 OA
HETATM    2  C1  UNL     1      25.900   1.985  52.337  1.00  0.00     0.321 C 
HETATM    3  N1  UNL     1      25.280   3.289  52.513  1.00  0.00    -0.331 N 
HETATM    4  N3  UNL     1      26.867   1.627  53.290  1.00  0.00    -0.309 N 
HETATM    5  H1  UNL     1      25.566   3.867  53.345  1.00  0.00     0.165 HD
HETATM    6  H9  UNL     1      27.048   2.284  54.073  1.00  0.00     0.170 HD
ENDROOT
BRANCH   3   7
HETATM    7  C2  UNL     1      24.147   3.774  51.561  1.00  0.00     0.067 A 
HETATM    8  C3  UNL     1      23.369   3.327  52.364  1.00  0.00     0.028 A 
HETATM    9  C4  UNL     1      22.772   3.990  51.102  1.00  0.00     0.070 A 
HETATM   10  C5  UNL     1      24.112   4.389  50.264  1.00  0.00     0.064 A 
HETATM   11  C6  UNL     1      25.710   4.528  50.193  1.00  0.00     0.034 A 
HETATM   12  N2  UNL     1      23.463   4.830  49.201  1.00  0.00    -0.368 N 
HETATM   13  C8  UNL     1      24.390   4.475  50.121  1.00  0.00     0.066 A 
HETATM   14  C7  UNL     1      25.453   4.982  49.142  1.00  0.00     0.062 A 
BRANCH  12  15
HETATM   15  C9  UNL     1      22.744   5.310  48.022  1.00  0.00     0.077 C 
HETATM   16  C10 UNL     1      22.366   6.596  47.829  1.00  0.00     0.214 C 
HETATM   17  I1  UNL     1      22.345   8.556  48.599  1.00  0.00    -0.182 I 
ENDBRANCH  12  15
ENDBRANCH   3   7
BRANCH   4  18
HETATM   18  C11 UNL     1      27.597   0.417  53.269  1.00  0.00     0.036 A 
HETATM   19  C12 UNL     1      28.952   0.603  53.552  1.00  0.00     0.029 A 
HETATM   20  C13 UNL     1      29.899  -0.415  53.602  1.00  0.00     0.002 A 
HETATM   21  C14 UNL     1      29.469  -1.702  53.353  1.00  0.00     0.000 A 
HETATM   22  C15 UNL     1      28.129  -1.911  53.069  1.00  0.00     0.002 A 
HETATM   23  C16 UNL     1      27.194  -0.893  53.022  1.00  0.00     0.029 A 
ENDBRANCH   4  18
TORSDOF 3
ENDMDL
