MODEL 1
REMARK VINA RESULT:      -8.1      0.000      0.000
REMARK  5 active torsions:
REMARK  status: ('A' for Active; 'I' for Inactive)
REMARK    1  A    between atoms: C7_7  and  C8_8 
REMARK    2  A    between atoms: C8_8  and  N1_9 
REMARK    3  A    between atoms: C8_8  and  C10_13 
REMARK    4  A    between atoms: N1_9  and  C9_10 
REMARK    5  A    between atoms: C9_10  and  N2_11 
ROOT
HETATM    1  C8  UNL     1      23.987   1.087  53.002  1.00  0.00     0.140 C 
ENDROOT
BRANCH   1   2
HETATM    2  C7  UNL     1      25.261   0.413  53.117  1.00  0.00     0.017 C 
HETATM    3  C6  UNL     1      26.527   0.649  53.295  1.00  0.00    -0.009 A 
HETATM    4  C5  UNL     1      27.115   1.970  53.464  1.00  0.00     0.013 A 
HETATM    5  C16 UNL     1      27.502  -0.435  53.345  1.00  0.00     0.064 A 
HETATM    6  C4  UNL     1      28.397   2.243  53.649  1.00  0.00     0.002 A 
HETATM    7  C3  UNL     1      29.345   1.139  53.693  1.00  0.00     0.009 A 
HETATM    8  C2  UNL     1      28.900  -0.092  53.550  1.00  0.00    -0.033 A 
HETATM    9  C1  UNL     1      29.824  -1.256  53.587  1.00  0.00     0.050 C 
HETATM   10  N3  UNL     1      27.096  -1.673  53.205  1.00  0.00    -0.299 NA
HETATM   11  H17 UNL     1      27.804  -2.426  53.244  1.00  0.00     0.187 HD
ENDBRANCH   1   2
BRANCH   1  12
HETATM   12  N1  UNL     1      23.737   1.531  51.619  1.00  0.00    -0.360 N 
HETATM   13  H9  UNL     1      23.212   1.089  50.829  1.00  0.00     0.162 HD
BRANCH  12  14
HETATM   14  C9  UNL     1      24.232   2.765  51.102  1.00  0.00     0.144 C 
HETATM   15  S1  UNL     1      24.568   3.446  49.656  1.00  0.00    -0.048 SA
BRANCH  14  16
HETATM   16  N2  UNL     1      24.654   3.970  51.701  1.00  0.00    -0.279 NA
HETATM   17  H10 UNL     1      25.290   4.752  51.387  1.00  0.00     0.126 HD
HETATM   18  H11 UNL     1      25.277   4.758  51.418  1.00  0.00     0.126 HD
ENDBRANCH  14  16
ENDBRANCH  12  14
ENDBRANCH   1  12
BRANCH   1  19
HETATM   19  C10 UNL     1      22.781   0.316  53.355  1.00  0.00    -0.032 A 
HETATM   20  C11 UNL     1      22.979  -0.791  54.171  1.00  0.00     0.009 A 
HETATM   21  C12 UNL     1      21.866  -1.535  54.512  1.00  0.00     0.001 A 
HETATM   22  C13 UNL     1      20.617  -1.141  54.025  1.00  0.00     0.000 A 
HETATM   23  C14 UNL     1      20.462  -0.044  53.222  1.00  0.00     0.001 A 
HETATM   24  C15 UNL     1      21.542   0.736  52.850  1.00  0.00     0.009 A 
ENDBRANCH   1  19
TORSDOF 5
ENDMDL
MODEL 2
REMARK VINA RESULT:      -7.8      1.923      2.697
REMARK  5 active torsions:
REMARK  status: ('A' for Active; 'I' for Inactive)
REMARK    1  A    between atoms: C7_7  and  C8_8 
REMARK    2  A    between atoms: C8_8  and  N1_9 
REMARK    3  A    between atoms: C8_8  and  C10_13 
REMARK    4  A    between atoms: N1_9  and  C9_10 
REMARK    5  A    between atoms: C9_10  and  N2_11 
ROOT
HETATM    1  C8  UNL     1      24.058   3.083  52.557  1.00  0.00     0.140 C 
ENDROOT
BRANCH   1   2
HETATM    2  C7  UNL     1      25.363   2.611  52.961  1.00  0.00     0.017 C 
HETATM    3  C6  UNL     1      26.110   1.547  52.955  1.00  0.00    -0.009 A 
HETATM    4  C5  UNL     1      25.720   0.255  52.408  1.00  0.00     0.013 A 
HETATM    5  C16 UNL     1      27.456   1.561  53.517  1.00  0.00     0.064 A 
HETATM    6  C4  UNL     1      26.455  -0.844  52.385  1.00  0.00     0.002 A 
HETATM    7  C3  UNL     1      27.795  -0.799  52.954  1.00  0.00     0.009 A 
HETATM    8  C2  UNL     1      28.231   0.331  53.471  1.00  0.00    -0.033 A 
HETATM    9  C1  UNL     1      29.590   0.434  54.066  1.00  0.00     0.050 C 
HETATM   10  N3  UNL     1      27.923   2.667  54.041  1.00  0.00    -0.299 NA
HETATM   11  H17 UNL     1      28.881   2.654  54.434  1.00  0.00     0.187 HD
ENDBRANCH   1   2
BRANCH   1  12
HETATM   12  N1  UNL     1      24.152   4.015  51.419  1.00  0.00    -0.360 N 
HETATM   13  H9  UNL     1      24.470   3.879  50.431  1.00  0.00     0.162 HD
BRANCH  12  14
HETATM   14  C9  UNL     1      23.783   5.389  51.513  1.00  0.00     0.144 C 
HETATM   15  S1  UNL     1      22.677   6.412  50.879  1.00  0.00    -0.048 SA
BRANCH  14  16
HETATM   16  N2  UNL     1      24.278   6.481  52.257  1.00  0.00    -0.279 NA
HETATM   17  H10 UNL     1      23.836   7.362  52.634  1.00  0.00     0.126 HD
HETATM   18  H11 UNL     1      23.869   7.360  52.642  1.00  0.00     0.126 HD
ENDBRANCH  14  16
ENDBRANCH  12  14
ENDBRANCH   1  12
BRANCH   1  19
HETATM   19  C10 UNL     1      23.081   2.072  52.113  1.00  0.00    -0.032 A 
HETATM   20  C11 UNL     1      22.466   1.334  53.116  1.00  0.00     0.009 A 
HETATM   21  C12 UNL     1      21.550   0.374  52.727  1.00  0.00     0.001 A 
HETATM   22  C13 UNL     1      21.296   0.199  51.365  1.00  0.00     0.000 A 
HETATM   23  C14 UNL     1      21.924   0.946  50.405  1.00  0.00     0.001 A 
HETATM   24  C15 UNL     1      22.847   1.919  50.739  1.00  0.00     0.009 A 
ENDBRANCH   1  19
TORSDOF 5
ENDMDL
MODEL 3
REMARK VINA RESULT:      -7.8      1.553      5.506
REMARK  5 active torsions:
REMARK  status: ('A' for Active; 'I' for Inactive)
REMARK    1  A    between atoms: C7_7  and  C8_8 
REMARK    2  A    between atoms: C8_8  and  N1_9 
REMARK    3  A    between atoms: C8_8  and  C10_13 
REMARK    4  A    between atoms: N1_9  and  C9_10 
REMARK    5  A    between atoms: C9_10  and  N2_11 
ROOT
HETATM    1  C8  UNL     1      26.328   1.098  51.885  1.00  0.00     0.140 C 
ENDROOT
BRANCH   1   2
HETATM    2  C7  UNL     1      24.990   0.743  52.302  1.00  0.00     0.017 C 
HETATM    3  C6  UNL     1      24.347   0.113  53.240  1.00  0.00    -0.009 A 
HETATM    4  C5  UNL     1      24.968  -0.551  54.377  1.00  0.00     0.013 A 
HETATM    5  C16 UNL     1      22.891   0.018  53.231  1.00  0.00     0.064 A 
HETATM    6  C4  UNL     1      24.343  -1.197  55.348  1.00  0.00     0.002 A 
HETATM    7  C3  UNL     1      22.889  -1.276  55.310  1.00  0.00     0.009 A 
HETATM    8  C2  UNL     1      22.244  -0.702  54.316  1.00  0.00    -0.033 A 
HETATM    9  C1  UNL     1      20.761  -0.750  54.228  1.00  0.00     0.050 C 
HETATM   10  N3  UNL     1      22.216   0.576  52.257  1.00  0.00    -0.299 NA
HETATM   11  H17 UNL     1      21.184   0.496  52.270  1.00  0.00     0.187 HD
ENDBRANCH   1   2
BRANCH   1  12
HETATM   12  N1  UNL     1      26.503   2.561  51.832  1.00  0.00    -0.360 N 
HETATM   13  H9  UNL     1      26.772   3.257  52.565  1.00  0.00     0.162 HD
BRANCH  12  14
HETATM   14  C9  UNL     1      26.308   3.319  50.641  1.00  0.00     0.144 C 
HETATM   15  S1  UNL     1      25.101   3.697  49.606  1.00  0.00    -0.048 SA
BRANCH  14  16
HETATM   16  N2  UNL     1      27.162   4.102  49.835  1.00  0.00    -0.279 NA
HETATM   17  H10 UNL     1      28.039   3.888  49.287  1.00  0.00     0.126 HD
HETATM   18  H11 UNL     1      28.030   3.921  49.284  1.00  0.00     0.126 HD
ENDBRANCH  14  16
ENDBRANCH  12  14
ENDBRANCH   1  12
BRANCH   1  19
HETATM   19  C10 UNL     1      27.444   0.633  52.729  1.00  0.00    -0.032 A 
HETATM   20  C11 UNL     1      27.794  -0.705  52.598  1.00  0.00     0.009 A 
HETATM   21  C12 UNL     1      28.833  -1.170  53.382  1.00  0.00     0.001 A 
HETATM   22  C13 UNL     1      29.468  -0.281  54.253  1.00  0.00     0.000 A 
HETATM   23  C14 UNL     1      29.094   1.032  54.354  1.00  0.00     0.001 A 
HETATM   24  C15 UNL     1      28.062   1.548  53.594  1.00  0.00     0.009 A 
ENDBRANCH   1  19
TORSDOF 5
ENDMDL
MODEL 4
REMARK VINA RESULT:      -7.6      1.818      5.693
REMARK  5 active torsions:
REMARK  status: ('A' for Active; 'I' for Inactive)
REMARK    1  A    between atoms: C7_7  and  C8_8 
REMARK    2  A    between atoms: C8_8  and  N1_9 
REMARK    3  A    between atoms: C8_8  and  C10_13 
REMARK    4  A    between atoms: N1_9  and  C9_10 
REMARK    5  A    between atoms: C9_10  and  N2_11 
ROOT
HETATM    1  C8  UNL     1      24.740   1.771  52.218  1.00  0.00     0.140 C 
ENDROOT
BRANCH   1   2
HETATM    2  C7  UNL     1      23.400   1.242  52.336  1.00  0.00     0.017 C 
HETATM    3  C6  UNL     1      22.696   0.391  53.022  1.00  0.00    -0.009 A 
HETATM    4  C5  UNL     1      23.208  -0.437  54.104  1.00  0.00     0.013 A 
HETATM    5  C16 UNL     1      21.275   0.192  52.756  1.00  0.00     0.064 A 
HETATM    6  C4  UNL     1      22.518  -1.308  54.822  1.00  0.00     0.002 A 
HETATM    7  C3  UNL     1      21.103  -1.486  54.532  1.00  0.00     0.009 A 
HETATM    8  C2  UNL     1      20.554  -0.776  53.568  1.00  0.00    -0.033 A 
HETATM    9  C1  UNL     1      19.113  -0.916  53.229  1.00  0.00     0.050 C 
HETATM   10  N3  UNL     1      20.696   0.881  51.804  1.00  0.00    -0.299 NA
HETATM   11  H17 UNL     1      19.688   0.723  51.632  1.00  0.00     0.187 HD
ENDBRANCH   1   2
BRANCH   1  12
HETATM   12  N1  UNL     1      24.857   3.087  52.873  1.00  0.00    -0.360 N 
HETATM   13  H9  UNL     1      25.488   3.434  53.632  1.00  0.00     0.162 HD
BRANCH  12  14
HETATM   14  C9  UNL     1      24.032   4.198  52.528  1.00  0.00     0.144 C 
HETATM   15  S1  UNL     1      23.154   4.730  51.257  1.00  0.00    -0.048 SA
BRANCH  14  16
HETATM   16  N2  UNL     1      23.628   5.361  53.217  1.00  0.00    -0.279 NA
HETATM   17  H10 UNL     1      22.765   5.613  53.770  1.00  0.00     0.126 HD
HETATM   18  H11 UNL     1      22.788   5.639  53.769  1.00  0.00     0.126 HD
ENDBRANCH  14  16
ENDBRANCH  12  14
ENDBRANCH   1  12
BRANCH   1  19
HETATM   19  C10 UNL     1      25.834   0.978  52.809  1.00  0.00    -0.032 A 
HETATM   20  C11 UNL     1      26.283  -0.099  52.055  1.00  0.00     0.009 A 
HETATM   21  C12 UNL     1      27.304  -0.864  52.588  1.00  0.00     0.001 A 
HETATM   22  C13 UNL     1      27.823  -0.517  53.838  1.00  0.00     0.000 A 
HETATM   23  C14 UNL     1      27.353   0.552  54.551  1.00  0.00     0.001 A 
HETATM   24  C15 UNL     1      26.333   1.350  54.065  1.00  0.00     0.009 A 
ENDBRANCH   1  19
TORSDOF 5
ENDMDL
MODEL 5
REMARK VINA RESULT:      -7.6      2.513      5.681
REMARK  5 active torsions:
REMARK  status: ('A' for Active; 'I' for Inactive)
REMARK    1  A    between atoms: C7_7  and  C8_8 
REMARK    2  A    between atoms: C8_8  and  N1_9 
REMARK    3  A    between atoms: C8_8  and  C10_13 
REMARK    4  A    between atoms: N1_9  and  C9_10 
REMARK    5  A    between atoms: C9_10  and  N2_11 
ROOT
HETATM    1  C8  UNL     1      24.535   0.479  53.537  1.00  0.00     0.140 C 
ENDROOT
BRANCH   1   2
HETATM    2  C7  UNL     1      24.129   1.312  52.426  1.00  0.00     0.017 C 
HETATM    3  C6  UNL     1      24.614   2.098  51.511  1.00  0.00    -0.009 A 
HETATM    4  C5  UNL     1      26.025   2.408  51.337  1.00  0.00     0.013 A 
HETATM    5  C16 UNL     1      23.746   2.758  50.542  1.00  0.00     0.064 A 
HETATM    6  C4  UNL     1      26.548   3.201  50.416  1.00  0.00     0.002 A 
HETATM    7  C3  UNL     1      25.657   3.846  49.463  1.00  0.00     0.009 A 
HETATM    8  C2  UNL     1      24.362   3.621  49.546  1.00  0.00    -0.033 A 
HETATM    9  C1  UNL     1      23.406   4.254  48.599  1.00  0.00     0.050 C 
HETATM   10  N3  UNL     1      22.452   2.559  50.594  1.00  0.00    -0.299 NA
HETATM   11  H17 UNL     1      21.856   3.037  49.897  1.00  0.00     0.187 HD
ENDBRANCH   1   2
BRANCH   1  12
HETATM   12  N1  UNL     1      23.758  -0.773  53.581  1.00  0.00    -0.360 N 
HETATM   13  H9  UNL     1      23.921  -1.710  53.144  1.00  0.00     0.162 HD
BRANCH  12  14
HETATM   14  C9  UNL     1      22.537  -0.900  54.305  1.00  0.00     0.144 C 
HETATM   15  S1  UNL     1      21.145  -0.073  54.524  1.00  0.00    -0.048 SA
BRANCH  14  16
HETATM   16  N2  UNL     1      22.025  -1.877  55.185  1.00  0.00    -0.279 NA
HETATM   17  H10 UNL     1      22.358  -2.835  55.478  1.00  0.00     0.126 HD
HETATM   18  H11 UNL     1      22.329  -2.826  55.494  1.00  0.00     0.126 HD
ENDBRANCH  14  16
ENDBRANCH  12  14
ENDBRANCH   1  12
BRANCH   1  19
HETATM   19  C10 UNL     1      25.940   0.032  53.569  1.00  0.00    -0.032 A 
HETATM   20  C11 UNL     1      26.258  -1.042  52.747  1.00  0.00     0.009 A 
HETATM   21  C12 UNL     1      27.566  -1.487  52.763  1.00  0.00     0.001 A 
HETATM   22  C13 UNL     1      28.487  -0.842  53.592  1.00  0.00     0.000 A 
HETATM   23  C14 UNL     1      28.135   0.214  54.388  1.00  0.00     0.001 A 
HETATM   24  C15 UNL     1      26.840   0.699  54.411  1.00  0.00     0.009 A 
ENDBRANCH   1  19
TORSDOF 5
ENDMDL
MODEL 6
REMARK VINA RESULT:      -7.5      1.223      2.122
REMARK  5 active torsions:
REMARK  status: ('A' for Active; 'I' for Inactive)
REMARK    1  A    between atoms: C7_7  and  C8_8 
REMARK    2  A    between atoms: C8_8  and  N1_9 
REMARK    3  A    between atoms: C8_8  and  C10_13 
REMARK    4  A    between atoms: N1_9  and  C9_10 
REMARK    5  A    between atoms: C9_10  and  N2_11 
ROOT
HETATM    1  C8  UNL     1      24.357   1.275  53.089  1.00  0.00     0.140 C 
ENDROOT
BRANCH   1   2
HETATM    2  C7  UNL     1      25.733   0.925  53.364  1.00  0.00     0.017 C 
HETATM    3  C6  UNL     1      26.590  -0.040  53.208  1.00  0.00    -0.009 A 
HETATM    4  C5  UNL     1      26.307  -1.313  52.562  1.00  0.00     0.013 A 
HETATM    5  C16 UNL     1      27.964   0.081  53.686  1.00  0.00     0.064 A 
HETATM    6  C4  UNL     1      27.157  -2.312  52.386  1.00  0.00     0.002 A 
HETATM    7  C3  UNL     1      28.520  -2.162  52.874  1.00  0.00     0.009 A 
HETATM    8  C2  UNL     1      28.865  -1.040  53.472  1.00  0.00    -0.033 A 
HETATM    9  C1  UNL     1      30.243  -0.833  53.990  1.00  0.00     0.050 C 
HETATM   10  N3  UNL     1      28.342   1.182  54.287  1.00  0.00    -0.299 NA
HETATM   11  H17 UNL     1      29.320   1.246  54.618  1.00  0.00     0.187 HD
ENDBRANCH   1   2
BRANCH   1  12
HETATM   12  N1  UNL     1      24.123   1.436  51.642  1.00  0.00    -0.360 N 
HETATM   13  H9  UNL     1      23.734   0.784  50.923  1.00  0.00     0.162 HD
BRANCH  12  14
HETATM   14  C9  UNL     1      24.429   2.638  50.939  1.00  0.00     0.144 C 
HETATM   15  S1  UNL     1      23.925   3.450  49.614  1.00  0.00    -0.048 SA
BRANCH  14  16
HETATM   16  N2  UNL     1      25.367   3.672  51.143  1.00  0.00    -0.279 NA
HETATM   17  H10 UNL     1      25.278   4.713  51.291  1.00  0.00     0.126 HD
HETATM   18  H11 UNL     1      25.310   4.703  51.291  1.00  0.00     0.126 HD
ENDBRANCH  14  16
ENDBRANCH  12  14
ENDBRANCH   1  12
BRANCH   1  19
HETATM   19  C10 UNL     1      23.318   0.320  53.517  1.00  0.00    -0.032 A 
HETATM   20  C11 UNL     1      22.157   0.299  52.755  1.00  0.00     0.009 A 
HETATM   21  C12 UNL     1      21.162  -0.581  53.137  1.00  0.00     0.001 A 
HETATM   22  C13 UNL     1      21.376  -1.393  54.254  1.00  0.00     0.000 A 
HETATM   23  C14 UNL     1      22.535  -1.343  54.980  1.00  0.00     0.001 A 
HETATM   24  C15 UNL     1      23.561  -0.481  54.642  1.00  0.00     0.009 A 
ENDBRANCH   1  19
TORSDOF 5
ENDMDL
MODEL 7
REMARK VINA RESULT:      -7.4      2.941      5.122
REMARK  5 active torsions:
REMARK  status: ('A' for Active; 'I' for Inactive)
REMARK    1  A    between atoms: C7_7  and  C8_8 
REMARK    2  A    between atoms: C8_8  and  N1_9 
REMARK    3  A    between atoms: C8_8  and  C10_13 
REMARK    4  A    between atoms: N1_9  and  C9_10 
REMARK    5  A    between atoms: C9_10  and  N2_11 
ROOT
HETATM    1  C8  UNL     1      25.231   1.686  52.051  1.00  0.00     0.140 C 
ENDROOT
BRANCH   1   2
HETATM    2  C7  UNL     1      24.995   2.984  51.459  1.00  0.00     0.017 C 
HETATM    3  C6  UNL     1      25.493   3.815  50.593  1.00  0.00    -0.009 A 
HETATM    4  C5  UNL     1      26.704   3.589  49.817  1.00  0.00     0.013 A 
HETATM    5  C16 UNL     1      24.851   5.095  50.313  1.00  0.00     0.064 A 
HETATM    6  C4  UNL     1      27.234   4.412  48.928  1.00  0.00     0.002 A 
HETATM    7  C3  UNL     1      26.571   5.683  48.671  1.00  0.00     0.009 A 
HETATM    8  C2  UNL     1      25.467   5.971  49.328  1.00  0.00    -0.033 A 
HETATM    9  C1  UNL     1      24.748   7.253  49.106  1.00  0.00     0.050 C 
HETATM   10  N3  UNL     1      23.751   5.416  50.949  1.00  0.00    -0.299 NA
HETATM   11  H17 UNL     1      23.313   6.329  50.735  1.00  0.00     0.187 HD
ENDBRANCH   1   2
BRANCH   1  12
HETATM   12  N1  UNL     1      26.018   1.797  53.293  1.00  0.00    -0.360 N 
HETATM   13  H9  UNL     1      25.730   1.866  54.297  1.00  0.00     0.162 HD
BRANCH  12  14
HETATM   14  C9  UNL     1      27.443   1.832  53.304  1.00  0.00     0.144 C 
HETATM   15  S1  UNL     1      28.693   0.884  53.761  1.00  0.00    -0.048 SA
BRANCH  14  16
HETATM   16  N2  UNL     1      28.396   2.785  52.887  1.00  0.00    -0.279 NA
HETATM   17  H10 UNL     1      29.246   3.210  53.346  1.00  0.00     0.126 HD
HETATM   18  H11 UNL     1      29.242   3.222  53.314  1.00  0.00     0.126 HD
ENDBRANCH  14  16
ENDBRANCH  12  14
ENDBRANCH   1  12
BRANCH   1  19
HETATM   19  C10 UNL     1      24.049   0.897  52.444  1.00  0.00    -0.032 A 
HETATM   20  C11 UNL     1      24.236  -0.008  53.481  1.00  0.00     0.009 A 
HETATM   21  C12 UNL     1      23.146  -0.766  53.866  1.00  0.00     0.001 A 
HETATM   22  C13 UNL     1      21.931  -0.584  53.200  1.00  0.00     0.000 A 
HETATM   23  C14 UNL     1      21.787   0.319  52.182  1.00  0.00     0.001 A 
HETATM   24  C15 UNL     1      22.844   1.102  51.758  1.00  0.00     0.009 A 
ENDBRANCH   1  19
TORSDOF 5
ENDMDL
MODEL 8
REMARK VINA RESULT:      -7.3      2.448      6.161
REMARK  5 active torsions:
REMARK  status: ('A' for Active; 'I' for Inactive)
REMARK    1  A    between atoms: C7_7  and  C8_8 
REMARK    2  A    between atoms: C8_8  and  N1_9 
REMARK    3  A    between atoms: C8_8  and  C10_13 
REMARK    4  A    between atoms: N1_9  and  C9_10 
REMARK    5  A    between atoms: C9_10  and  N2_11 
ROOT
HETATM    1  C8  UNL     1      25.192   0.498  53.658  1.00  0.00     0.140 C 
ENDROOT
BRANCH   1   2
HETATM    2  C7  UNL     1      24.915   1.495  52.648  1.00  0.00     0.017 C 
HETATM    3  C6  UNL     1      24.059   1.790  51.714  1.00  0.00    -0.009 A 
HETATM    4  C5  UNL     1      22.886   0.999  51.375  1.00  0.00     0.013 A 
HETATM    5  C16 UNL     1      24.211   2.991  50.899  1.00  0.00     0.064 A 
HETATM    6  C4  UNL     1      21.997   1.273  50.434  1.00  0.00     0.002 A 
HETATM    7  C3  UNL     1      22.175   2.478  49.636  1.00  0.00     0.009 A 
HETATM    8  C2  UNL     1      23.211   3.255  49.876  1.00  0.00    -0.033 A 
HETATM    9  C1  UNL     1      23.442   4.497  49.092  1.00  0.00     0.050 C 
HETATM   10  N3  UNL     1      25.230   3.787  51.108  1.00  0.00    -0.299 NA
HETATM   11  H17 UNL     1      25.317   4.632  50.517  1.00  0.00     0.187 HD
ENDBRANCH   1   2
BRANCH   1  12
HETATM   12  N1  UNL     1      24.279  -0.654  53.541  1.00  0.00    -0.360 N 
HETATM   13  H9  UNL     1      24.202  -1.411  52.823  1.00  0.00     0.162 HD
BRANCH  12  14
HETATM   14  C9  UNL     1      23.255  -0.929  54.494  1.00  0.00     0.144 C 
HETATM   15  S1  UNL     1      21.653  -0.671  54.689  1.00  0.00    -0.048 SA
BRANCH  14  16
HETATM   16  N2  UNL     1      23.240  -1.587  55.742  1.00  0.00    -0.279 NA
HETATM   17  H10 UNL     1      23.473  -2.571  56.045  1.00  0.00     0.126 HD
HETATM   18  H11 UNL     1      23.464  -2.551  56.072  1.00  0.00     0.126 HD
ENDBRANCH  14  16
ENDBRANCH  12  14
ENDBRANCH   1  12
BRANCH   1  19
HETATM   19  C10 UNL     1      26.536  -0.108  53.659  1.00  0.00    -0.032 A 
HETATM   20  C11 UNL     1      27.468   0.474  54.509  1.00  0.00     0.009 A 
HETATM   21  C12 UNL     1      28.738  -0.070  54.526  1.00  0.00     0.001 A 
HETATM   22  C13 UNL     1      29.014  -1.162  53.698  1.00  0.00     0.000 A 
HETATM   23  C14 UNL     1      28.068  -1.707  52.873  1.00  0.00     0.001 A 
HETATM   24  C15 UNL     1      26.782  -1.202  52.818  1.00  0.00     0.009 A 
ENDBRANCH   1  19
TORSDOF 5
ENDMDL
MODEL 9
REMARK VINA RESULT:      -7.3      2.321      6.433
REMARK  5 active torsions:
REMARK  status: ('A' for Active; 'I' for Inactive)
REMARK    1  A    between atoms: C7_7  and  C8_8 
REMARK    2  A    between atoms: C8_8  and  N1_9 
REMARK    3  A    between atoms: C8_8  and  C10_13 
REMARK    4  A    between atoms: N1_9  and  C9_10 
REMARK    5  A    between atoms: C9_10  and  N2_11 
ROOT
HETATM    1  C8  UNL     1      24.885   1.642  52.324  1.00  0.00     0.140 C 
ENDROOT
BRANCH   1   2
HETATM    2  C7  UNL     1      23.516   1.187  52.412  1.00  0.00     0.017 C 
HETATM    3  C6  UNL     1      22.757   0.354  53.061  1.00  0.00    -0.009 A 
HETATM    4  C5  UNL     1      23.211  -0.542  54.114  1.00  0.00     0.013 A 
HETATM    5  C16 UNL     1      21.330   0.247  52.777  1.00  0.00     0.064 A 
HETATM    6  C4  UNL     1      22.465  -1.398  54.794  1.00  0.00     0.002 A 
HETATM    7  C3  UNL     1      21.044  -1.482  54.487  1.00  0.00     0.009 A 
HETATM    8  C2  UNL     1      20.547  -0.706  53.547  1.00  0.00    -0.033 A 
HETATM    9  C1  UNL     1      19.104  -0.750  53.192  1.00  0.00     0.050 C 
HETATM   10  N3  UNL     1      20.800   1.004  51.847  1.00  0.00    -0.299 NA
HETATM   11  H17 UNL     1      19.787   0.911  51.662  1.00  0.00     0.187 HD
ENDBRANCH   1   2
BRANCH   1  12
HETATM   12  N1  UNL     1      25.808   0.520  52.071  1.00  0.00    -0.360 N 
HETATM   13  H9  UNL     1      26.054   0.005  51.194  1.00  0.00     0.162 HD
BRANCH  12  14
HETATM   14  C9  UNL     1      26.583  -0.091  53.100  1.00  0.00     0.144 C 
HETATM   15  S1  UNL     1      27.135   0.260  54.597  1.00  0.00    -0.048 SA
BRANCH  14  16
HETATM   16  N2  UNL     1      27.220  -1.343  53.224  1.00  0.00    -0.279 NA
HETATM   17  H10 UNL     1      27.626  -1.873  54.042  1.00  0.00     0.126 HD
HETATM   18  H11 UNL     1      27.629  -1.891  54.013  1.00  0.00     0.126 HD
ENDBRANCH  14  16
ENDBRANCH  12  14
ENDBRANCH   1  12
BRANCH   1  19
HETATM   19  C10 UNL     1      25.207   2.618  51.267  1.00  0.00    -0.032 A 
HETATM   20  C11 UNL     1      24.179   3.471  50.889  1.00  0.00     0.009 A 
HETATM   21  C12 UNL     1      24.451   4.392  49.895  1.00  0.00     0.001 A 
HETATM   22  C13 UNL     1      25.729   4.415  49.331  1.00  0.00     0.000 A 
HETATM   23  C14 UNL     1      26.717   3.556  49.730  1.00  0.00     0.001 A 
HETATM   24  C15 UNL     1      26.498   2.616  50.720  1.00  0.00     0.009 A 
ENDBRANCH   1  19
TORSDOF 5
ENDMDL
