MODEL 1
REMARK VINA RESULT:      -7.4      0.000      0.000
REMARK  5 active torsions:
REMARK  status: ('A' for Active; 'I' for Inactive)
REMARK    1  A    between atoms: C2_2  and  C3_3 
REMARK    2  A    between atoms: N3_10  and  C8_11 
REMARK    3  A    between atoms: C14_19  and  C15_20 
REMARK       I    between atoms: C15_20  and  N4_22 
REMARK    4  A    between atoms: N4_22  and  C16_23 
REMARK    5  A    between atoms: C16_23  and  O2_24 
ROOT
HETATM    1  C3  UNL     1      22.959   2.313  49.433  1.00  0.00    -0.046 C 
HETATM    2  C4  UNL     1      21.962   1.404  49.642  1.00  0.00     0.010 C 
HETATM    3  C5  UNL     1      21.168   0.454  50.483  1.00  0.00     0.327 C 
HETATM    4  N1  UNL     1      21.768   0.643  51.608  1.00  0.00    -0.400 NA
HETATM    5  C6  UNL     1      21.525   0.053  52.864  1.00  0.00     0.188 C 
HETATM    6  N2  UNL     1      22.392   0.585  53.695  1.00  0.00    -0.256 NA
HETATM    7  C7  UNL     1      23.309   1.568  53.154  1.00  0.00     0.422 C 
HETATM    8  N3  UNL     1      24.055   0.942  52.116  1.00  0.00     0.120 NA
HETATM    9  C13 UNL     1      24.705   1.832  51.252  1.00  0.00     0.294 C 
HETATM   10  C14 UNL     1      24.010   2.746  50.358  1.00  0.00     0.139 C 
ENDROOT
BRANCH   8  11
HETATM   11  C8  UNL     1      24.929  -0.056  52.666  1.00  0.00     0.275 A 
HETATM   12  C9  UNL     1      25.145   0.069  54.133  1.00  0.00     0.056 A 
HETATM   13  C10 UNL     1      26.471   0.112  54.390  1.00  0.00     0.136 A 
HETATM   14  F1  UNL     1      27.052   0.225  55.633  1.00  0.00    -0.205 F 
HETATM   15  C11 UNL     1      27.185   0.011  53.108  1.00  0.00     0.070 A 
HETATM   16 CL1  UNL     1      28.966   0.034  53.113  1.00  0.00    -0.081 Cl
HETATM   17  C12 UNL     1      26.293  -0.089  52.102  1.00  0.00     0.040 A 
ENDBRANCH   8  11
BRANCH  10  18
HETATM   18  C15 UNL     1      23.869   4.144  50.827  1.00  0.00     0.229 C 
HETATM   19  O1  UNL     1      22.738   4.095  51.377  1.00  0.00    -0.273 OA
HETATM   20  N4  UNL     1      24.690   5.286  50.744  1.00  0.00    -0.340 N 
HETATM   21  H15 UNL     1      25.570   5.054  50.238  1.00  0.00     0.164 HD
BRANCH  20  22
HETATM   22  C16 UNL     1      24.241   6.535  51.325  1.00  0.00     0.290 C 
BRANCH  22  23
HETATM   23  O2  UNL     1      24.279   6.397  52.723  1.00  0.00    -0.382 OA
HETATM   24  H18 UNL     1      24.652   5.493  52.970  1.00  0.00     0.211 HD
ENDBRANCH  22  23
ENDBRANCH  20  22
ENDBRANCH  10  18
BRANCH   1  25
HETATM   25  C2  UNL     1      22.933   2.782  48.029  1.00  0.00    -0.003 C 
HETATM   26  C1  UNL     1      21.757   2.763  47.468  1.00  0.00     0.012 C 
ENDBRANCH   1  25
TORSDOF 5
ENDMDL
MODEL 2
REMARK VINA RESULT:      -7.2      4.512      6.875
REMARK  5 active torsions:
REMARK  status: ('A' for Active; 'I' for Inactive)
REMARK    1  A    between atoms: C2_2  and  C3_3 
REMARK    2  A    between atoms: N3_10  and  C8_11 
REMARK    3  A    between atoms: C14_19  and  C15_20 
REMARK       I    between atoms: C15_20  and  N4_22 
REMARK    4  A    between atoms: N4_22  and  C16_23 
REMARK    5  A    between atoms: C16_23  and  O2_24 
ROOT
HETATM    1  C3  UNL     1      26.544   5.028  49.203  1.00  0.00    -0.046 C 
HETATM    2  C4  UNL     1      26.394   6.379  49.330  1.00  0.00     0.010 C 
HETATM    3  C5  UNL     1      25.637   7.615  49.703  1.00  0.00     0.327 C 
HETATM    4  N1  UNL     1      24.572   7.058  50.169  1.00  0.00    -0.400 NA
HETATM    5  C6  UNL     1      23.412   7.649  50.707  1.00  0.00     0.188 C 
HETATM    6  N2  UNL     1      22.621   6.659  51.054  1.00  0.00    -0.256 NA
HETATM    7  C7  UNL     1      23.102   5.313  50.814  1.00  0.00     0.422 C 
HETATM    8  N3  UNL     1      23.349   5.181  49.419  1.00  0.00     0.120 NA
HETATM    9  C13 UNL     1      24.158   4.092  49.074  1.00  0.00     0.294 C 
HETATM   10  C14 UNL     1      25.559   3.971  49.450  1.00  0.00     0.139 C 
ENDROOT
BRANCH   8  11
HETATM   11  C8  UNL     1      22.112   5.223  48.690  1.00  0.00     0.275 A 
HETATM   12  C9  UNL     1      21.242   4.034  48.902  1.00  0.00     0.056 A 
HETATM   13  C10 UNL     1      20.913   3.500  47.706  1.00  0.00     0.136 A 
HETATM   14  F1  UNL     1      20.121   2.391  47.505  1.00  0.00    -0.205 F 
HETATM   15  C11 UNL     1      21.543   4.314  46.656  1.00  0.00     0.070 A 
HETATM   16 CL1  UNL     1      21.291   3.863  44.951  1.00  0.00    -0.081 Cl
HETATM   17  C12 UNL     1      22.241   5.318  47.222  1.00  0.00     0.040 A 
ENDBRANCH   8  11
BRANCH  10  18
HETATM   18  C15 UNL     1      25.853   3.129  50.632  1.00  0.00     0.229 C 
HETATM   19  O1  UNL     1      24.834   2.390  50.654  1.00  0.00    -0.273 OA
HETATM   20  N4  UNL     1      26.924   3.074  51.547  1.00  0.00    -0.340 N 
HETATM   21  H15 UNL     1      27.635   3.794  51.302  1.00  0.00     0.164 HD
BRANCH  20  22
HETATM   22  C16 UNL     1      26.899   2.103  52.621  1.00  0.00     0.290 C 
BRANCH  22  23
HETATM   23  O2  UNL     1      27.196   2.778  53.818  1.00  0.00    -0.382 OA
HETATM   24  H18 UNL     1      28.068   2.441  54.195  1.00  0.00     0.211 HD
ENDBRANCH  22  23
ENDBRANCH  20  22
ENDBRANCH  10  18
BRANCH   1  25
HETATM   25  C2  UNL     1      27.881   4.716  48.650  1.00  0.00    -0.003 C 
HETATM   26  C1  UNL     1      28.584   5.754  48.298  1.00  0.00     0.012 C 
ENDBRANCH   1  25
TORSDOF 5
ENDMDL
MODEL 3
REMARK VINA RESULT:      -7.2      3.120      4.200
REMARK  5 active torsions:
REMARK  status: ('A' for Active; 'I' for Inactive)
REMARK    1  A    between atoms: C2_2  and  C3_3 
REMARK    2  A    between atoms: N3_10  and  C8_11 
REMARK    3  A    between atoms: C14_19  and  C15_20 
REMARK       I    between atoms: C15_20  and  N4_22 
REMARK    4  A    between atoms: N4_22  and  C16_23 
REMARK    5  A    between atoms: C16_23  and  O2_24 
ROOT
HETATM    1  C3  UNL     1      24.103   3.357  49.623  1.00  0.00    -0.046 C 
HETATM    2  C4  UNL     1      23.575   2.784  48.502  1.00  0.00     0.010 C 
HETATM    3  C5  UNL     1      22.448   2.267  47.664  1.00  0.00     0.327 C 
HETATM    4  N1  UNL     1      21.470   2.557  48.452  1.00  0.00    -0.400 NA
HETATM    5  C6  UNL     1      20.088   2.342  48.284  1.00  0.00     0.188 C 
HETATM    6  N2  UNL     1      19.507   2.827  49.358  1.00  0.00    -0.256 NA
HETATM    7  C7  UNL     1      20.366   3.414  50.366  1.00  0.00     0.422 C 
HETATM    8  N3  UNL     1      21.276   2.410  50.802  1.00  0.00     0.120 NA
HETATM    9  C13 UNL     1      22.396   2.899  51.484  1.00  0.00     0.294 C 
HETATM   10  C14 UNL     1      23.423   3.726  50.868  1.00  0.00     0.139 C 
ENDROOT
BRANCH   8  11
HETATM   11  C8  UNL     1      20.575   1.384  51.522  1.00  0.00     0.275 A 
HETATM   12  C9  UNL     1      20.253   1.743  52.930  1.00  0.00     0.056 A 
HETATM   13  C10 UNL     1      20.718   0.782  53.757  1.00  0.00     0.136 A 
HETATM   14  F1  UNL     1      20.605   0.771  55.129  1.00  0.00    -0.205 F 
HETATM   15  C11 UNL     1      21.360  -0.254  52.933  1.00  0.00     0.070 A 
HETATM   16 CL1  UNL     1      22.075  -1.672  53.740  1.00  0.00    -0.081 Cl
HETATM   17  C12 UNL     1      21.278   0.090  51.633  1.00  0.00     0.040 A 
ENDBRANCH   8  11
BRANCH  10  18
HETATM   18  C15 UNL     1      23.315   5.186  51.092  1.00  0.00     0.229 C 
HETATM   19  O1  UNL     1      23.233   5.226  52.348  1.00  0.00    -0.273 OA
HETATM   20  N4  UNL     1      23.298   6.304  50.235  1.00  0.00    -0.340 N 
HETATM   21  H15 UNL     1      23.380   5.993  49.245  1.00  0.00     0.164 HD
BRANCH  20  22
HETATM   22  C16 UNL     1      23.178   7.634  50.795  1.00  0.00     0.290 C 
BRANCH  22  23
HETATM   23  O2  UNL     1      24.263   7.834  51.667  1.00  0.00    -0.382 OA
HETATM   24  H18 UNL     1      24.611   8.775  51.573  1.00  0.00     0.211 HD
ENDBRANCH  22  23
ENDBRANCH  20  22
ENDBRANCH  10  18
BRANCH   1  25
HETATM   25  C2  UNL     1      25.571   3.488  49.482  1.00  0.00    -0.003 C 
HETATM   26  C1  UNL     1      26.262   2.943  50.441  1.00  0.00     0.012 C 
ENDBRANCH   1  25
TORSDOF 5
ENDMDL
MODEL 4
REMARK VINA RESULT:      -7.0      3.985      6.157
REMARK  5 active torsions:
REMARK  status: ('A' for Active; 'I' for Inactive)
REMARK    1  A    between atoms: C2_2  and  C3_3 
REMARK    2  A    between atoms: N3_10  and  C8_11 
REMARK    3  A    between atoms: C14_19  and  C15_20 
REMARK       I    between atoms: C15_20  and  N4_22 
REMARK    4  A    between atoms: N4_22  and  C16_23 
REMARK    5  A    between atoms: C16_23  and  O2_24 
ROOT
HETATM    1  C3  UNL     1      23.801   1.249  52.699  1.00  0.00    -0.046 C 
HETATM    2  C4  UNL     1      23.063   1.109  51.559  1.00  0.00     0.010 C 
HETATM    3  C5  UNL     1      22.564   1.558  50.222  1.00  0.00     0.327 C 
HETATM    4  N1  UNL     1      23.227   2.658  50.126  1.00  0.00    -0.400 NA
HETATM    5  C6  UNL     1      23.237   3.612  49.089  1.00  0.00     0.188 C 
HETATM    6  N2  UNL     1      24.085   4.546  49.456  1.00  0.00    -0.256 NA
HETATM    7  C7  UNL     1      24.745   4.375  50.734  1.00  0.00     0.422 C 
HETATM    8  N3  UNL     1      23.739   4.306  51.739  1.00  0.00     0.120 NA
HETATM    9  C13 UNL     1      24.172   3.774  52.959  1.00  0.00     0.294 C 
HETATM   10  C14 UNL     1      24.603   2.396  53.135  1.00  0.00     0.139 C 
ENDROOT
BRANCH   8  11
HETATM   11  C8  UNL     1      23.085   5.579  51.873  1.00  0.00     0.275 A 
HETATM   12  C9  UNL     1      21.670   5.585  51.415  1.00  0.00     0.056 A 
HETATM   13  C10 UNL     1      21.493   6.578  50.516  1.00  0.00     0.136 A 
HETATM   14  F1  UNL     1      20.315   6.889  49.873  1.00  0.00    -0.205 F 
HETATM   15  C11 UNL     1      22.779   7.271  50.347  1.00  0.00     0.070 A 
HETATM   16 CL1  UNL     1      22.872   8.646  49.217  1.00  0.00    -0.081 Cl
HETATM   17  C12 UNL     1      23.708   6.696  51.136  1.00  0.00     0.040 A 
ENDBRANCH   8  11
BRANCH  10  18
HETATM   18  C15 UNL     1      26.064   2.156  53.123  1.00  0.00     0.229 C 
HETATM   19  O1  UNL     1      26.206   1.622  51.991  1.00  0.00    -0.273 OA
HETATM   20  N4  UNL     1      27.100   2.408  54.044  1.00  0.00    -0.340 N 
HETATM   21  H15 UNL     1      26.711   2.856  54.900  1.00  0.00     0.164 HD
BRANCH  20  22
HETATM   22  C16 UNL     1      28.460   2.040  53.711  1.00  0.00     0.290 C 
BRANCH  22  23
HETATM   23  O2  UNL     1      28.980   3.035  52.865  1.00  0.00    -0.382 OA
HETATM   24  H18 UNL     1      28.259   3.370  52.244  1.00  0.00     0.211 HD
ENDBRANCH  22  23
ENDBRANCH  20  22
ENDBRANCH  10  18
BRANCH   1  25
HETATM   25  C2  UNL     1      23.615   0.067  53.572  1.00  0.00    -0.003 C 
HETATM   26  C1  UNL     1      22.391  -0.370  53.647  1.00  0.00     0.012 C 
ENDBRANCH   1  25
TORSDOF 5
ENDMDL
MODEL 5
REMARK VINA RESULT:      -6.9      1.709      2.025
REMARK  5 active torsions:
REMARK  status: ('A' for Active; 'I' for Inactive)
REMARK    1  A    between atoms: C2_2  and  C3_3 
REMARK    2  A    between atoms: N3_10  and  C8_11 
REMARK    3  A    between atoms: C14_19  and  C15_20 
REMARK       I    between atoms: C15_20  and  N4_22 
REMARK    4  A    between atoms: N4_22  and  C16_23 
REMARK    5  A    between atoms: C16_23  and  O2_24 
ROOT
HETATM    1  C3  UNL     1      23.304   3.073  49.264  1.00  0.00    -0.046 C 
HETATM    2  C4  UNL     1      22.670   2.052  49.911  1.00  0.00     0.010 C 
HETATM    3  C5  UNL     1      22.467   1.111  51.057  1.00  0.00     0.327 C 
HETATM    4  N1  UNL     1      23.396   1.548  51.835  1.00  0.00    -0.400 NA
HETATM    5  C6  UNL     1      23.775   1.106  53.118  1.00  0.00     0.188 C 
HETATM    6  N2  UNL     1      24.764   1.882  53.498  1.00  0.00    -0.256 NA
HETATM    7  C7  UNL     1      25.185   2.917  52.575  1.00  0.00     0.422 C 
HETATM    8  N3  UNL     1      25.592   2.283  51.367  1.00  0.00     0.120 NA
HETATM    9  C13 UNL     1      25.668   3.138  50.261  1.00  0.00     0.294 C 
HETATM   10  C14 UNL     1      24.515   3.795  49.663  1.00  0.00     0.139 C 
ENDROOT
BRANCH   8  11
HETATM   11  C8  UNL     1      26.793   1.526  51.584  1.00  0.00     0.275 A 
HETATM   12  C9  UNL     1      26.588   0.052  51.595  1.00  0.00     0.056 A 
HETATM   13  C10 UNL     1      27.103  -0.464  52.732  1.00  0.00     0.136 A 
HETATM   14  F1  UNL     1      27.098  -1.793  53.092  1.00  0.00    -0.205 F 
HETATM   15  C11 UNL     1      27.675   0.642  53.515  1.00  0.00     0.070 A 
HETATM   16 CL1  UNL     1      28.442   0.279  55.081  1.00  0.00    -0.081 Cl
HETATM   17  C12 UNL     1      27.499   1.801  52.851  1.00  0.00     0.040 A 
ENDBRANCH   8  11
BRANCH  10  18
HETATM   18  C15 UNL     1      24.281   5.202  50.060  1.00  0.00     0.229 C 
HETATM   19  O1  UNL     1      25.456   5.653  50.036  1.00  0.00    -0.273 OA
HETATM   20  N4  UNL     1      23.128   5.942  50.393  1.00  0.00    -0.340 N 
HETATM   21  H15 UNL     1      22.287   5.330  50.335  1.00  0.00     0.164 HD
BRANCH  20  22
HETATM   22  C16 UNL     1      23.251   7.341  50.744  1.00  0.00     0.290 C 
BRANCH  22  23
HETATM   23  O2  UNL     1      24.199   7.444  51.777  1.00  0.00    -0.382 OA
HETATM   24  H18 UNL     1      23.962   8.212  52.386  1.00  0.00     0.211 HD
ENDBRANCH  22  23
ENDBRANCH  20  22
ENDBRANCH  10  18
BRANCH   1  25
HETATM   25  C2  UNL     1      22.651   3.332  47.962  1.00  0.00    -0.003 C 
HETATM   26  C1  UNL     1      21.535   2.688  47.772  1.00  0.00     0.012 C 
ENDBRANCH   1  25
TORSDOF 5
ENDMDL
MODEL 6
REMARK VINA RESULT:      -6.7      3.844      6.098
REMARK  5 active torsions:
REMARK  status: ('A' for Active; 'I' for Inactive)
REMARK    1  A    between atoms: C2_2  and  C3_3 
REMARK    2  A    between atoms: N3_10  and  C8_11 
REMARK    3  A    between atoms: C14_19  and  C15_20 
REMARK       I    between atoms: C15_20  and  N4_22 
REMARK    4  A    between atoms: N4_22  and  C16_23 
REMARK    5  A    between atoms: C16_23  and  O2_24 
ROOT
HETATM    1  C3  UNL     1      23.107   0.066  53.417  1.00  0.00    -0.046 C 
HETATM    2  C4  UNL     1      22.140   0.060  52.453  1.00  0.00     0.010 C 
HETATM    3  C5  UNL     1      21.527   0.515  51.166  1.00  0.00     0.327 C 
HETATM    4  N1  UNL     1      22.447   1.336  50.791  1.00  0.00    -0.400 NA
HETATM    5  C6  UNL     1      22.519   2.137  49.634  1.00  0.00     0.188 C 
HETATM    6  N2  UNL     1      23.659   2.785  49.705  1.00  0.00    -0.256 NA
HETATM    7  C7  UNL     1      24.491   2.535  50.864  1.00  0.00     0.422 C 
HETATM    8  N3  UNL     1      23.740   2.883  52.023  1.00  0.00     0.120 NA
HETATM    9  C13 UNL     1      24.244   2.358  53.219  1.00  0.00     0.294 C 
HETATM   10  C14 UNL     1      24.280   0.937  53.529  1.00  0.00     0.139 C 
ENDROOT
BRANCH   8  11
HETATM   11  C8  UNL     1      23.529   4.303  52.069  1.00  0.00     0.275 A 
HETATM   12  C9  UNL     1      22.096   4.704  52.047  1.00  0.00     0.056 A 
HETATM   13  C10 UNL     1      21.893   5.591  51.049  1.00  0.00     0.136 A 
HETATM   14  F1  UNL     1      20.693   6.183  50.723  1.00  0.00    -0.205 F 
HETATM   15  C11 UNL     1      23.180   5.818  50.375  1.00  0.00     0.070 A 
HETATM   16 CL1  UNL     1      23.243   6.954  49.003  1.00  0.00    -0.081 Cl
HETATM   17  C12 UNL     1      24.136   5.073  50.965  1.00  0.00     0.040 A 
ENDBRANCH   8  11
BRANCH  10  18
HETATM   18  C15 UNL     1      25.573   0.249  53.308  1.00  0.00     0.229 C 
HETATM   19  O1  UNL     1      26.381   1.136  53.689  1.00  0.00    -0.273 OA
HETATM   20  N4  UNL     1      25.926  -1.025  52.820  1.00  0.00    -0.340 N 
HETATM   21  H15 UNL     1      25.068  -1.561  52.575  1.00  0.00     0.164 HD
BRANCH  20  22
HETATM   22  C16 UNL     1      27.324  -1.395  52.729  1.00  0.00     0.290 C 
BRANCH  22  23
HETATM   23  O2  UNL     1      27.427  -2.764  53.035  1.00  0.00    -0.382 OA
HETATM   24  H18 UNL     1      26.661  -3.268  52.617  1.00  0.00     0.211 HD
ENDBRANCH  22  23
ENDBRANCH  20  22
ENDBRANCH  10  18
BRANCH   1  25
HETATM   25  C2  UNL     1      22.771  -0.908  54.479  1.00  0.00    -0.003 C 
HETATM   26  C1  UNL     1      21.614  -1.490  54.342  1.00  0.00     0.012 C 
ENDBRANCH   1  25
TORSDOF 5
ENDMDL
MODEL 7
REMARK VINA RESULT:      -6.5      4.305      6.996
REMARK  5 active torsions:
REMARK  status: ('A' for Active; 'I' for Inactive)
REMARK    1  A    between atoms: C2_2  and  C3_3 
REMARK    2  A    between atoms: N3_10  and  C8_11 
REMARK    3  A    between atoms: C14_19  and  C15_20 
REMARK       I    between atoms: C15_20  and  N4_22 
REMARK    4  A    between atoms: N4_22  and  C16_23 
REMARK    5  A    between atoms: C16_23  and  O2_24 
ROOT
HETATM    1  C3  UNL     1      25.415   4.344  49.673  1.00  0.00    -0.046 C 
HETATM    2  C4  UNL     1      25.434   5.695  49.867  1.00  0.00     0.010 C 
HETATM    3  C5  UNL     1      24.795   7.017  50.158  1.00  0.00     0.327 C 
HETATM    4  N1  UNL     1      23.583   6.614  50.331  1.00  0.00    -0.400 NA
HETATM    5  C6  UNL     1      22.427   7.355  50.643  1.00  0.00     0.188 C 
HETATM    6  N2  UNL     1      21.445   6.487  50.729  1.00  0.00    -0.256 NA
HETATM    7  C7  UNL     1      21.771   5.095  50.498  1.00  0.00     0.422 C 
HETATM    8  N3  UNL     1      22.312   4.985  49.186  1.00  0.00     0.120 NA
HETATM    9  C13 UNL     1      23.016   3.799  48.946  1.00  0.00     0.294 C 
HETATM   10  C14 UNL     1      24.260   3.445  49.612  1.00  0.00     0.139 C 
ENDROOT
BRANCH   8  11
HETATM   11  C8  UNL     1      21.296   5.251  48.207  1.00  0.00     0.275 A 
HETATM   12  C9  UNL     1      20.164   4.285  48.229  1.00  0.00     0.056 A 
HETATM   13  C10 UNL     1      19.986   3.774  46.991  1.00  0.00     0.136 A 
HETATM   14  F1  UNL     1      19.034   2.848  46.627  1.00  0.00    -0.205 F 
HETATM   15  C11 UNL     1      20.985   4.383  46.100  1.00  0.00     0.070 A 
HETATM   16 CL1  UNL     1      21.006   3.912  44.382  1.00  0.00    -0.081 Cl
HETATM   17  C12 UNL     1      21.748   5.245  46.802  1.00  0.00     0.040 A 
ENDBRANCH   8  11
BRANCH  10  18
HETATM   18  C15 UNL     1      24.150   2.518  50.762  1.00  0.00     0.229 C 
HETATM   19  O1  UNL     1      23.199   1.784  50.383  1.00  0.00    -0.273 OA
HETATM   20  N4  UNL     1      24.847   2.389  51.980  1.00  0.00    -0.340 N 
HETATM   21  H15 UNL     1      25.584   3.121  52.044  1.00  0.00     0.164 HD
BRANCH  20  22
HETATM   22  C16 UNL     1      24.477   1.343  52.910  1.00  0.00     0.290 C 
BRANCH  22  23
HETATM   23  O2  UNL     1      23.114   1.503  53.218  1.00  0.00    -0.382 OA
HETATM   24  H18 UNL     1      22.770   2.363  52.820  1.00  0.00     0.211 HD
ENDBRANCH  22  23
ENDBRANCH  20  22
ENDBRANCH  10  18
BRANCH   1  25
HETATM   25  C2  UNL     1      26.786   3.851  49.407  1.00  0.00    -0.003 C 
HETATM   26  C1  UNL     1      27.544   4.674  48.743  1.00  0.00     0.012 C 
ENDBRANCH   1  25
TORSDOF 5
ENDMDL
MODEL 8
REMARK VINA RESULT:      -6.5      2.257      2.634
REMARK  5 active torsions:
REMARK  status: ('A' for Active; 'I' for Inactive)
REMARK    1  A    between atoms: C2_2  and  C3_3 
REMARK    2  A    between atoms: N3_10  and  C8_11 
REMARK    3  A    between atoms: C14_19  and  C15_20 
REMARK       I    between atoms: C15_20  and  N4_22 
REMARK    4  A    between atoms: N4_22  and  C16_23 
REMARK    5  A    between atoms: C16_23  and  O2_24 
ROOT
HETATM    1  C3  UNL     1      22.104   2.975  48.382  1.00  0.00    -0.046 C 
HETATM    2  C4  UNL     1      21.035   2.185  48.693  1.00  0.00     0.010 C 
HETATM    3  C5  UNL     1      20.006   1.626  49.625  1.00  0.00     0.327 C 
HETATM    4  N1  UNL     1      20.324   2.288  50.684  1.00  0.00    -0.400 NA
HETATM    5  C6  UNL     1      19.749   2.253  51.970  1.00  0.00     0.188 C 
HETATM    6  N2  UNL     1      20.417   3.120  52.696  1.00  0.00    -0.256 NA
HETATM    7  C7  UNL     1      21.494   3.837  52.044  1.00  0.00     0.422 C 
HETATM    8  N3  UNL     1      22.433   2.878  51.570  1.00  0.00     0.120 NA
HETATM    9  C13 UNL     1      23.324   3.366  50.606  1.00  0.00     0.294 C 
HETATM   10  C14 UNL     1      22.922   3.800  49.277  1.00  0.00     0.139 C 
ENDROOT
BRANCH   8  11
HETATM   11  C8  UNL     1      23.087   2.235  52.676  1.00  0.00     0.275 A 
HETATM   12  C9  UNL     1      24.281   2.966  53.181  1.00  0.00     0.056 A 
HETATM   13  C10 UNL     1      25.342   2.130  53.204  1.00  0.00     0.136 A 
HETATM   14  F1  UNL     1      26.618   2.452  53.612  1.00  0.00    -0.205 F 
HETATM   15  C11 UNL     1      24.895   0.815  52.723  1.00  0.00     0.070 A 
HETATM   16 CL1  UNL     1      26.075  -0.517  52.639  1.00  0.00    -0.081 Cl
HETATM   17  C12 UNL     1      23.583   0.870  52.415  1.00  0.00     0.040 A 
ENDBRANCH   8  11
BRANCH  10  18
HETATM   18  C15 UNL     1      22.753   5.258  49.084  1.00  0.00     0.229 C 
HETATM   19  O1  UNL     1      21.501   5.363  49.163  1.00  0.00    -0.273 OA
HETATM   20  N4  UNL     1      23.651   6.323  48.868  1.00  0.00    -0.340 N 
HETATM   21  H15 UNL     1      24.627   5.962  48.844  1.00  0.00     0.164 HD
BRANCH  20  22
HETATM   22  C16 UNL     1      23.142   7.670  48.717  1.00  0.00     0.290 C 
BRANCH  22  23
HETATM   23  O2  UNL     1      24.164   8.560  49.091  1.00  0.00    -0.382 OA
HETATM   24  H18 UNL     1      24.387   8.437  50.067  1.00  0.00     0.211 HD
ENDBRANCH  22  23
ENDBRANCH  20  22
ENDBRANCH  10  18
BRANCH   1  25
HETATM   25  C2  UNL     1      22.447   2.827  46.950  1.00  0.00    -0.003 C 
HETATM   26  C1  UNL     1      21.740   3.561  46.140  1.00  0.00     0.012 C 
ENDBRANCH   1  25
TORSDOF 5
ENDMDL
MODEL 9
REMARK VINA RESULT:      -6.3      7.131     10.462
REMARK  5 active torsions:
REMARK  status: ('A' for Active; 'I' for Inactive)
REMARK    1  A    between atoms: C2_2  and  C3_3 
REMARK    2  A    between atoms: N3_10  and  C8_11 
REMARK    3  A    between atoms: C14_19  and  C15_20 
REMARK       I    between atoms: C15_20  and  N4_22 
REMARK    4  A    between atoms: N4_22  and  C16_23 
REMARK    5  A    between atoms: C16_23  and  O2_24 
ROOT
HETATM    1  C3  UNL     1      27.866   7.020  48.364  1.00  0.00    -0.046 C 
HETATM    2  C4  UNL     1      28.930   7.837  48.617  1.00  0.00     0.010 C 
HETATM    3  C5  UNL     1      29.576   9.170  48.833  1.00  0.00     0.327 C 
HETATM    4  N1  UNL     1      28.525   9.911  48.746  1.00  0.00    -0.400 NA
HETATM    5  C6  UNL     1      28.403  11.310  48.855  1.00  0.00     0.188 C 
HETATM    6  N2  UNL     1      27.126  11.581  48.707  1.00  0.00    -0.256 NA
HETATM    7  C7  UNL     1      26.234  10.461  48.485  1.00  0.00     0.422 C 
HETATM    8  N3  UNL     1      26.659   9.793  47.302  1.00  0.00     0.120 NA
HETATM    9  C13 UNL     1      26.152   8.496  47.154  1.00  0.00     0.294 C 
HETATM   10  C14 UNL     1      26.486   7.389  48.037  1.00  0.00     0.139 C 
ENDROOT
BRANCH   8  11
HETATM   11  C8  UNL     1      26.434  10.626  46.154  1.00  0.00     0.275 A 
HETATM   12  C9  UNL     1      25.316  10.169  45.283  1.00  0.00     0.056 A 
HETATM   13  C10 UNL     1      25.759  10.046  44.013  1.00  0.00     0.136 A 
HETATM   14  F1  UNL     1      25.009   9.645  42.929  1.00  0.00    -0.205 F 
HETATM   15  C11 UNL     1      27.180  10.421  43.988  1.00  0.00     0.070 A 
HETATM   16 CL1  UNL     1      28.058  10.366  42.439  1.00  0.00    -0.081 Cl
HETATM   17  C12 UNL     1      27.578  10.761  45.231  1.00  0.00     0.040 A 
ENDBRANCH   8  11
BRANCH  10  18
HETATM   18  C15 UNL     1      25.505   7.077  49.101  1.00  0.00     0.229 C 
HETATM   19  O1  UNL     1      24.423   7.274  48.488  1.00  0.00    -0.273 OA
HETATM   20  N4  UNL     1      25.621   6.666  50.444  1.00  0.00    -0.340 N 
HETATM   21  H15 UNL     1      26.626   6.578  50.701  1.00  0.00     0.164 HD
BRANCH  20  22
HETATM   22  C16 UNL     1      24.426   6.439  51.230  1.00  0.00     0.290 C 
BRANCH  22  23
HETATM   23  O2  UNL     1      23.866   7.692  51.532  1.00  0.00    -0.382 OA
HETATM   24  H18 UNL     1      24.571   8.301  51.917  1.00  0.00     0.211 HD
ENDBRANCH  22  23
ENDBRANCH  20  22
ENDBRANCH  10  18
BRANCH   1  25
HETATM   25  C2  UNL     1      28.304   5.605  48.353  1.00  0.00    -0.003 C 
HETATM   26  C1  UNL     1      29.570   5.427  48.104  1.00  0.00     0.012 C 
ENDBRANCH   1  25
TORSDOF 5
ENDMDL
