MODEL 1
REMARK VINA RESULT:      -7.8      0.000      0.000
REMARK  2 active torsions:
REMARK  status: ('A' for Active; 'I' for Inactive)
REMARK    1  A    between atoms: C3_3  and  C4_4 
REMARK       I    between atoms: C4_4  and  N1_6 
REMARK    2  A    between atoms: C10_12  and  C11_13 
ROOT
HETATM    1  C1  UNL     1      29.679   0.097  54.172  1.00  0.00     0.112 C 
HETATM    2  C2  UNL     1      28.327   0.083  53.580  1.00  0.00    -0.101 C 
HETATM    3  C3  UNL     1      27.226   0.080  53.090  1.00  0.00    -0.005 C 
ENDROOT
BRANCH   3   4
HETATM    4  C4  UNL     1      25.913   0.101  52.514  1.00  0.00     0.303 C 
HETATM    5  O1  UNL     1      25.918   0.551  51.341  1.00  0.00    -0.258 OA
HETATM    6  N1  UNL     1      24.705  -0.344  53.193  1.00  0.00    -0.304 N 
HETATM    7  C5  UNL     1      25.050  -0.847  54.563  1.00  0.00     0.098 C 
HETATM    8  C9  UNL     1      23.378  -0.376  52.641  1.00  0.00     0.153 C 
HETATM    9  C6  UNL     1      23.944  -0.657  55.319  1.00  0.00     0.048 C 
HETATM   10  C7  UNL     1      22.716  -1.101  54.537  1.00  0.00     0.056 C 
HETATM   11  C8  UNL     1      22.796  -1.633  53.277  1.00  0.00     0.035 C 
HETATM   12  N3  UNL     1      21.361  -0.767  55.051  1.00  0.00    -0.260 NA
HETATM   13  C19 UNL     1      20.644   0.222  54.393  1.00  0.00     0.140 C 
HETATM   14  C17 UNL     1      21.240   1.095  53.295  1.00  0.00     0.071 C 
HETATM   15  C10 UNL     1      22.461   0.763  52.723  1.00  0.00     0.001 C 
HETATM   16  C18 UNL     1      20.532   2.257  52.919  1.00  0.00     0.101 C 
HETATM   17  N2  UNL     1      19.965   3.210  52.631  1.00  0.00    -0.191 NA
BRANCH  15  18
HETATM   18  C11 UNL     1      22.822   1.978  51.961  1.00  0.00    -0.025 A 
HETATM   19  C12 UNL     1      23.422   3.162  52.321  1.00  0.00     0.012 A 
HETATM   20  C13 UNL     1      23.706   4.137  51.405  1.00  0.00     0.002 A 
HETATM   21  C14 UNL     1      23.412   3.996  50.069  1.00  0.00     0.019 A 
HETATM   22  C15 UNL     1      22.811   2.827  49.667  1.00  0.00     0.011 A 
HETATM   23 BR1  UNL     1      22.442   2.725  47.799  1.00  0.00    -0.051 Br
HETATM   24  C16 UNL     1      22.518   1.824  50.599  1.00  0.00     0.031 A 
ENDBRANCH  15  18
ENDBRANCH   3   4
TORSDOF 2
ENDMDL
MODEL 2
REMARK VINA RESULT:      -7.5      2.687      5.265
REMARK  2 active torsions:
REMARK  status: ('A' for Active; 'I' for Inactive)
REMARK    1  A    between atoms: C3_3  and  C4_4 
REMARK       I    between atoms: C4_4  and  N1_6 
REMARK    2  A    between atoms: C10_12  and  C11_13 
ROOT
HETATM    1  C1  UNL     1      18.815  -1.076  53.052  1.00  0.00     0.112 C 
HETATM    2  C2  UNL     1      19.868  -0.050  52.918  1.00  0.00    -0.101 C 
HETATM    3  C3  UNL     1      20.730   0.787  52.820  1.00  0.00    -0.005 C 
ENDROOT
BRANCH   3   4
HETATM    4  C4  UNL     1      21.745   1.796  52.723  1.00  0.00     0.303 C 
HETATM    5  O1  UNL     1      21.274   2.911  52.388  1.00  0.00    -0.258 OA
HETATM    6  N1  UNL     1      23.160   1.570  52.979  1.00  0.00    -0.304 N 
HETATM    7  C5  UNL     1      23.381   0.144  53.383  1.00  0.00     0.098 C 
HETATM    8  C9  UNL     1      24.204   2.558  52.931  1.00  0.00     0.153 C 
HETATM    9  C6  UNL     1      24.647  -0.156  53.014  1.00  0.00     0.048 C 
HETATM   10  C7  UNL     1      25.571   0.988  53.405  1.00  0.00     0.056 C 
HETATM   11  C8  UNL     1      25.124   2.107  54.059  1.00  0.00     0.035 C 
HETATM   12  N3  UNL     1      26.967   1.011  52.891  1.00  0.00    -0.260 NA
HETATM   13  C19 UNL     1      27.278   1.934  51.901  1.00  0.00     0.140 C 
HETATM   14  C17 UNL     1      26.231   2.790  51.200  1.00  0.00     0.071 C 
HETATM   15  C10 UNL     1      24.940   2.869  51.703  1.00  0.00     0.001 C 
HETATM   16  C18 UNL     1      26.611   3.454  50.013  1.00  0.00     0.101 C 
HETATM   17  N2  UNL     1      26.916   3.976  49.039  1.00  0.00    -0.191 NA
BRANCH  15  18
HETATM   18  C11 UNL     1      24.186   3.514  50.608  1.00  0.00    -0.025 A 
HETATM   19  C12 UNL     1      23.640   3.033  49.440  1.00  0.00     0.012 A 
HETATM   20  C13 UNL     1      22.924   3.833  48.593  1.00  0.00     0.002 A 
HETATM   21  C14 UNL     1      22.703   5.165  48.854  1.00  0.00     0.019 A 
HETATM   22  C15 UNL     1      23.232   5.687  50.010  1.00  0.00     0.011 A 
HETATM   23 BR1  UNL     1      22.873   7.539  50.283  1.00  0.00    -0.051 Br
HETATM   24  C16 UNL     1      23.965   4.873  50.883  1.00  0.00     0.031 A 
ENDBRANCH  15  18
ENDBRANCH   3   4
TORSDOF 2
ENDMDL
MODEL 3
REMARK VINA RESULT:      -7.2      2.733      5.623
REMARK  2 active torsions:
REMARK  status: ('A' for Active; 'I' for Inactive)
REMARK    1  A    between atoms: C3_3  and  C4_4 
REMARK       I    between atoms: C4_4  and  N1_6 
REMARK    2  A    between atoms: C10_12  and  C11_13 
ROOT
HETATM    1  C1  UNL     1      15.800  -0.412  49.873  1.00  0.00     0.112 C 
HETATM    2  C2  UNL     1      16.966   0.145  50.587  1.00  0.00    -0.101 C 
HETATM    3  C3  UNL     1      17.915   0.609  51.166  1.00  0.00    -0.005 C 
ENDROOT
BRANCH   3   4
HETATM    4  C4  UNL     1      19.051   1.174  51.835  1.00  0.00     0.303 C 
HETATM    5  O1  UNL     1      19.296   2.343  51.447  1.00  0.00    -0.258 OA
HETATM    6  N1  UNL     1      19.839   0.488  52.849  1.00  0.00    -0.304 N 
HETATM    7  C5  UNL     1      19.265  -0.874  53.100  1.00  0.00     0.098 C 
HETATM    8  C9  UNL     1      20.958   1.029  53.571  1.00  0.00     0.153 C 
HETATM    9  C6  UNL     1      20.297  -1.641  53.520  1.00  0.00     0.048 C 
HETATM   10  C7  UNL     1      21.119  -0.867  54.540  1.00  0.00     0.056 C 
HETATM   11  C8  UNL     1      20.786   0.398  54.948  1.00  0.00     0.035 C 
HETATM   12  N3  UNL     1      22.441  -1.396  54.968  1.00  0.00    -0.260 NA
HETATM   13  C19 UNL     1      23.579  -0.751  54.500  1.00  0.00     0.140 C 
HETATM   14  C17 UNL     1      23.542   0.345  53.442  1.00  0.00     0.071 C 
HETATM   15  C10 UNL     1      22.335   0.929  53.082  1.00  0.00     0.001 C 
HETATM   16  C18 UNL     1      24.758   0.705  52.823  1.00  0.00     0.101 C 
HETATM   17  N2  UNL     1      25.745   0.980  52.307  1.00  0.00    -0.191 NA
BRANCH  15  18
HETATM   18  C11 UNL     1      22.674   1.685  51.857  1.00  0.00    -0.025 A 
HETATM   19  C12 UNL     1      22.677   1.347  50.523  1.00  0.00     0.012 A 
HETATM   20  C13 UNL     1      22.984   2.256  49.548  1.00  0.00     0.002 A 
HETATM   21  C14 UNL     1      23.306   3.561  49.837  1.00  0.00     0.019 A 
HETATM   22  C15 UNL     1      23.315   3.940  51.158  1.00  0.00     0.011 A 
HETATM   23 BR1  UNL     1      23.774   5.766  51.458  1.00  0.00    -0.051 Br
HETATM   24  C16 UNL     1      23.001   3.015  52.162  1.00  0.00     0.031 A 
ENDBRANCH  15  18
ENDBRANCH   3   4
TORSDOF 2
ENDMDL
MODEL 4
REMARK VINA RESULT:      -6.9      3.523      6.561
REMARK  2 active torsions:
REMARK  status: ('A' for Active; 'I' for Inactive)
REMARK    1  A    between atoms: C3_3  and  C4_4 
REMARK       I    between atoms: C4_4  and  N1_6 
REMARK    2  A    between atoms: C10_12  and  C11_13 
ROOT
HETATM    1  C1  UNL     1      20.712   3.800  44.303  1.00  0.00     0.112 C 
HETATM    2  C2  UNL     1      21.323   4.025  45.627  1.00  0.00    -0.101 C 
HETATM    3  C3  UNL     1      21.831   4.214  46.704  1.00  0.00    -0.005 C 
ENDROOT
BRANCH   3   4
HETATM    4  C4  UNL     1      22.457   4.429  47.977  1.00  0.00     0.303 C 
HETATM    5  O1  UNL     1      23.073   5.522  48.024  1.00  0.00    -0.258 OA
HETATM    6  N1  UNL     1      22.394   3.498  49.095  1.00  0.00    -0.304 N 
HETATM    7  C5  UNL     1      21.560   2.310  48.720  1.00  0.00     0.098 C 
HETATM    8  C9  UNL     1      22.972   3.689  50.397  1.00  0.00     0.153 C 
HETATM    9  C6  UNL     1      22.020   1.281  49.468  1.00  0.00     0.048 C 
HETATM   10  C7  UNL     1      22.228   1.752  50.900  1.00  0.00     0.056 C 
HETATM   11  C8  UNL     1      21.941   3.030  51.306  1.00  0.00     0.035 C 
HETATM   12  N3  UNL     1      22.957   0.880  51.859  1.00  0.00    -0.260 NA
HETATM   13  C19 UNL     1      24.247   1.248  52.218  1.00  0.00     0.140 C 
HETATM   14  C17 UNL     1      25.006   2.388  51.551  1.00  0.00     0.071 C 
HETATM   15  C10 UNL     1      24.341   3.280  50.721  1.00  0.00     0.001 C 
HETATM   16  C18 UNL     1      26.398   2.471  51.772  1.00  0.00     0.101 C 
HETATM   17  N2  UNL     1      27.531   2.524  51.938  1.00  0.00    -0.191 NA
BRANCH  15  18
HETATM   18  C11 UNL     1      25.441   4.008  50.052  1.00  0.00    -0.025 A 
HETATM   19  C12 UNL     1      26.490   3.595  49.263  1.00  0.00     0.012 A 
HETATM   20  C13 UNL     1      27.366   4.482  48.702  1.00  0.00     0.002 A 
HETATM   21  C14 UNL     1      27.254   5.841  48.888  1.00  0.00     0.019 A 
HETATM   22  C15 UNL     1      26.219   6.296  49.669  1.00  0.00     0.011 A 
HETATM   23 BR1  UNL     1      26.147   8.191  49.868  1.00  0.00    -0.051 Br
HETATM   24  C16 UNL     1      25.318   5.393  50.247  1.00  0.00     0.031 A 
ENDBRANCH  15  18
ENDBRANCH   3   4
TORSDOF 2
ENDMDL
MODEL 5
REMARK VINA RESULT:      -6.7     10.318     12.417
REMARK  2 active torsions:
REMARK  status: ('A' for Active; 'I' for Inactive)
REMARK    1  A    between atoms: C3_3  and  C4_4 
REMARK       I    between atoms: C4_4  and  N1_6 
REMARK    2  A    between atoms: C10_12  and  C11_13 
ROOT
HETATM    1  C1  UNL     1      32.454   1.459  46.628  1.00  0.00     0.112 C 
HETATM    2  C2  UNL     1      32.204   2.830  47.115  1.00  0.00    -0.101 C 
HETATM    3  C3  UNL     1      32.011   3.951  47.515  1.00  0.00    -0.005 C 
ENDROOT
BRANCH   3   4
HETATM    4  C4  UNL     1      31.794   5.278  48.010  1.00  0.00     0.303 C 
HETATM    5  O1  UNL     1      30.698   5.386  48.614  1.00  0.00    -0.258 OA
HETATM    6  N1  UNL     1      32.726   6.385  47.843  1.00  0.00    -0.304 N 
HETATM    7  C5  UNL     1      33.944   5.915  47.105  1.00  0.00     0.098 C 
HETATM    8  C9  UNL     1      32.568   7.719  48.355  1.00  0.00     0.153 C 
HETATM    9  C6  UNL     1      34.433   7.001  46.465  1.00  0.00     0.048 C 
HETATM   10  C7  UNL     1      34.424   8.192  47.412  1.00  0.00     0.056 C 
HETATM   11  C8  UNL     1      34.000   8.097  48.712  1.00  0.00     0.035 C 
HETATM   12  N3  UNL     1      34.682   9.555  46.876  1.00  0.00    -0.260 NA
HETATM   13  C19 UNL     1      33.606  10.428  46.778  1.00  0.00     0.140 C 
HETATM   14  C17 UNL     1      32.163  10.003  47.021  1.00  0.00     0.071 C 
HETATM   15  C10 UNL     1      31.883   8.775  47.606  1.00  0.00     0.001 C 
HETATM   16  C18 UNL     1      31.139  10.877  46.596  1.00  0.00     0.101 C 
HETATM   17  N2  UNL     1      30.309  11.579  46.230  1.00  0.00    -0.191 NA
BRANCH  15  18
HETATM   18  C11 UNL     1      30.430   8.615  47.385  1.00  0.00    -0.025 A 
HETATM   19  C12 UNL     1      29.692   8.187  46.306  1.00  0.00     0.012 A 
HETATM   20  C13 UNL     1      28.330   8.071  46.361  1.00  0.00     0.002 A 
HETATM   21  C14 UNL     1      27.615   8.372  47.497  1.00  0.00     0.019 A 
HETATM   22  C15 UNL     1      28.314   8.804  48.598  1.00  0.00     0.011 A 
HETATM   23 BR1  UNL     1      27.236   9.196  50.121  1.00  0.00    -0.051 Br
HETATM   24  C16 UNL     1      29.708   8.924  48.548  1.00  0.00     0.031 A 
ENDBRANCH  15  18
ENDBRANCH   3   4
TORSDOF 2
ENDMDL
MODEL 6
REMARK VINA RESULT:      -6.6      8.677     11.312
REMARK  2 active torsions:
REMARK  status: ('A' for Active; 'I' for Inactive)
REMARK    1  A    between atoms: C3_3  and  C4_4 
REMARK       I    between atoms: C4_4  and  N1_6 
REMARK    2  A    between atoms: C10_12  and  C11_13 
ROOT
HETATM    1  C1  UNL     1      26.308   3.104  49.996  1.00  0.00     0.112 C 
HETATM    2  C2  UNL     1      26.890   4.265  49.294  1.00  0.00    -0.101 C 
HETATM    3  C3  UNL     1      27.368   5.217  48.731  1.00  0.00    -0.005 C 
ENDROOT
BRANCH   3   4
HETATM    4  C4  UNL     1      27.922   6.366  48.075  1.00  0.00     0.303 C 
HETATM    5  O1  UNL     1      29.004   6.103  47.493  1.00  0.00    -0.258 OA
HETATM    6  N1  UNL     1      27.314   7.689  48.072  1.00  0.00    -0.304 N 
HETATM    7  C5  UNL     1      26.021   7.654  48.829  1.00  0.00     0.098 C 
HETATM    8  C9  UNL     1      27.813   8.856  47.397  1.00  0.00     0.153 C 
HETATM    9  C6  UNL     1      25.838   8.905  49.311  1.00  0.00     0.048 C 
HETATM   10  C7  UNL     1      26.153   9.917  48.219  1.00  0.00     0.056 C 
HETATM   11  C8  UNL     1      26.528   9.545  46.954  1.00  0.00     0.035 C 
HETATM   12  N3  UNL     1      26.265  11.358  48.567  1.00  0.00    -0.260 NA
HETATM   13  C19 UNL     1      27.533  11.925  48.582  1.00  0.00     0.140 C 
HETATM   14  C17 UNL     1      28.813  11.111  48.437  1.00  0.00     0.071 C 
HETATM   15  C10 UNL     1      28.756   9.786  48.023  1.00  0.00     0.001 C 
HETATM   16  C18 UNL     1      30.033  11.735  48.775  1.00  0.00     0.101 C 
HETATM   17  N2  UNL     1      31.019  12.238  49.071  1.00  0.00    -0.191 NA
BRANCH  15  18
HETATM   18  C11 UNL     1      30.118   9.283  48.304  1.00  0.00    -0.025 A 
HETATM   19  C12 UNL     1      30.709   8.773  49.436  1.00  0.00     0.012 A 
HETATM   20  C13 UNL     1      31.997   8.312  49.435  1.00  0.00     0.002 A 
HETATM   21  C14 UNL     1      32.780   8.328  48.304  1.00  0.00     0.019 A 
HETATM   22  C15 UNL     1      32.227   8.831  47.151  1.00  0.00     0.011 A 
HETATM   23 BR1  UNL     1      33.389   8.811  45.639  1.00  0.00    -0.051 Br
HETATM   24  C16 UNL     1      30.909   9.303  47.145  1.00  0.00     0.031 A 
ENDBRANCH  15  18
ENDBRANCH   3   4
TORSDOF 2
ENDMDL
MODEL 7
REMARK VINA RESULT:      -6.6      3.904      7.011
REMARK  2 active torsions:
REMARK  status: ('A' for Active; 'I' for Inactive)
REMARK    1  A    between atoms: C3_3  and  C4_4 
REMARK       I    between atoms: C4_4  and  N1_6 
REMARK    2  A    between atoms: C10_12  and  C11_13 
ROOT
HETATM    1  C1  UNL     1      16.986   0.118  50.942  1.00  0.00     0.112 C 
HETATM    2  C2  UNL     1      18.369   0.510  50.607  1.00  0.00    -0.101 C 
HETATM    3  C3  UNL     1      19.496   0.840  50.333  1.00  0.00    -0.005 C 
ENDROOT
BRANCH   3   4
HETATM    4  C4  UNL     1      20.827   1.246  49.988  1.00  0.00     0.303 C 
HETATM    5  O1  UNL     1      21.697   0.650  50.670  1.00  0.00    -0.258 OA
HETATM    6  N1  UNL     1      21.151   2.233  48.968  1.00  0.00    -0.304 N 
HETATM    7  C5  UNL     1      19.891   2.730  48.324  1.00  0.00     0.098 C 
HETATM    8  C9  UNL     1      22.469   2.642  48.564  1.00  0.00     0.153 C 
HETATM    9  C6  UNL     1      20.162   3.982  47.892  1.00  0.00     0.048 C 
HETATM   10  C7  UNL     1      21.523   3.998  47.213  1.00  0.00     0.056 C 
HETATM   11  C8  UNL     1      22.289   2.871  47.068  1.00  0.00     0.035 C 
HETATM   12  N3  UNL     1      22.156   5.300  46.871  1.00  0.00    -0.260 NA
HETATM   13  C19 UNL     1      23.237   5.717  47.638  1.00  0.00     0.140 C 
HETATM   14  C17 UNL     1      23.686   5.000  48.906  1.00  0.00     0.071 C 
HETATM   15  C10 UNL     1      23.187   3.741  49.212  1.00  0.00     0.001 C 
HETATM   16  C18 UNL     1      24.581   5.677  49.763  1.00  0.00     0.101 C 
HETATM   17  N2  UNL     1      25.291   6.237  50.466  1.00  0.00    -0.191 NA
BRANCH  15  18
HETATM   18  C11 UNL     1      23.607   3.541  50.615  1.00  0.00    -0.025 A 
HETATM   19  C12 UNL     1      23.112   4.004  51.813  1.00  0.00     0.012 A 
HETATM   20  C13 UNL     1      23.651   3.628  53.012  1.00  0.00     0.002 A 
HETATM   21  C14 UNL     1      24.717   2.763  53.098  1.00  0.00     0.019 A 
HETATM   22  C15 UNL     1      25.242   2.276  51.925  1.00  0.00     0.011 A 
HETATM   23 BR1  UNL     1      26.716   1.087  52.146  1.00  0.00    -0.051 Br
HETATM   24  C16 UNL     1      24.695   2.657  50.693  1.00  0.00     0.031 A 
ENDBRANCH  15  18
ENDBRANCH   3   4
TORSDOF 2
ENDMDL
MODEL 8
REMARK VINA RESULT:      -6.6      5.046      6.802
REMARK  2 active torsions:
REMARK  status: ('A' for Active; 'I' for Inactive)
REMARK    1  A    between atoms: C3_3  and  C4_4 
REMARK       I    between atoms: C4_4  and  N1_6 
REMARK    2  A    between atoms: C10_12  and  C11_13 
ROOT
HETATM    1  C1  UNL     1      29.419   5.327  47.979  1.00  0.00     0.112 C 
HETATM    2  C2  UNL     1      28.069   5.146  48.546  1.00  0.00    -0.101 C 
HETATM    3  C3  UNL     1      26.963   5.008  49.007  1.00  0.00    -0.005 C 
ENDROOT
BRANCH   3   4
HETATM    4  C4  UNL     1      25.652   4.865  49.569  1.00  0.00     0.303 C 
HETATM    5  O1  UNL     1      25.408   3.681  49.909  1.00  0.00    -0.258 OA
HETATM    6  N1  UNL     1      24.700   5.955  49.734  1.00  0.00    -0.304 N 
HETATM    7  C5  UNL     1      25.312   7.238  49.256  1.00  0.00     0.098 C 
HETATM    8  C9  UNL     1      23.393   5.864  50.326  1.00  0.00     0.153 C 
HETATM    9  C6  UNL     1      24.279   8.017  48.859  1.00  0.00     0.048 C 
HETATM   10  C7  UNL     1      23.164   7.943  49.892  1.00  0.00     0.056 C 
HETATM   11  C8  UNL     1      23.272   7.205  51.041  1.00  0.00     0.035 C 
HETATM   12  N3  UNL     1      21.829   8.513  49.570  1.00  0.00    -0.260 NA
HETATM   13  C19 UNL     1      20.791   7.627  49.312  1.00  0.00     0.140 C 
HETATM   14  C17 UNL     1      20.994   6.123  49.169  1.00  0.00     0.071 C 
HETATM   15  C10 UNL     1      22.196   5.540  49.547  1.00  0.00     0.001 C 
HETATM   16  C18 UNL     1      19.943   5.367  48.606  1.00  0.00     0.101 C 
HETATM   17  N2  UNL     1      19.095   4.760  48.130  1.00  0.00    -0.191 NA
BRANCH  15  18
HETATM   18  C11 UNL     1      22.107   4.177  48.979  1.00  0.00    -0.025 A 
HETATM   19  C12 UNL     1      22.369   3.668  47.728  1.00  0.00     0.012 A 
HETATM   20  C13 UNL     1      22.262   2.333  47.453  1.00  0.00     0.002 A 
HETATM   21  C14 UNL     1      21.888   1.416  48.408  1.00  0.00     0.019 A 
HETATM   22  C15 UNL     1      21.617   1.883  49.672  1.00  0.00     0.011 A 
HETATM   23 BR1  UNL     1      21.107   0.537  50.923  1.00  0.00    -0.051 Br
HETATM   24  C16 UNL     1      21.725   3.249  49.960  1.00  0.00     0.031 A 
ENDBRANCH  15  18
ENDBRANCH   3   4
TORSDOF 2
ENDMDL
MODEL 9
REMARK VINA RESULT:      -6.6      4.159      6.270
REMARK  2 active torsions:
REMARK  status: ('A' for Active; 'I' for Inactive)
REMARK    1  A    between atoms: C3_3  and  C4_4 
REMARK       I    between atoms: C4_4  and  N1_6 
REMARK    2  A    between atoms: C10_12  and  C11_13 
ROOT
HETATM    1  C1  UNL     1      27.921   4.749  48.570  1.00  0.00     0.112 C 
HETATM    2  C2  UNL     1      26.617   4.632  49.251  1.00  0.00    -0.101 C 
HETATM    3  C3  UNL     1      25.555   4.544  49.815  1.00  0.00    -0.005 C 
ENDROOT
BRANCH   3   4
HETATM    4  C4  UNL     1      24.304   4.437  50.508  1.00  0.00     0.303 C 
HETATM    5  O1  UNL     1      24.315   3.519  51.366  1.00  0.00    -0.258 OA
HETATM    6  N1  UNL     1      23.147   5.284  50.259  1.00  0.00    -0.304 N 
HETATM    7  C5  UNL     1      23.475   6.292  49.199  1.00  0.00     0.098 C 
HETATM    8  C9  UNL     1      21.889   5.237  50.955  1.00  0.00     0.153 C 
HETATM    9  C6  UNL     1      22.301   6.596  48.599  1.00  0.00     0.048 C 
HETATM   10  C7  UNL     1      21.230   6.801  49.660  1.00  0.00     0.056 C 
HETATM   11  C8  UNL     1      21.493   6.708  51.002  1.00  0.00     0.035 C 
HETATM   12  N3  UNL     1      19.804   6.902  49.250  1.00  0.00    -0.260 NA
HETATM   13  C19 UNL     1      18.973   5.823  49.521  1.00  0.00     0.140 C 
HETATM   14  C17 UNL     1      19.485   4.488  50.049  1.00  0.00     0.071 C 
HETATM   15  C10 UNL     1      20.783   4.376  50.528  1.00  0.00     0.001 C 
HETATM   16  C18 UNL     1      18.613   3.379  49.992  1.00  0.00     0.101 C 
HETATM   17  N2  UNL     1      17.910   2.476  49.925  1.00  0.00    -0.191 NA
BRANCH  15  18
HETATM   18  C11 UNL     1      20.979   2.915  50.643  1.00  0.00    -0.025 A 
HETATM   19  C12 UNL     1      21.340   1.947  49.735  1.00  0.00     0.012 A 
HETATM   20  C13 UNL     1      21.513   0.641  50.100  1.00  0.00     0.002 A 
HETATM   21  C14 UNL     1      21.340   0.213  51.396  1.00  0.00     0.019 A 
HETATM   22  C15 UNL     1      20.979   1.149  52.336  1.00  0.00     0.011 A 
HETATM   23 BR1  UNL     1      20.762   0.460  54.100  1.00  0.00    -0.051 Br
HETATM   24  C16 UNL     1      20.801   2.488  51.969  1.00  0.00     0.031 A 
ENDBRANCH  15  18
ENDBRANCH   3   4
TORSDOF 2
ENDMDL
