MODEL 1
REMARK VINA RESULT:      -9.3      0.000      0.000
REMARK  6 active torsions:
REMARK  status: ('A' for Active; 'I' for Inactive)
REMARK    1  A    between atoms: C6_6  and  N1_7 
REMARK    2  A    between atoms: N1_7  and  C7_8 
REMARK    3  A    between atoms: N4_18  and  C15_19 
REMARK    4  A    between atoms: C15_19  and  C16_20 
REMARK    5  A    between atoms: C16_20  and  C17_21 
REMARK    6  A    between atoms: C17_21  and  N5_22 
ROOT
HETATM    1  C7  UNL     1      24.714  -0.472  54.161  1.00  0.00     0.138 A 
HETATM    2  N2  UNL     1      25.042  -1.096  55.305  1.00  0.00    -0.224 NA
HETATM    3  C8  UNL     1      24.081  -1.670  56.044  1.00  0.00     0.235 A 
HETATM    4  N3  UNL     1      22.806  -1.641  55.678  1.00  0.00    -0.241 NA
HETATM    5  C9  UNL     1      22.388  -1.030  54.534  1.00  0.00     0.075 A 
HETATM    6  C10 UNL     1      21.063  -1.005  54.163  1.00  0.00     0.071 A 
HETATM    7  C11 UNL     1      20.718  -0.367  52.990  1.00  0.00     0.098 A 
HETATM    8  C12 UNL     1      21.717   0.218  52.241  1.00  0.00     0.071 A 
HETATM    9  C13 UNL     1      23.018   0.182  52.625  1.00  0.00     0.050 A 
HETATM   10  C14 UNL     1      23.387  -0.445  53.786  1.00  0.00     0.041 A 
HETATM   11  N4  UNL     1      21.339   0.871  51.036  1.00  0.00    -0.314 N 
HETATM   12  C23 UNL     1      19.930   0.850  50.726  1.00  0.00     0.248 C 
HETATM   13  O1  UNL     1      19.614   1.120  49.530  1.00  0.00    -0.271 OA
HETATM   14  C24 UNL     1      18.849   0.540  51.689  1.00  0.00     0.279 C 
HETATM   15  O2  UNL     1      19.374  -0.362  52.646  1.00  0.00    -0.340 OA
ENDROOT
BRANCH  11  16
HETATM   16  C15 UNL     1      22.226   1.516  50.159  1.00  0.00     0.134 C 
BRANCH  16  17
HETATM   17  C16 UNL     1      22.267   3.006  50.134  1.00  0.00     0.050 C 
BRANCH  17  18
HETATM   18  C17 UNL     1      23.362   3.540  49.235  1.00  0.00     0.274 C 
BRANCH  18  19
HETATM   19  N5  UNL     1      24.148   4.555  49.910  1.00  0.00     0.088 N 
HETATM   20  C18 UNL     1      24.975   5.303  48.985  1.00  0.00     0.272 C 
HETATM   21  C19 UNL     1      26.446   5.042  49.143  1.00  0.00     0.030 C 
HETATM   22  C20 UNL     1      26.790   3.595  49.354  1.00  0.00     0.003 C 
HETATM   23  C21 UNL     1      25.980   3.026  50.490  1.00  0.00     0.030 C 
HETATM   24  C22 UNL     1      24.951   4.024  50.967  1.00  0.00     0.272 C 
ENDBRANCH  18  19
ENDBRANCH  17  18
ENDBRANCH  16  17
ENDBRANCH  11  16
BRANCH   1  25
HETATM   25  N1  UNL     1      25.772   0.127  53.403  1.00  0.00    -0.362 N 
HETATM   26  H8  UNL     1      25.797   0.275  52.381  1.00  0.00     0.162 HD
BRANCH  25  27
HETATM   27  C6  UNL     1      26.933   0.582  54.108  1.00  0.00     0.135 A 
HETATM   28  C2  UNL     1      28.218   0.096  53.543  1.00  0.00    -0.058 A 
HETATM   29  C1  UNL     1      28.685  -1.304  53.401  1.00  0.00     0.046 C 
HETATM   30  C3  UNL     1      28.982   1.105  53.136  1.00  0.00     0.005 A 
HETATM   31  C4  UNL     1      28.295   2.370  53.386  1.00  0.00    -0.001 A 
HETATM   32  C5  UNL     1      27.115   2.069  53.946  1.00  0.00     0.003 A 
ENDBRANCH  25  27
ENDBRANCH   1  25
TORSDOF 6
ENDMDL
MODEL 2
REMARK VINA RESULT:      -8.8      2.673      5.774
REMARK  6 active torsions:
REMARK  status: ('A' for Active; 'I' for Inactive)
REMARK    1  A    between atoms: C6_6  and  N1_7 
REMARK    2  A    between atoms: N1_7  and  C7_8 
REMARK    3  A    between atoms: N4_18  and  C15_19 
REMARK    4  A    between atoms: C15_19  and  C16_20 
REMARK    5  A    between atoms: C16_20  and  C17_21 
REMARK    6  A    between atoms: C17_21  and  N5_22 
ROOT
HETATM    1  C7  UNL     1      21.871   0.614  53.213  1.00  0.00     0.138 A 
HETATM    2  N2  UNL     1      20.892  -0.150  53.726  1.00  0.00    -0.224 NA
HETATM    3  C8  UNL     1      21.206  -1.163  54.547  1.00  0.00     0.235 A 
HETATM    4  N3  UNL     1      22.463  -1.437  54.872  1.00  0.00    -0.241 NA
HETATM    5  C9  UNL     1      23.514  -0.712  54.396  1.00  0.00     0.075 A 
HETATM    6  C10 UNL     1      24.815  -1.004  54.738  1.00  0.00     0.071 A 
HETATM    7  C11 UNL     1      25.826  -0.223  54.217  1.00  0.00     0.098 A 
HETATM    8  C12 UNL     1      25.487   0.814  53.374  1.00  0.00     0.071 A 
HETATM    9  C13 UNL     1      24.197   1.085  53.049  1.00  0.00     0.050 A 
HETATM   10  C14 UNL     1      23.175   0.325  53.554  1.00  0.00     0.041 A 
HETATM   11  N4  UNL     1      26.544   1.605  52.846  1.00  0.00    -0.314 N 
HETATM   12  C23 UNL     1      27.875   1.228  53.257  1.00  0.00     0.248 C 
HETATM   13  O1  UNL     1      28.784   2.092  53.080  1.00  0.00    -0.271 OA
HETATM   14  C24 UNL     1      28.246  -0.073  53.858  1.00  0.00     0.279 C 
HETATM   15  O2  UNL     1      27.124  -0.545  54.583  1.00  0.00    -0.340 OA
ENDROOT
BRANCH  11  16
HETATM   16  C15 UNL     1      26.376   2.695  51.977  1.00  0.00     0.134 C 
BRANCH  16  17
HETATM   17  C16 UNL     1      26.451   2.468  50.507  1.00  0.00     0.050 C 
BRANCH  17  18
HETATM   18  C17 UNL     1      25.410   3.264  49.745  1.00  0.00     0.274 C 
BRANCH  18  19
HETATM   19  N5  UNL     1      24.916   4.375  50.535  1.00  0.00     0.088 N 
HETATM   20  C18 UNL     1      23.476   4.340  50.677  1.00  0.00     0.272 C 
HETATM   21  C19 UNL     1      22.769   5.445  49.945  1.00  0.00     0.030 C 
HETATM   22  C20 UNL     1      23.317   5.715  48.572  1.00  0.00     0.003 C 
HETATM   23  C21 UNL     1      24.807   5.928  48.636  1.00  0.00     0.030 C 
HETATM   24  C22 UNL     1      25.329   5.645  50.026  1.00  0.00     0.272 C 
ENDBRANCH  18  19
ENDBRANCH  17  18
ENDBRANCH  16  17
ENDBRANCH  11  16
BRANCH   1  25
HETATM   25  N1  UNL     1      21.490   1.685  52.341  1.00  0.00    -0.362 N 
HETATM   26  H8  UNL     1      21.774   2.676  52.414  1.00  0.00     0.162 HD
BRANCH  25  27
HETATM   27  C6  UNL     1      20.626   1.383  51.239  1.00  0.00     0.135 A 
HETATM   28  C2  UNL     1      20.203   2.571  50.454  1.00  0.00    -0.058 A 
HETATM   29  C1  UNL     1      19.427   3.747  50.916  1.00  0.00     0.046 C 
HETATM   30  C3  UNL     1      20.614   2.491  49.192  1.00  0.00     0.005 A 
HETATM   31  C4  UNL     1      21.352   1.244  48.996  1.00  0.00    -0.001 A 
HETATM   32  C5  UNL     1      21.358   0.607  50.176  1.00  0.00     0.003 A 
ENDBRANCH  25  27
ENDBRANCH   1  25
TORSDOF 6
ENDMDL
MODEL 3
REMARK VINA RESULT:      -8.5      1.782      4.076
REMARK  6 active torsions:
REMARK  status: ('A' for Active; 'I' for Inactive)
REMARK    1  A    between atoms: C6_6  and  N1_7 
REMARK    2  A    between atoms: N1_7  and  C7_8 
REMARK    3  A    between atoms: N4_18  and  C15_19 
REMARK    4  A    between atoms: C15_19  and  C16_20 
REMARK    5  A    between atoms: C16_20  and  C17_21 
REMARK    6  A    between atoms: C17_21  and  N5_22 
ROOT
HETATM    1  C7  UNL     1      26.005   1.707  53.485  1.00  0.00     0.138 A 
HETATM    2  N2  UNL     1      27.231   1.440  53.965  1.00  0.00    -0.224 NA
HETATM    3  C8  UNL     1      27.429   0.333  54.694  1.00  0.00     0.235 A 
HETATM    4  N3  UNL     1      26.444  -0.516  54.959  1.00  0.00    -0.241 NA
HETATM    5  C9  UNL     1      25.172  -0.321  54.511  1.00  0.00     0.075 A 
HETATM    6  C10 UNL     1      24.156  -1.207  54.791  1.00  0.00     0.071 A 
HETATM    7  C11 UNL     1      22.895  -0.941  54.301  1.00  0.00     0.098 A 
HETATM    8  C12 UNL     1      22.708   0.202  53.553  1.00  0.00     0.071 A 
HETATM    9  C13 UNL     1      23.723   1.063  53.288  1.00  0.00     0.050 A 
HETATM   10  C14 UNL     1      24.985   0.822  53.763  1.00  0.00     0.041 A 
HETATM   11  N4  UNL     1      21.399   0.458  53.059  1.00  0.00    -0.314 N 
HETATM   12  C23 UNL     1      20.396  -0.522  53.401  1.00  0.00     0.248 C 
HETATM   13  O1  UNL     1      19.332  -0.500  52.716  1.00  0.00    -0.271 OA
HETATM   14  C24 UNL     1      20.523  -1.532  54.476  1.00  0.00     0.279 C 
HETATM   15  O2  UNL     1      21.896  -1.855  54.602  1.00  0.00    -0.340 OA
ENDROOT
BRANCH  11  16
HETATM   16  C15 UNL     1      21.035   1.571  52.284  1.00  0.00     0.134 C 
BRANCH  16  17
HETATM   17  C16 UNL     1      21.337   1.568  50.825  1.00  0.00     0.050 C 
BRANCH  17  18
HETATM   18  C17 UNL     1      20.304   2.329  50.019  1.00  0.00     0.274 C 
BRANCH  18  19
HETATM   19  N5  UNL     1      20.389   1.999  48.609  1.00  0.00     0.088 N 
HETATM   20  C18 UNL     1      21.686   1.459  48.258  1.00  0.00     0.272 C 
HETATM   21  C19 UNL     1      22.504   2.369  47.387  1.00  0.00     0.030 C 
HETATM   22  C20 UNL     1      22.451   3.814  47.794  1.00  0.00     0.003 C 
HETATM   23  C21 UNL     1      21.020   4.269  47.919  1.00  0.00     0.030 C 
HETATM   24  C22 UNL     1      20.071   3.104  47.760  1.00  0.00     0.272 C 
ENDBRANCH  18  19
ENDBRANCH  17  18
ENDBRANCH  16  17
ENDBRANCH  11  16
BRANCH   1  25
HETATM   25  N1  UNL     1      25.839   2.901  52.711  1.00  0.00    -0.362 N 
HETATM   26  H8  UNL     1      25.999   3.872  53.024  1.00  0.00     0.162 HD
BRANCH  25  27
HETATM   27  C6  UNL     1      25.408   2.768  51.350  1.00  0.00     0.135 A 
HETATM   28  C2  UNL     1      24.777   3.990  50.790  1.00  0.00    -0.058 A 
HETATM   29  C1  UNL     1      23.551   4.683  51.254  1.00  0.00     0.046 C 
HETATM   30  C3  UNL     1      25.459   4.456  49.749  1.00  0.00     0.005 A 
HETATM   31  C4  UNL     1      26.617   3.599  49.500  1.00  0.00    -0.001 A 
HETATM   32  C5  UNL     1      26.587   2.627  50.423  1.00  0.00     0.003 A 
ENDBRANCH  25  27
ENDBRANCH   1  25
TORSDOF 6
ENDMDL
MODEL 4
REMARK VINA RESULT:      -8.3      1.753      2.773
REMARK  6 active torsions:
REMARK  status: ('A' for Active; 'I' for Inactive)
REMARK    1  A    between atoms: C6_6  and  N1_7 
REMARK    2  A    between atoms: N1_7  and  C7_8 
REMARK    3  A    between atoms: N4_18  and  C15_19 
REMARK    4  A    between atoms: C15_19  and  C16_20 
REMARK    5  A    between atoms: C16_20  and  C17_21 
REMARK    6  A    between atoms: C17_21  and  N5_22 
ROOT
HETATM    1  C7  UNL     1      23.417  -0.110  53.136  1.00  0.00     0.138 A 
HETATM    2  N2  UNL     1      23.170  -0.739  54.297  1.00  0.00    -0.224 NA
HETATM    3  C8  UNL     1      21.901  -0.951  54.677  1.00  0.00     0.235 A 
HETATM    4  N3  UNL     1      20.873  -0.556  53.937  1.00  0.00    -0.241 NA
HETATM    5  C9  UNL     1      21.036   0.088  52.747  1.00  0.00     0.075 A 
HETATM    6  C10 UNL     1      19.963   0.494  51.986  1.00  0.00     0.071 A 
HETATM    7  C11 UNL     1      20.209   1.140  50.792  1.00  0.00     0.098 A 
HETATM    8  C12 UNL     1      21.518   1.351  50.415  1.00  0.00     0.071 A 
HETATM    9  C13 UNL     1      22.562   0.943  51.181  1.00  0.00     0.050 A 
HETATM   10  C14 UNL     1      22.345   0.298  52.371  1.00  0.00     0.041 A 
HETATM   11  N4  UNL     1      21.748   2.020  49.182  1.00  0.00    -0.314 N 
HETATM   12  C23 UNL     1      20.567   2.411  48.450  1.00  0.00     0.248 C 
HETATM   13  O1  UNL     1      20.733   2.697  47.228  1.00  0.00    -0.271 OA
HETATM   14  C24 UNL     1      19.203   2.499  49.017  1.00  0.00     0.279 C 
HETATM   15  O2  UNL     1      19.105   1.535  50.050  1.00  0.00    -0.340 OA
ENDROOT
BRANCH  11  16
HETATM   16  C15 UNL     1      23.014   2.314  48.651  1.00  0.00     0.134 C 
BRANCH  16  17
HETATM   17  C16 UNL     1      23.810   3.425  49.246  1.00  0.00     0.050 C 
BRANCH  17  18
HETATM   18  C17 UNL     1      23.156   4.776  49.048  1.00  0.00     0.274 C 
BRANCH  18  19
HETATM   19  N5  UNL     1      23.363   5.634  50.199  1.00  0.00     0.088 N 
HETATM   20  C18 UNL     1      23.931   4.911  51.317  1.00  0.00     0.272 C 
HETATM   21  C19 UNL     1      22.987   4.749  52.474  1.00  0.00     0.030 C 
HETATM   22  C20 UNL     1      21.583   4.397  52.072  1.00  0.00     0.003 C 
HETATM   23  C21 UNL     1      21.073   5.374  51.046  1.00  0.00     0.030 C 
HETATM   24  C22 UNL     1      22.173   6.313  50.606  1.00  0.00     0.272 C 
ENDBRANCH  18  19
ENDBRANCH  17  18
ENDBRANCH  16  17
ENDBRANCH  11  16
BRANCH   1  25
HETATM   25  N1  UNL     1      24.786   0.096  52.769  1.00  0.00    -0.362 N 
HETATM   26  H8  UNL     1      25.138   0.549  51.910  1.00  0.00     0.162 HD
BRANCH  25  27
HETATM   27  C6  UNL     1      25.802  -0.363  53.670  1.00  0.00     0.135 A 
HETATM   28  C2  UNL     1      26.940  -1.049  53.005  1.00  0.00    -0.058 A 
HETATM   29  C1  UNL     1      26.914  -2.286  52.189  1.00  0.00     0.046 C 
HETATM   30  C3  UNL     1      28.085  -0.408  53.218  1.00  0.00     0.005 A 
HETATM   31  C4  UNL     1      27.839   0.771  54.045  1.00  0.00    -0.001 A 
HETATM   32  C5  UNL     1      26.523   0.797  54.305  1.00  0.00     0.003 A 
ENDBRANCH  25  27
ENDBRANCH   1  25
TORSDOF 6
ENDMDL
MODEL 5
REMARK VINA RESULT:      -8.3      2.724      5.839
REMARK  6 active torsions:
REMARK  status: ('A' for Active; 'I' for Inactive)
REMARK    1  A    between atoms: C6_6  and  N1_7 
REMARK    2  A    between atoms: N1_7  and  C7_8 
REMARK    3  A    between atoms: N4_18  and  C15_19 
REMARK    4  A    between atoms: C15_19  and  C16_20 
REMARK    5  A    between atoms: C16_20  and  C17_21 
REMARK    6  A    between atoms: C17_21  and  N5_22 
ROOT
HETATM    1  C7  UNL     1      24.595   1.438  52.527  1.00  0.00     0.138 A 
HETATM    2  N2  UNL     1      25.643   0.617  52.706  1.00  0.00    -0.224 NA
HETATM    3  C8  UNL     1      26.781   0.841  52.032  1.00  0.00     0.235 A 
HETATM    4  N3  UNL     1      26.906   1.857  51.188  1.00  0.00    -0.241 NA
HETATM    5  C9  UNL     1      25.893   2.736  50.948  1.00  0.00     0.075 A 
HETATM    6  C10 UNL     1      26.031   3.787  50.070  1.00  0.00     0.071 A 
HETATM    7  C11 UNL     1      24.960   4.635  49.882  1.00  0.00     0.098 A 
HETATM    8  C12 UNL     1      23.797   4.391  50.582  1.00  0.00     0.071 A 
HETATM    9  C13 UNL     1      23.681   3.349  51.443  1.00  0.00     0.050 A 
HETATM   10  C14 UNL     1      24.730   2.492  51.648  1.00  0.00     0.041 A 
HETATM   11  N4  UNL     1      22.705   5.277  50.371  1.00  0.00    -0.314 N 
HETATM   12  C23 UNL     1      22.938   6.349  49.433  1.00  0.00     0.248 C 
HETATM   13  O1  UNL     1      22.126   7.320  49.477  1.00  0.00    -0.271 OA
HETATM   14  C24 UNL     1      24.037   6.392  48.443  1.00  0.00     0.279 C 
HETATM   15  O2  UNL     1      25.134   5.683  48.990  1.00  0.00    -0.340 OA
ENDROOT
BRANCH  11  16
HETATM   16  C15 UNL     1      21.453   5.174  51.000  1.00  0.00     0.134 C 
BRANCH  16  17
HETATM   17  C16 UNL     1      20.478   4.159  50.512  1.00  0.00     0.050 C 
BRANCH  17  18
HETATM   18  C17 UNL     1      20.071   4.392  49.072  1.00  0.00     0.274 C 
BRANCH  18  19
HETATM   19  N5  UNL     1      19.863   3.138  48.374  1.00  0.00     0.088 N 
HETATM   20  C18 UNL     1      20.369   2.009  49.128  1.00  0.00     0.272 C 
HETATM   21  C19 UNL     1      21.573   1.360  48.508  1.00  0.00     0.030 C 
HETATM   22  C20 UNL     1      22.583   2.333  47.970  1.00  0.00     0.003 C 
HETATM   23  C21 UNL     1      21.918   3.316  47.042  1.00  0.00     0.030 C 
HETATM   24  C22 UNL     1      20.418   3.137  47.057  1.00  0.00     0.272 C 
ENDBRANCH  18  19
ENDBRANCH  17  18
ENDBRANCH  16  17
ENDBRANCH  11  16
BRANCH   1  25
HETATM   25  N1  UNL     1      23.400   1.162  53.267  1.00  0.00    -0.362 N 
HETATM   26  H8  UNL     1      22.981   1.744  54.010  1.00  0.00     0.162 HD
BRANCH  25  27
HETATM   27  C6  UNL     1      22.683  -0.043  52.967  1.00  0.00     0.135 A 
HETATM   28  C2  UNL     1      22.149  -0.746  54.161  1.00  0.00    -0.058 A 
HETATM   29  C1  UNL     1      22.903  -1.318  55.302  1.00  0.00     0.046 C 
HETATM   30  C3  UNL     1      20.823  -0.828  54.122  1.00  0.00     0.005 A 
HETATM   31  C4  UNL     1      20.328  -0.192  52.903  1.00  0.00    -0.001 A 
HETATM   32  C5  UNL     1      21.401   0.261  52.238  1.00  0.00     0.003 A 
ENDBRANCH  25  27
ENDBRANCH   1  25
TORSDOF 6
ENDMDL
MODEL 6
REMARK VINA RESULT:      -8.2      2.206      5.132
REMARK  6 active torsions:
REMARK  status: ('A' for Active; 'I' for Inactive)
REMARK    1  A    between atoms: C6_6  and  N1_7 
REMARK    2  A    between atoms: N1_7  and  C7_8 
REMARK    3  A    between atoms: N4_18  and  C15_19 
REMARK    4  A    between atoms: C15_19  and  C16_20 
REMARK    5  A    between atoms: C16_20  and  C17_21 
REMARK    6  A    between atoms: C17_21  and  N5_22 
ROOT
HETATM    1  C7  UNL     1      24.753   2.752  51.441  1.00  0.00     0.138 A 
HETATM    2  N2  UNL     1      26.092   2.842  51.381  1.00  0.00    -0.224 NA
HETATM    3  C8  UNL     1      26.845   1.901  51.969  1.00  0.00     0.235 A 
HETATM    4  N3  UNL     1      26.306   0.874  52.613  1.00  0.00    -0.241 NA
HETATM    5  C9  UNL     1      24.958   0.706  52.720  1.00  0.00     0.075 A 
HETATM    6  C10 UNL     1      24.407  -0.362  53.391  1.00  0.00     0.071 A 
HETATM    7  C11 UNL     1      23.033  -0.463  53.456  1.00  0.00     0.098 A 
HETATM    8  C12 UNL     1      22.273   0.513  52.847  1.00  0.00     0.071 A 
HETATM    9  C13 UNL     1      22.835   1.559  52.191  1.00  0.00     0.050 A 
HETATM   10  C14 UNL     1      24.198   1.682  52.112  1.00  0.00     0.041 A 
HETATM   11  N4  UNL     1      20.858   0.390  52.928  1.00  0.00    -0.314 N 
HETATM   12  C23 UNL     1      20.368  -0.760  53.650  1.00  0.00     0.248 C 
HETATM   13  O1  UNL     1      19.156  -1.070  53.457  1.00  0.00    -0.271 OA
HETATM   14  C24 UNL     1      21.168  -1.586  54.582  1.00  0.00     0.279 C 
HETATM   15  O2  UNL     1      22.513  -1.552  54.139  1.00  0.00    -0.340 OA
ENDROOT
BRANCH  11  16
HETATM   16  C15 UNL     1      19.940   1.291  52.367  1.00  0.00     0.134 C 
BRANCH  16  17
HETATM   17  C16 UNL     1      19.521   1.111  50.948  1.00  0.00     0.050 C 
BRANCH  17  18
HETATM   18  C17 UNL     1      19.913   2.285  50.075  1.00  0.00     0.274 C 
BRANCH  18  19
HETATM   19  N5  UNL     1      20.206   1.859  48.720  1.00  0.00     0.088 N 
HETATM   20  C18 UNL     1      21.560   1.362  48.591  1.00  0.00     0.272 C 
HETATM   21  C19 UNL     1      22.452   2.248  47.769  1.00  0.00     0.030 C 
HETATM   22  C20 UNL     1      22.284   3.714  48.050  1.00  0.00     0.003 C 
HETATM   23  C21 UNL     1      20.832   4.102  47.944  1.00  0.00     0.030 C 
HETATM   24  C22 UNL     1      19.963   2.881  47.752  1.00  0.00     0.272 C 
ENDBRANCH  18  19
ENDBRANCH  17  18
ENDBRANCH  16  17
ENDBRANCH  11  16
BRANCH   1  25
HETATM   25  N1  UNL     1      23.987   3.778  50.800  1.00  0.00    -0.362 N 
HETATM   26  H8  UNL     1      23.639   3.778  49.828  1.00  0.00     0.162 HD
BRANCH  25  27
HETATM   27  C6  UNL     1      23.649   4.944  51.562  1.00  0.00     0.135 A 
HETATM   28  C2  UNL     1      23.964   6.227  50.883  1.00  0.00    -0.058 A 
HETATM   29  C1  UNL     1      25.287   6.732  50.444  1.00  0.00     0.046 C 
HETATM   30  C3  UNL     1      22.867   6.951  50.682  1.00  0.00     0.005 A 
HETATM   31  C4  UNL     1      21.705   6.234  51.203  1.00  0.00    -0.001 A 
HETATM   32  C5  UNL     1      22.156   5.078  51.710  1.00  0.00     0.003 A 
ENDBRANCH  25  27
ENDBRANCH   1  25
TORSDOF 6
ENDMDL
MODEL 7
REMARK VINA RESULT:      -8.1      2.336      6.729
REMARK  6 active torsions:
REMARK  status: ('A' for Active; 'I' for Inactive)
REMARK    1  A    between atoms: C6_6  and  N1_7 
REMARK    2  A    between atoms: N1_7  and  C7_8 
REMARK    3  A    between atoms: N4_18  and  C15_19 
REMARK    4  A    between atoms: C15_19  and  C16_20 
REMARK    5  A    between atoms: C16_20  and  C17_21 
REMARK    6  A    between atoms: C17_21  and  N5_22 
ROOT
HETATM    1  C7  UNL     1      24.391   2.638  50.621  1.00  0.00     0.138 A 
HETATM    2  N2  UNL     1      25.386   3.325  50.037  1.00  0.00    -0.224 NA
HETATM    3  C8  UNL     1      26.640   3.190  50.494  1.00  0.00     0.235 A 
HETATM    4  N3  UNL     1      26.931   2.392  51.514  1.00  0.00    -0.241 NA
HETATM    5  C9  UNL     1      25.982   1.661  52.162  1.00  0.00     0.075 A 
HETATM    6  C10 UNL     1      26.293   0.836  53.220  1.00  0.00     0.071 A 
HETATM    7  C11 UNL     1      25.276   0.126  53.825  1.00  0.00     0.098 A 
HETATM    8  C12 UNL     1      23.993   0.276  53.343  1.00  0.00     0.071 A 
HETATM    9  C13 UNL     1      23.707   1.095  52.299  1.00  0.00     0.050 A 
HETATM   10  C14 UNL     1      24.698   1.811  51.681  1.00  0.00     0.041 A 
HETATM   11  N4  UNL     1      22.960  -0.463  53.982  1.00  0.00    -0.314 N 
HETATM   12  C23 UNL     1      23.376  -1.301  55.082  1.00  0.00     0.248 C 
HETATM   13  O1  UNL     1      22.561  -2.200  55.443  1.00  0.00    -0.271 OA
HETATM   14  C24 UNL     1      24.663  -1.184  55.803  1.00  0.00     0.279 C 
HETATM   15  O2  UNL     1      25.626  -0.695  54.886  1.00  0.00    -0.340 OA
ENDROOT
BRANCH  11  16
HETATM   16  C15 UNL     1      21.604  -0.427  53.621  1.00  0.00     0.134 C 
BRANCH  16  17
HETATM   17  C16 UNL     1      20.772   0.737  54.038  1.00  0.00     0.050 C 
BRANCH  17  18
HETATM   18  C17 UNL     1      20.037   1.369  52.874  1.00  0.00     0.274 C 
BRANCH  18  19
HETATM   19  N5  UNL     1      19.850   0.420  51.793  1.00  0.00     0.088 N 
HETATM   20  C18 UNL     1      20.315   0.945  50.526  1.00  0.00     0.272 C 
HETATM   21  C19 UNL     1      19.212   1.227  49.547  1.00  0.00     0.030 C 
HETATM   22  C20 UNL     1      18.006   1.882  50.158  1.00  0.00     0.003 C 
HETATM   23  C21 UNL     1      17.530   1.092  51.349  1.00  0.00     0.030 C 
HETATM   24  C22 UNL     1      18.496  -0.024  51.673  1.00  0.00     0.272 C 
ENDBRANCH  18  19
ENDBRANCH  17  18
ENDBRANCH  16  17
ENDBRANCH  11  16
BRANCH   1  25
HETATM   25  N1  UNL     1      23.067   2.812  50.101  1.00  0.00    -0.362 N 
HETATM   26  H8  UNL     1      22.426   2.072  49.773  1.00  0.00     0.162 HD
BRANCH  25  27
HETATM   27  C6  UNL     1      22.546   4.145  50.014  1.00  0.00     0.135 A 
HETATM   28  C2  UNL     1      21.679   4.383  48.832  1.00  0.00    -0.058 A 
HETATM   29  C1  UNL     1      22.038   4.284  47.397  1.00  0.00     0.046 C 
HETATM   30  C3  UNL     1      20.446   4.720  49.195  1.00  0.00     0.005 A 
HETATM   31  C4  UNL     1      20.354   4.745  50.654  1.00  0.00    -0.001 A 
HETATM   32  C5  UNL     1      21.565   4.413  51.125  1.00  0.00     0.003 A 
ENDBRANCH  25  27
ENDBRANCH   1  25
TORSDOF 6
ENDMDL
MODEL 8
REMARK VINA RESULT:      -8.0      2.754      6.334
REMARK  6 active torsions:
REMARK  status: ('A' for Active; 'I' for Inactive)
REMARK    1  A    between atoms: C6_6  and  N1_7 
REMARK    2  A    between atoms: N1_7  and  C7_8 
REMARK    3  A    between atoms: N4_18  and  C15_19 
REMARK    4  A    between atoms: C15_19  and  C16_20 
REMARK    5  A    between atoms: C16_20  and  C17_21 
REMARK    6  A    between atoms: C17_21  and  N5_22 
ROOT
HETATM    1  C7  UNL     1      23.737   0.676  52.855  1.00  0.00     0.138 A 
HETATM    2  N2  UNL     1      24.228  -0.350  53.569  1.00  0.00    -0.224 NA
HETATM    3  C8  UNL     1      25.548  -0.586  53.567  1.00  0.00     0.235 A 
HETATM    4  N3  UNL     1      26.393   0.169  52.876  1.00  0.00    -0.241 NA
HETATM    5  C9  UNL     1      25.979   1.228  52.126  1.00  0.00     0.075 A 
HETATM    6  C10 UNL     1      26.862   2.006  51.411  1.00  0.00     0.071 A 
HETATM    7  C11 UNL     1      26.367   3.062  50.676  1.00  0.00     0.098 A 
HETATM    8  C12 UNL     1      25.007   3.291  50.688  1.00  0.00     0.071 A 
HETATM    9  C13 UNL     1      24.153   2.512  51.399  1.00  0.00     0.050 A 
HETATM   10  C14 UNL     1      24.619   1.457  52.138  1.00  0.00     0.041 A 
HETATM   11  N4  UNL     1      24.517   4.383  49.921  1.00  0.00    -0.314 N 
HETATM   12  C23 UNL     1      25.513   5.143  49.204  1.00  0.00     0.248 C 
HETATM   13  O1  UNL     1      25.160   6.289  48.796  1.00  0.00    -0.271 OA
HETATM   14  C24 UNL     1      26.891   4.685  48.916  1.00  0.00     0.279 C 
HETATM   15  O2  UNL     1      27.285   3.824  49.969  1.00  0.00    -0.340 OA
ENDROOT
BRANCH  11  16
HETATM   16  C15 UNL     1      23.167   4.755  49.823  1.00  0.00     0.134 C 
BRANCH  16  17
HETATM   17  C16 UNL     1      22.316   4.127  48.773  1.00  0.00     0.050 C 
BRANCH  17  18
HETATM   18  C17 UNL     1      21.065   3.494  49.345  1.00  0.00     0.274 C 
BRANCH  18  19
HETATM   19  N5  UNL     1      20.255   4.471  50.048  1.00  0.00     0.088 N 
HETATM   20  C18 UNL     1      19.793   3.972  51.326  1.00  0.00     0.272 C 
HETATM   21  C19 UNL     1      18.312   3.728  51.380  1.00  0.00     0.030 C 
HETATM   22  C20 UNL     1      17.756   3.074  50.147  1.00  0.00     0.003 C 
HETATM   23  C21 UNL     1      18.168   3.841  48.918  1.00  0.00     0.030 C 
HETATM   24  C22 UNL     1      19.148   4.935  49.272  1.00  0.00     0.272 C 
ENDBRANCH  18  19
ENDBRANCH  17  18
ENDBRANCH  16  17
ENDBRANCH  11  16
BRANCH   1  25
HETATM   25  N1  UNL     1      22.322   0.891  52.886  1.00  0.00    -0.362 N 
HETATM   26  H8  UNL     1      21.828   1.730  53.232  1.00  0.00     0.162 HD
BRANCH  25  27
HETATM   27  C6  UNL     1      21.470  -0.149  52.389  1.00  0.00     0.135 A 
HETATM   28  C2  UNL     1      20.643  -0.808  53.431  1.00  0.00    -0.058 A 
HETATM   29  C1  UNL     1      21.100  -1.564  54.621  1.00  0.00     0.046 C 
HETATM   30  C3  UNL     1      19.344  -0.650  53.193  1.00  0.00     0.005 A 
HETATM   31  C4  UNL     1      19.163   0.128  51.969  1.00  0.00    -0.001 A 
HETATM   32  C5  UNL     1      20.388   0.417  51.506  1.00  0.00     0.003 A 
ENDBRANCH  25  27
ENDBRANCH   1  25
TORSDOF 6
ENDMDL
MODEL 9
REMARK VINA RESULT:      -7.9      2.165      2.767
REMARK  6 active torsions:
REMARK  status: ('A' for Active; 'I' for Inactive)
REMARK    1  A    between atoms: C6_6  and  N1_7 
REMARK    2  A    between atoms: N1_7  and  C7_8 
REMARK    3  A    between atoms: N4_18  and  C15_19 
REMARK    4  A    between atoms: C15_19  and  C16_20 
REMARK    5  A    between atoms: C16_20  and  C17_21 
REMARK    6  A    between atoms: C17_21  and  N5_22 
ROOT
HETATM    1  C7  UNL     1      23.291   0.336  53.096  1.00  0.00     0.138 A 
HETATM    2  N2  UNL     1      23.334  -0.804  53.806  1.00  0.00    -0.224 NA
HETATM    3  C8  UNL     1      22.189  -1.403  54.165  1.00  0.00     0.235 A 
HETATM    4  N3  UNL     1      21.005  -0.903  53.838  1.00  0.00    -0.241 NA
HETATM    5  C9  UNL     1      20.872   0.248  53.120  1.00  0.00     0.075 A 
HETATM    6  C10 UNL     1      19.638   0.760  52.785  1.00  0.00     0.071 A 
HETATM    7  C11 UNL     1      19.585   1.929  52.055  1.00  0.00     0.098 A 
HETATM    8  C12 UNL     1      20.771   2.533  51.694  1.00  0.00     0.071 A 
HETATM    9  C13 UNL     1      21.977   2.012  52.035  1.00  0.00     0.050 A 
HETATM   10  C14 UNL     1      22.057   0.852  52.759  1.00  0.00     0.041 A 
HETATM   11  N4  UNL     1      20.693   3.738  50.944  1.00  0.00    -0.314 N 
HETATM   12  C23 UNL     1      19.361   4.203  50.639  1.00  0.00     0.248 C 
HETATM   13  O1  UNL     1      19.264   5.062  49.714  1.00  0.00    -0.271 OA
HETATM   14  C24 UNL     1      18.126   3.755  51.319  1.00  0.00     0.279 C 
HETATM   15  O2  UNL     1      18.327   2.417  51.736  1.00  0.00    -0.340 OA
ENDROOT
BRANCH  11  16
HETATM   16  C15 UNL     1      21.799   4.480  50.496  1.00  0.00     0.134 C 
BRANCH  16  17
HETATM   17  C16 UNL     1      22.326   5.582  51.350  1.00  0.00     0.050 C 
BRANCH  17  18
HETATM   18  C17 UNL     1      23.840   5.594  51.408  1.00  0.00     0.274 C 
BRANCH  18  19
HETATM   19  N5  UNL     1      24.366   6.917  51.130  1.00  0.00     0.088 N 
HETATM   20  C18 UNL     1      23.349   7.804  50.606  1.00  0.00     0.272 C 
HETATM   21  C19 UNL     1      23.555   8.174  49.164  1.00  0.00     0.030 C 
HETATM   22  C20 UNL     1      23.978   7.025  48.294  1.00  0.00     0.003 C 
HETATM   23  C21 UNL     1      25.177   6.334  48.887  1.00  0.00     0.030 C 
HETATM   24  C22 UNL     1      25.496   6.892  50.255  1.00  0.00     0.272 C 
ENDBRANCH  18  19
ENDBRANCH  17  18
ENDBRANCH  16  17
ENDBRANCH  11  16
BRANCH   1  25
HETATM   25  N1  UNL     1      24.537   0.941  52.734  1.00  0.00    -0.362 N 
HETATM   26  H8  UNL     1      24.734   1.501  51.888  1.00  0.00     0.162 HD
BRANCH  25  27
HETATM   27  C6  UNL     1      25.652   0.774  53.619  1.00  0.00     0.135 A 
HETATM   28  C2  UNL     1      26.768  -0.023  53.048  1.00  0.00    -0.058 A 
HETATM   29  C1  UNL     1      26.747  -1.432  52.589  1.00  0.00     0.046 C 
HETATM   30  C3  UNL     1      27.886   0.692  52.974  1.00  0.00     0.005 A 
HETATM   31  C4  UNL     1      27.641   2.039  53.487  1.00  0.00    -0.001 A 
HETATM   32  C5  UNL     1      26.353   2.085  53.858  1.00  0.00     0.003 A 
ENDBRANCH  25  27
ENDBRANCH   1  25
TORSDOF 6
ENDMDL
