MODEL 1
REMARK VINA RESULT:      -9.0      0.000      0.000
REMARK  6 active torsions:
REMARK  status: ('A' for Active; 'I' for Inactive)
REMARK    1  A    between atoms: O1_2  and  C2_3 
REMARK    2  A    between atoms: C6_9  and  N3_10 
REMARK    3  A    between atoms: N4_13  and  C9_14 
REMARK    4  A    between atoms: C9_14  and  N5_16 
REMARK    5  A    between atoms: N5_16  and  C10_17 
REMARK    6  A    between atoms: C10_17  and  C11_18 
ROOT
HETATM    1  N3  UNL     1      23.314   2.996  51.803  1.00  0.00    -0.362 N 
HETATM    2  C7  UNL     1      23.095   3.332  50.407  1.00  0.00     0.144 C 
HETATM    3  C8  UNL     1      22.177   4.507  50.268  1.00  0.00     0.145 C 
HETATM    4  N4  UNL     1      22.933   5.653  50.797  1.00  0.00    -0.355 N 
HETATM    5  C18 UNL     1      23.655   5.416  52.030  1.00  0.00     0.145 C 
HETATM    6  C19 UNL     1      23.263   4.112  52.687  1.00  0.00     0.144 C 
ENDROOT
BRANCH   4   7
HETATM    7  C9  UNL     1      22.997   6.920  50.202  1.00  0.00     0.170 C 
HETATM    8  S1  UNL     1      21.560   7.705  50.051  1.00  0.00    -0.041 SA
BRANCH   7   9
HETATM    9  N5  UNL     1      24.206   7.514  49.749  1.00  0.00    -0.363 N 
HETATM   10  H10 UNL     1      24.739   8.076  50.436  1.00  0.00     0.162 HD
BRANCH   9  11
HETATM   11  C10 UNL     1      24.632   7.308  48.361  1.00  0.00     0.160 C 
BRANCH  11  12
HETATM   12  C11 UNL     1      25.915   6.557  48.432  1.00  0.00    -0.038 A 
HETATM   13  C12 UNL     1      26.064   5.265  48.883  1.00  0.00     0.012 A 
HETATM   14  C13 UNL     1      27.324   4.716  48.883  1.00  0.00     0.040 A 
HETATM   15  C14 UNL     1      28.455   5.402  48.448  1.00  0.00     0.105 A 
HETATM   16  C15 UNL     1      28.270   6.694  48.002  1.00  0.00     0.105 A 
HETATM   17  O3  UNL     1      29.813   5.063  48.354  1.00  0.00    -0.323 OA
HETATM   18  C16 UNL     1      27.018   7.268  47.993  1.00  0.00     0.048 A 
HETATM   19  O2  UNL     1      29.517   7.169  47.626  1.00  0.00    -0.323 OA
HETATM   20  C17 UNL     1      30.425   6.103  47.602  1.00  0.00     0.352 C 
ENDBRANCH  11  12
ENDBRANCH   9  11
ENDBRANCH   7   9
ENDBRANCH   4   7
BRANCH   1  21
HETATM   21  C6  UNL     1      23.569   1.732  52.406  1.00  0.00     0.139 A 
HETATM   22  N2  UNL     1      22.530   1.018  52.930  1.00  0.00    -0.224 NA
HETATM   23  C5  UNL     1      22.727  -0.192  53.521  1.00  0.00     0.236 A 
HETATM   24  N1  UNL     1      23.942  -0.763  53.629  1.00  0.00    -0.241 NA
HETATM   25  C4  UNL     1      24.995  -0.092  53.125  1.00  0.00     0.076 A 
HETATM   26  C3  UNL     1      26.265  -0.822  53.308  1.00  0.00     0.096 C 
HETATM   27  C20 UNL     1      24.806   1.134  52.525  1.00  0.00     0.041 A 
HETATM   28  C2  UNL     1      27.500  -0.293  53.265  1.00  0.00     0.186 C 
HETATM   29  O4  UNL     1      27.810   1.057  53.039  1.00  0.00    -0.300 OA
HETATM   30  C22 UNL     1      27.126   1.932  52.171  1.00  0.00     0.146 C 
HETATM   31  C21 UNL     1      25.811   1.985  51.929  1.00  0.00     0.042 C 
BRANCH  28  32
HETATM   32  O1  UNL     1      28.433  -1.305  53.484  1.00  0.00    -0.335 OA
HETATM   33  C1  UNL     1      29.819  -1.091  53.605  1.00  0.00     0.212 C 
ENDBRANCH  28  32
ENDBRANCH   1  21
TORSDOF 6
ENDMDL
MODEL 2
REMARK VINA RESULT:      -8.9      1.992      7.173
REMARK  6 active torsions:
REMARK  status: ('A' for Active; 'I' for Inactive)
REMARK    1  A    between atoms: O1_2  and  C2_3 
REMARK    2  A    between atoms: C6_9  and  N3_10 
REMARK    3  A    between atoms: N4_13  and  C9_14 
REMARK    4  A    between atoms: C9_14  and  N5_16 
REMARK    5  A    between atoms: N5_16  and  C10_17 
REMARK    6  A    between atoms: C10_17  and  C11_18 
ROOT
HETATM    1  N3  UNL     1      22.862   4.403  50.272  1.00  0.00    -0.362 N 
HETATM    2  C7  UNL     1      22.567   4.343  51.692  1.00  0.00     0.144 C 
HETATM    3  C8  UNL     1      21.277   3.627  51.949  1.00  0.00     0.145 C 
HETATM    4  N4  UNL     1      21.532   2.226  51.578  1.00  0.00    -0.355 N 
HETATM    5  C18 UNL     1      22.260   2.024  50.343  1.00  0.00     0.145 C 
HETATM    6  C19 UNL     1      22.374   3.291  49.526  1.00  0.00     0.144 C 
ENDROOT
BRANCH   4   7
HETATM    7  C9  UNL     1      21.128   1.109  52.322  1.00  0.00     0.170 C 
HETATM    8  S1  UNL     1      19.691   0.445  51.877  1.00  0.00    -0.041 SA
BRANCH   7   9
HETATM    9  N5  UNL     1      21.885   0.564  53.394  1.00  0.00    -0.363 N 
HETATM   10  H10 UNL     1      21.655   0.897  54.347  1.00  0.00     0.162 HD
BRANCH   9  11
HETATM   11  C10 UNL     1      22.932  -0.421  53.107  1.00  0.00     0.160 C 
BRANCH  11  12
HETATM   12  C11 UNL     1      24.226   0.260  53.386  1.00  0.00    -0.038 A 
HETATM   13  C12 UNL     1      24.463   1.610  53.270  1.00  0.00     0.012 A 
HETATM   14  C13 UNL     1      25.720   2.079  53.567  1.00  0.00     0.040 A 
HETATM   15  C14 UNL     1      26.764   1.255  53.979  1.00  0.00     0.105 A 
HETATM   16  C15 UNL     1      26.493  -0.093  54.084  1.00  0.00     0.105 A 
HETATM   17  O3  UNL     1      28.101   1.493  54.329  1.00  0.00    -0.323 OA
HETATM   18  C16 UNL     1      25.241  -0.589  53.792  1.00  0.00     0.048 A 
HETATM   19  O2  UNL     1      27.664  -0.704  54.503  1.00  0.00    -0.323 OA
HETATM   20  C17 UNL     1      28.580   0.280  54.895  1.00  0.00     0.352 C 
ENDBRANCH  11  12
ENDBRANCH   9  11
ENDBRANCH   7   9
ENDBRANCH   4   7
BRANCH   1  21
HETATM   21  C6  UNL     1      23.561   5.395  49.527  1.00  0.00     0.139 A 
HETATM   22  N2  UNL     1      22.859   6.410  48.943  1.00  0.00    -0.224 NA
HETATM   23  C5  UNL     1      23.484   7.378  48.218  1.00  0.00     0.236 A 
HETATM   24  N1  UNL     1      24.817   7.404  48.029  1.00  0.00    -0.241 NA
HETATM   25  C4  UNL     1      25.547   6.421  48.589  1.00  0.00     0.076 A 
HETATM   26  C3  UNL     1      26.990   6.562  48.308  1.00  0.00     0.096 C 
HETATM   27  C20 UNL     1      24.924   5.436  49.325  1.00  0.00     0.041 A 
HETATM   28  C2  UNL     1      27.915   5.592  48.392  1.00  0.00     0.186 C 
HETATM   29  O4  UNL     1      27.679   4.258  48.762  1.00  0.00    -0.300 OA
HETATM   30  C22 UNL     1      26.757   3.817  49.732  1.00  0.00     0.146 C 
HETATM   31  C21 UNL     1      25.544   4.317  49.997  1.00  0.00     0.042 C 
BRANCH  28  32
HETATM   32  O1  UNL     1      29.157   6.121  48.048  1.00  0.00    -0.335 OA
HETATM   33  C1  UNL     1      29.570   7.433  48.347  1.00  0.00     0.212 C 
ENDBRANCH  28  32
ENDBRANCH   1  21
TORSDOF 6
ENDMDL
MODEL 3
REMARK VINA RESULT:      -8.4      5.496      9.546
REMARK  6 active torsions:
REMARK  status: ('A' for Active; 'I' for Inactive)
REMARK    1  A    between atoms: O1_2  and  C2_3 
REMARK    2  A    between atoms: C6_9  and  N3_10 
REMARK    3  A    between atoms: N4_13  and  C9_14 
REMARK    4  A    between atoms: C9_14  and  N5_16 
REMARK    5  A    between atoms: N5_16  and  C10_17 
REMARK    6  A    between atoms: C10_17  and  C11_18 
ROOT
HETATM    1  N3  UNL     1      22.874   2.036  51.449  1.00  0.00    -0.362 N 
HETATM    2  C7  UNL     1      21.906   2.600  52.373  1.00  0.00     0.144 C 
HETATM    3  C8  UNL     1      20.616   2.918  51.682  1.00  0.00     0.145 C 
HETATM    4  N4  UNL     1      20.042   1.613  51.317  1.00  0.00    -0.355 N 
HETATM    5  C18 UNL     1      20.968   0.653  50.755  1.00  0.00     0.145 C 
HETATM    6  C19 UNL     1      22.296   1.277  50.391  1.00  0.00     0.144 C 
ENDROOT
BRANCH   4   7
HETATM    7  C9  UNL     1      18.697   1.252  51.474  1.00  0.00     0.170 C 
HETATM    8  S1  UNL     1      17.615   2.485  51.366  1.00  0.00    -0.041 SA
BRANCH   7   9
HETATM    9  N5  UNL     1      18.265  -0.082  51.712  1.00  0.00    -0.363 N 
HETATM   10  H10 UNL     1      17.869  -0.597  50.906  1.00  0.00     0.162 HD
BRANCH   9  11
HETATM   11  C10 UNL     1      18.398  -0.652  53.056  1.00  0.00     0.160 C 
BRANCH  11  12
HETATM   12  C11 UNL     1      17.520  -1.853  53.082  1.00  0.00    -0.038 A 
HETATM   13  C12 UNL     1      17.812  -3.047  53.701  1.00  0.00     0.012 A 
HETATM   14  C13 UNL     1      16.888  -4.061  53.630  1.00  0.00     0.040 A 
HETATM   15  C14 UNL     1      15.672  -3.940  52.963  1.00  0.00     0.105 A 
HETATM   16  C15 UNL     1      15.411  -2.731  52.354  1.00  0.00     0.105 A 
HETATM   17  O3  UNL     1      14.593  -4.812  52.757  1.00  0.00    -0.323 OA
HETATM   18  C16 UNL     1      16.320  -1.698  52.409  1.00  0.00     0.048 A 
HETATM   19  O2  UNL     1      14.162  -2.843  51.762  1.00  0.00    -0.323 OA
HETATM   20  C17 UNL     1      13.546  -4.019  52.211  1.00  0.00     0.352 C 
ENDBRANCH  11  12
ENDBRANCH   9  11
ENDBRANCH   7   9
ENDBRANCH   4   7
BRANCH   1  21
HETATM   21  C6  UNL     1      24.294   2.129  51.448  1.00  0.00     0.139 A 
HETATM   22  N2  UNL     1      24.906   3.026  50.619  1.00  0.00    -0.224 NA
HETATM   23  C5  UNL     1      26.261   3.146  50.581  1.00  0.00     0.236 A 
HETATM   24  N1  UNL     1      27.082   2.401  51.346  1.00  0.00    -0.241 NA
HETATM   25  C4  UNL     1      26.520   1.505  52.177  1.00  0.00     0.076 A 
HETATM   26  C3  UNL     1      27.525   0.754  52.957  1.00  0.00     0.096 C 
HETATM   27  C20 UNL     1      25.149   1.375  52.224  1.00  0.00     0.041 A 
HETATM   28  C2  UNL     1      27.336  -0.425  53.572  1.00  0.00     0.186 C 
HETATM   29  O4  UNL     1      26.142  -1.165  53.587  1.00  0.00    -0.300 OA
HETATM   30  C22 UNL     1      24.838  -0.634  53.642  1.00  0.00     0.146 C 
HETATM   31  C21 UNL     1      24.379   0.476  53.053  1.00  0.00     0.042 C 
BRANCH  28  32
HETATM   32  O1  UNL     1      28.522  -0.803  54.198  1.00  0.00    -0.335 OA
HETATM   33  C1  UNL     1      29.807  -0.463  53.734  1.00  0.00     0.212 C 
ENDBRANCH  28  32
ENDBRANCH   1  21
TORSDOF 6
ENDMDL
MODEL 4
REMARK VINA RESULT:      -8.3      2.615      3.515
REMARK  6 active torsions:
REMARK  status: ('A' for Active; 'I' for Inactive)
REMARK    1  A    between atoms: O1_2  and  C2_3 
REMARK    2  A    between atoms: C6_9  and  N3_10 
REMARK    3  A    between atoms: N4_13  and  C9_14 
REMARK    4  A    between atoms: C9_14  and  N5_16 
REMARK    5  A    between atoms: N5_16  and  C10_17 
REMARK    6  A    between atoms: C10_17  and  C11_18 
ROOT
HETATM    1  N3  UNL     1      21.212   0.815  52.218  1.00  0.00    -0.362 N 
HETATM    2  C7  UNL     1      21.089   0.618  50.784  1.00  0.00     0.144 C 
HETATM    3  C8  UNL     1      19.780   1.138  50.274  1.00  0.00     0.145 C 
HETATM    4  N4  UNL     1      19.858   2.599  50.429  1.00  0.00    -0.355 N 
HETATM    5  C18 UNL     1      20.407   3.071  51.683  1.00  0.00     0.145 C 
HETATM    6  C19 UNL     1      20.535   1.968  52.709  1.00  0.00     0.144 C 
ENDROOT
BRANCH   4   7
HETATM    7  C9  UNL     1      19.448   3.535  49.470  1.00  0.00     0.170 C 
HETATM    8  S1  UNL     1      17.831   3.830  49.415  1.00  0.00    -0.041 SA
BRANCH   7   9
HETATM    9  N5  UNL     1      20.343   4.199  48.588  1.00  0.00    -0.363 N 
HETATM   10  H10 UNL     1      20.253   5.228  48.516  1.00  0.00     0.162 HD
BRANCH   9  11
HETATM   11  C10 UNL     1      21.330   3.415  47.839  1.00  0.00     0.160 C 
BRANCH  11  12
HETATM   12  C11 UNL     1      22.660   3.795  48.389  1.00  0.00    -0.038 A 
HETATM   13  C12 UNL     1      23.490   2.976  49.120  1.00  0.00     0.012 A 
HETATM   14  C13 UNL     1      24.690   3.485  49.554  1.00  0.00     0.040 A 
HETATM   15  C14 UNL     1      25.107   4.787  49.290  1.00  0.00     0.105 A 
HETATM   16  C15 UNL     1      24.252   5.581  48.555  1.00  0.00     0.105 A 
HETATM   17  O3  UNL     1      26.259   5.517  49.619  1.00  0.00    -0.323 OA
HETATM   18  C16 UNL     1      23.043   5.095  48.108  1.00  0.00     0.048 A 
HETATM   19  O2  UNL     1      24.870   6.814  48.419  1.00  0.00    -0.323 OA
HETATM   20  C17 UNL     1      26.199   6.711  48.849  1.00  0.00     0.352 C 
ENDBRANCH  11  12
ENDBRANCH   9  11
ENDBRANCH   7   9
ENDBRANCH   4   7
BRANCH   1  21
HETATM   21  C6  UNL     1      21.901   0.034  53.188  1.00  0.00     0.139 A 
HETATM   22  N2  UNL     1      21.201  -0.856  53.951  1.00  0.00    -0.224 NA
HETATM   23  C5  UNL     1      21.817  -1.619  54.894  1.00  0.00     0.236 A 
HETATM   24  N1  UNL     1      23.140  -1.553  55.139  1.00  0.00    -0.241 NA
HETATM   25  C4  UNL     1      23.868  -0.687  54.408  1.00  0.00     0.076 A 
HETATM   26  C3  UNL     1      25.298  -0.710  54.773  1.00  0.00     0.096 C 
HETATM   27  C20 UNL     1      23.253   0.090  53.451  1.00  0.00     0.041 A 
HETATM   28  C2  UNL     1      26.199   0.254  54.517  1.00  0.00     0.186 C 
HETATM   29  O4  UNL     1      25.944   1.467  53.856  1.00  0.00    -0.300 OA
HETATM   30  C22 UNL     1      25.057   1.651  52.777  1.00  0.00     0.146 C 
HETATM   31  C21 UNL     1      23.873   1.060  52.577  1.00  0.00     0.042 C 
BRANCH  28  32
HETATM   32  O1  UNL     1      27.438  -0.140  55.019  1.00  0.00    -0.335 OA
HETATM   33  C1  UNL     1      28.610  -0.241  54.246  1.00  0.00     0.212 C 
ENDBRANCH  28  32
ENDBRANCH   1  21
TORSDOF 6
ENDMDL
MODEL 5
REMARK VINA RESULT:      -8.3      6.097      8.978
REMARK  6 active torsions:
REMARK  status: ('A' for Active; 'I' for Inactive)
REMARK    1  A    between atoms: O1_2  and  C2_3 
REMARK    2  A    between atoms: C6_9  and  N3_10 
REMARK    3  A    between atoms: N4_13  and  C9_14 
REMARK    4  A    between atoms: C9_14  and  N5_16 
REMARK    5  A    between atoms: N5_16  and  C10_17 
REMARK    6  A    between atoms: C10_17  and  C11_18 
ROOT
HETATM    1  N3  UNL     1      22.940   1.831  51.508  1.00  0.00    -0.362 N 
HETATM    2  C7  UNL     1      22.124   0.829  50.844  1.00  0.00     0.144 C 
HETATM    3  C8  UNL     1      20.880   0.538  51.626  1.00  0.00     0.145 C 
HETATM    4  N4  UNL     1      20.075   1.767  51.543  1.00  0.00    -0.355 N 
HETATM    5  C18 UNL     1      20.798   3.007  51.734  1.00  0.00     0.145 C 
HETATM    6  C19 UNL     1      22.197   2.785  52.261  1.00  0.00     0.144 C 
ENDROOT
BRANCH   4   7
HETATM    7  C9  UNL     1      18.696   1.812  51.300  1.00  0.00     0.170 C 
HETATM    8  S1  UNL     1      18.071   0.507  50.520  1.00  0.00    -0.041 SA
BRANCH   7   9
HETATM    9  N5  UNL     1      17.866   2.899  51.688  1.00  0.00    -0.363 N 
HETATM   10  H10 UNL     1      17.931   3.210  52.673  1.00  0.00     0.162 HD
BRANCH   9  11
HETATM   11  C10 UNL     1      16.977   3.514  50.698  1.00  0.00     0.160 C 
BRANCH  11  12
HETATM   12  C11 UNL     1      15.599   3.391  51.248  1.00  0.00    -0.038 A 
HETATM   13  C12 UNL     1      14.581   2.645  50.702  1.00  0.00     0.012 A 
HETATM   14  C13 UNL     1      13.363   2.639  51.339  1.00  0.00     0.040 A 
HETATM   15  C14 UNL     1      13.111   3.352  52.508  1.00  0.00     0.105 A 
HETATM   16  C15 UNL     1      14.152   4.090  53.028  1.00  0.00     0.105 A 
HETATM   17  O3  UNL     1      11.978   3.500  53.322  1.00  0.00    -0.323 OA
HETATM   18  C16 UNL     1      15.383   4.113  52.410  1.00  0.00     0.048 A 
HETATM   19  O2  UNL     1      13.673   4.704  54.175  1.00  0.00    -0.323 OA
HETATM   20  C17 UNL     1      12.426   4.156  54.502  1.00  0.00     0.352 C 
ENDBRANCH  11  12
ENDBRANCH   9  11
ENDBRANCH   7   9
ENDBRANCH   4   7
BRANCH   1  21
HETATM   21  C6  UNL     1      24.354   1.996  51.513  1.00  0.00     0.139 A 
HETATM   22  N2  UNL     1      24.925   2.909  50.673  1.00  0.00    -0.224 NA
HETATM   23  C5  UNL     1      26.272   3.097  50.641  1.00  0.00     0.236 A 
HETATM   24  N1  UNL     1      27.125   2.409  51.423  1.00  0.00    -0.241 NA
HETATM   25  C4  UNL     1      26.604   1.499  52.267  1.00  0.00     0.076 A 
HETATM   26  C3  UNL     1      27.641   0.814  53.065  1.00  0.00     0.096 C 
HETATM   27  C20 UNL     1      25.241   1.300  52.307  1.00  0.00     0.041 A 
HETATM   28  C2  UNL     1      27.508  -0.362  53.700  1.00  0.00     0.186 C 
HETATM   29  O4  UNL     1      26.354  -1.162  53.720  1.00  0.00    -0.300 OA
HETATM   30  C22 UNL     1      25.024  -0.698  53.758  1.00  0.00     0.146 C 
HETATM   31  C21 UNL     1      24.513   0.377  53.148  1.00  0.00     0.042 C 
BRANCH  28  32
HETATM   32  O1  UNL     1      28.707  -0.669  54.339  1.00  0.00    -0.335 OA
HETATM   33  C1  UNL     1      29.886  -1.053  53.672  1.00  0.00     0.212 C 
ENDBRANCH  28  32
ENDBRANCH   1  21
TORSDOF 6
ENDMDL
MODEL 6
REMARK VINA RESULT:      -8.3      1.271      1.682
REMARK  6 active torsions:
REMARK  status: ('A' for Active; 'I' for Inactive)
REMARK    1  A    between atoms: O1_2  and  C2_3 
REMARK    2  A    between atoms: C6_9  and  N3_10 
REMARK    3  A    between atoms: N4_13  and  C9_14 
REMARK    4  A    between atoms: C9_14  and  N5_16 
REMARK    5  A    between atoms: N5_16  and  C10_17 
REMARK    6  A    between atoms: C10_17  and  C11_18 
ROOT
HETATM    1  N3  UNL     1      23.356   2.905  51.453  1.00  0.00    -0.362 N 
HETATM    2  C7  UNL     1      23.372   3.157  50.022  1.00  0.00     0.144 C 
HETATM    3  C8  UNL     1      22.411   4.243  49.651  1.00  0.00     0.145 C 
HETATM    4  N4  UNL     1      22.972   5.472  50.236  1.00  0.00    -0.355 N 
HETATM    5  C18 UNL     1      23.472   5.353  51.589  1.00  0.00     0.145 C 
HETATM    6  C19 UNL     1      23.064   4.053  52.244  1.00  0.00     0.144 C 
ENDROOT
BRANCH   4   7
HETATM    7  C9  UNL     1      23.050   6.711  49.586  1.00  0.00     0.170 C 
HETATM    8  S1  UNL     1      21.834   7.765  49.921  1.00  0.00    -0.041 SA
BRANCH   7   9
HETATM    9  N5  UNL     1      24.097   7.062  48.690  1.00  0.00    -0.363 N 
HETATM   10  H10 UNL     1      23.912   7.843  48.036  1.00  0.00     0.162 HD
BRANCH   9  11
HETATM   11  C10 UNL     1      25.361   6.321  48.735  1.00  0.00     0.160 C 
BRANCH  11  12
HETATM   12  C11 UNL     1      26.413   7.319  49.071  1.00  0.00    -0.038 A 
HETATM   13  C12 UNL     1      26.293   8.328  49.998  1.00  0.00     0.012 A 
HETATM   14  C13 UNL     1      27.364   9.168  50.188  1.00  0.00     0.040 A 
HETATM   15  C14 UNL     1      28.562   9.047  49.490  1.00  0.00     0.105 A 
HETATM   16  C15 UNL     1      28.648   8.025  48.569  1.00  0.00     0.105 A 
HETATM   17  O3  UNL     1      29.767   9.765  49.509  1.00  0.00    -0.323 OA
HETATM   18  C16 UNL     1      27.590   7.170  48.358  1.00  0.00     0.048 A 
HETATM   19  O2  UNL     1      29.913   8.100  48.006  1.00  0.00    -0.323 OA
HETATM   20  C17 UNL     1      30.692   8.999  48.746  1.00  0.00     0.352 C 
ENDBRANCH  11  12
ENDBRANCH   9  11
ENDBRANCH   7   9
ENDBRANCH   4   7
BRANCH   1  21
HETATM   21  C6  UNL     1      23.589   1.696  52.168  1.00  0.00     0.139 A 
HETATM   22  N2  UNL     1      22.527   1.005  52.677  1.00  0.00    -0.224 NA
HETATM   23  C5  UNL     1      22.702  -0.152  53.372  1.00  0.00     0.236 A 
HETATM   24  N1  UNL     1      23.915  -0.690  53.602  1.00  0.00    -0.241 NA
HETATM   25  C4  UNL     1      24.989  -0.040  53.117  1.00  0.00     0.076 A 
HETATM   26  C3  UNL     1      26.255  -0.730  53.437  1.00  0.00     0.096 C 
HETATM   27  C20 UNL     1      24.823   1.133  52.412  1.00  0.00     0.041 A 
HETATM   28  C2  UNL     1      27.482  -0.182  53.433  1.00  0.00     0.186 C 
HETATM   29  O4  UNL     1      27.788   1.153  53.124  1.00  0.00    -0.300 OA
HETATM   30  C22 UNL     1      27.150   1.945  52.148  1.00  0.00     0.146 C 
HETATM   31  C21 UNL     1      25.854   1.954  51.819  1.00  0.00     0.042 C 
BRANCH  28  32
HETATM   32  O1  UNL     1      28.412  -1.156  53.790  1.00  0.00    -0.335 OA
HETATM   33  C1  UNL     1      29.804  -1.021  53.624  1.00  0.00     0.212 C 
ENDBRANCH  28  32
ENDBRANCH   1  21
TORSDOF 6
ENDMDL
MODEL 7
REMARK VINA RESULT:      -8.2      3.805      6.534
REMARK  6 active torsions:
REMARK  status: ('A' for Active; 'I' for Inactive)
REMARK    1  A    between atoms: O1_2  and  C2_3 
REMARK    2  A    between atoms: C6_9  and  N3_10 
REMARK    3  A    between atoms: N4_13  and  C9_14 
REMARK    4  A    between atoms: C9_14  and  N5_16 
REMARK    5  A    between atoms: N5_16  and  C10_17 
REMARK    6  A    between atoms: C10_17  and  C11_18 
ROOT
HETATM    1  N3  UNL     1      21.056   2.662  50.069  1.00  0.00    -0.362 N 
HETATM    2  C7  UNL     1      22.202   2.355  49.230  1.00  0.00     0.144 C 
HETATM    3  C8  UNL     1      22.856   3.604  48.726  1.00  0.00     0.145 C 
HETATM    4  N4  UNL     1      23.446   4.238  49.915  1.00  0.00    -0.355 N 
HETATM    5  C18 UNL     1      22.607   4.264  51.095  1.00  0.00     0.145 C 
HETATM    6  C19 UNL     1      21.176   3.882  50.795  1.00  0.00     0.144 C 
ENDROOT
BRANCH   4   7
HETATM    7  C9  UNL     1      24.727   4.802  49.977  1.00  0.00     0.170 C 
HETATM    8  S1  UNL     1      24.950   6.155  49.070  1.00  0.00    -0.041 SA
BRANCH   7   9
HETATM    9  N5  UNL     1      25.784   4.264  50.759  1.00  0.00    -0.363 N 
HETATM   10  H10 UNL     1      26.059   4.794  51.605  1.00  0.00     0.162 HD
BRANCH   9  11
HETATM   11  C10 UNL     1      26.423   3.011  50.343  1.00  0.00     0.160 C 
BRANCH  11  12
HETATM   12  C11 UNL     1      26.341   2.098  51.514  1.00  0.00    -0.038 A 
HETATM   13  C12 UNL     1      25.291   1.257  51.804  1.00  0.00     0.012 A 
HETATM   14  C13 UNL     1      25.375   0.475  52.931  1.00  0.00     0.040 A 
HETATM   15  C14 UNL     1      26.468   0.492  53.792  1.00  0.00     0.105 A 
HETATM   16  C15 UNL     1      27.503   1.346  53.473  1.00  0.00     0.105 A 
HETATM   17  O3  UNL     1      26.776  -0.197  54.975  1.00  0.00    -0.323 OA
HETATM   18  C16 UNL     1      27.444   2.141  52.350  1.00  0.00     0.048 A 
HETATM   19  O2  UNL     1      28.466   1.193  54.458  1.00  0.00    -0.323 OA
HETATM   20  C17 UNL     1      28.146   0.077  55.243  1.00  0.00     0.352 C 
ENDBRANCH  11  12
ENDBRANCH   9  11
ENDBRANCH   7   9
ENDBRANCH   4   7
BRANCH   1  21
HETATM   21  C6  UNL     1      19.851   1.931  50.269  1.00  0.00     0.139 A 
HETATM   22  N2  UNL     1      18.748   2.243  49.526  1.00  0.00    -0.224 NA
HETATM   23  C5  UNL     1      17.574   1.575  49.687  1.00  0.00     0.236 A 
HETATM   24  N1  UNL     1      17.418   0.575  50.574  1.00  0.00    -0.241 NA
HETATM   25  C4  UNL     1      18.480   0.235  51.327  1.00  0.00     0.076 A 
HETATM   26  C3  UNL     1      18.179  -0.871  52.257  1.00  0.00     0.096 C 
HETATM   27  C20 UNL     1      19.675   0.905  51.172  1.00  0.00     0.041 A 
HETATM   28  C2  UNL     1      18.870  -1.189  53.365  1.00  0.00     0.186 C 
HETATM   29  O4  UNL     1      20.010  -0.523  53.845  1.00  0.00    -0.300 OA
HETATM   30  C22 UNL     1      21.033   0.042  53.058  1.00  0.00     0.146 C 
HETATM   31  C21 UNL     1      20.911   0.673  51.884  1.00  0.00     0.042 C 
BRANCH  28  32
HETATM   32  O1  UNL     1      18.271  -2.292  53.971  1.00  0.00    -0.335 OA
HETATM   33  C1  UNL     1      17.277  -3.085  53.367  1.00  0.00     0.212 C 
ENDBRANCH  28  32
ENDBRANCH   1  21
TORSDOF 6
ENDMDL
MODEL 8
REMARK VINA RESULT:      -8.1      2.111      7.646
REMARK  6 active torsions:
REMARK  status: ('A' for Active; 'I' for Inactive)
REMARK    1  A    between atoms: O1_2  and  C2_3 
REMARK    2  A    between atoms: C6_9  and  N3_10 
REMARK    3  A    between atoms: N4_13  and  C9_14 
REMARK    4  A    between atoms: C9_14  and  N5_16 
REMARK    5  A    between atoms: N5_16  and  C10_17 
REMARK    6  A    between atoms: C10_17  and  C11_18 
ROOT
HETATM    1  N3  UNL     1      23.197   5.598  49.779  1.00  0.00    -0.362 N 
HETATM    2  C7  UNL     1      23.025   5.247  51.178  1.00  0.00     0.144 C 
HETATM    3  C8  UNL     1      21.580   5.044  51.513  1.00  0.00     0.145 C 
HETATM    4  N4  UNL     1      21.182   3.827  50.788  1.00  0.00    -0.355 N 
HETATM    5  C18 UNL     1      21.648   3.728  49.421  1.00  0.00     0.145 C 
HETATM    6  C19 UNL     1      22.221   5.031  48.910  1.00  0.00     0.144 C 
ENDROOT
BRANCH   4   7
HETATM    7  C9  UNL     1      20.405   2.789  51.320  1.00  0.00     0.170 C 
HETATM    8  S1  UNL     1      18.800   3.111  51.470  1.00  0.00    -0.041 SA
BRANCH   7   9
HETATM    9  N5  UNL     1      20.939   1.532  51.714  1.00  0.00    -0.363 N 
HETATM   10  H10 UNL     1      21.647   1.107  51.091  1.00  0.00     0.162 HD
BRANCH   9  11
HETATM   11  C10 UNL     1      20.471   0.910  52.957  1.00  0.00     0.160 C 
BRANCH  11  12
HETATM   12  C11 UNL     1      21.664   0.262  53.568  1.00  0.00    -0.038 A 
HETATM   13  C12 UNL     1      21.650  -0.585  54.652  1.00  0.00     0.012 A 
HETATM   14  C13 UNL     1      22.846  -1.100  55.092  1.00  0.00     0.040 A 
HETATM   15  C14 UNL     1      24.069  -0.805  54.495  1.00  0.00     0.105 A 
HETATM   16  C15 UNL     1      24.047   0.047  53.411  1.00  0.00     0.105 A 
HETATM   17  O3  UNL     1      25.390  -1.198  54.757  1.00  0.00    -0.323 OA
HETATM   18  C16 UNL     1      22.863   0.577  52.950  1.00  0.00     0.048 A 
HETATM   19  O2  UNL     1      25.360   0.191  52.990  1.00  0.00    -0.323 OA
HETATM   20  C17 UNL     1      26.158  -0.756  53.645  1.00  0.00     0.352 C 
ENDBRANCH  11  12
ENDBRANCH   9  11
ENDBRANCH   7   9
ENDBRANCH   4   7
BRANCH   1  21
HETATM   21  C6  UNL     1      24.186   6.413  49.159  1.00  0.00     0.139 A 
HETATM   22  N2  UNL     1      23.821   7.610  48.614  1.00  0.00    -0.224 NA
HETATM   23  C5  UNL     1      24.731   8.420  48.007  1.00  0.00     0.236 A 
HETATM   24  N1  UNL     1      26.036   8.104  47.904  1.00  0.00    -0.241 NA
HETATM   25  C4  UNL     1      26.439   6.932  48.429  1.00  0.00     0.076 A 
HETATM   26  C3  UNL     1      27.886   6.704  48.249  1.00  0.00     0.096 C 
HETATM   27  C20 UNL     1      25.525   6.105  49.045  1.00  0.00     0.041 A 
HETATM   28  C2  UNL     1      28.519   5.520  48.313  1.00  0.00     0.186 C 
HETATM   29  O4  UNL     1      27.917   4.276  48.563  1.00  0.00    -0.300 OA
HETATM   30  C22 UNL     1      26.837   4.038  49.436  1.00  0.00     0.146 C 
HETATM   31  C21 UNL     1      25.778   4.823  49.664  1.00  0.00     0.042 C 
BRANCH  28  32
HETATM   32  O1  UNL     1      29.880   5.722  48.089  1.00  0.00    -0.335 OA
HETATM   33  C1  UNL     1      30.619   6.797  48.618  1.00  0.00     0.212 C 
ENDBRANCH  28  32
ENDBRANCH   1  21
TORSDOF 6
ENDMDL
MODEL 9
REMARK VINA RESULT:      -7.8      5.310      8.803
REMARK  6 active torsions:
REMARK  status: ('A' for Active; 'I' for Inactive)
REMARK    1  A    between atoms: O1_2  and  C2_3 
REMARK    2  A    between atoms: C6_9  and  N3_10 
REMARK    3  A    between atoms: N4_13  and  C9_14 
REMARK    4  A    between atoms: C9_14  and  N5_16 
REMARK    5  A    between atoms: N5_16  and  C10_17 
REMARK    6  A    between atoms: C10_17  and  C11_18 
ROOT
HETATM    1  N3  UNL     1      29.746   7.898  48.113  1.00  0.00    -0.362 N 
HETATM    2  C7  UNL     1      30.566   7.123  47.198  1.00  0.00     0.144 C 
HETATM    3  C8  UNL     1      31.937   7.712  47.066  1.00  0.00     0.145 C 
HETATM    4  N4  UNL     1      32.573   7.506  48.377  1.00  0.00    -0.355 N 
HETATM    5  C18 UNL     1      31.748   7.797  49.530  1.00  0.00     0.145 C 
HETATM    6  C19 UNL     1      30.477   8.528  49.161  1.00  0.00     0.144 C 
ENDROOT
BRANCH   4   7
HETATM    7  C9  UNL     1      33.887   7.060  48.574  1.00  0.00     0.170 C 
HETATM    8  S1  UNL     1      35.067   8.138  48.189  1.00  0.00    -0.041 SA
BRANCH   7   9
HETATM    9  N5  UNL     1      34.210   5.767  49.070  1.00  0.00    -0.363 N 
HETATM   10  H10 UNL     1      33.873   5.532  50.021  1.00  0.00     0.162 HD
BRANCH   9  11
HETATM   11  C10 UNL     1      34.989   4.849  48.233  1.00  0.00     0.160 C 
BRANCH  11  12
HETATM   12  C11 UNL     1      34.001   3.940  47.591  1.00  0.00    -0.038 A 
HETATM   13  C12 UNL     1      33.207   4.252  46.511  1.00  0.00     0.012 A 
HETATM   14  C13 UNL     1      32.344   3.293  46.039  1.00  0.00     0.040 A 
HETATM   15  C14 UNL     1      32.234   2.023  46.598  1.00  0.00     0.105 A 
HETATM   16  C15 UNL     1      33.044   1.743  47.678  1.00  0.00     0.105 A 
HETATM   17  O3  UNL     1      31.445   0.902  46.299  1.00  0.00    -0.323 OA
HETATM   18  C16 UNL     1      33.917   2.687  48.172  1.00  0.00     0.048 A 
HETATM   19  O2  UNL     1      32.764   0.440  48.060  1.00  0.00    -0.323 OA
HETATM   20  C17 UNL     1      31.973  -0.166  47.075  1.00  0.00     0.352 C 
ENDBRANCH  11  12
ENDBRANCH   9  11
ENDBRANCH   7   9
ENDBRANCH   4   7
BRANCH   1  21
HETATM   21  C6  UNL     1      28.339   8.113  48.116  1.00  0.00     0.139 A 
HETATM   22  N2  UNL     1      27.856   9.384  47.989  1.00  0.00    -0.224 NA
HETATM   23  C5  UNL     1      26.519   9.638  47.992  1.00  0.00     0.236 A 
HETATM   24  N1  UNL     1      25.592   8.670  48.117  1.00  0.00    -0.241 NA
HETATM   25  C4  UNL     1      26.025   7.402  48.244  1.00  0.00     0.076 A 
HETATM   26  C3  UNL     1      24.913   6.439  48.373  1.00  0.00     0.096 C 
HETATM   27  C20 UNL     1      27.377   7.134  48.242  1.00  0.00     0.041 A 
HETATM   28  C2  UNL     1      24.993   5.195  48.874  1.00  0.00     0.186 C 
HETATM   29  O4  UNL     1      26.153   4.579  49.371  1.00  0.00    -0.300 OA
HETATM   30  C22 UNL     1      27.457   4.735  48.861  1.00  0.00     0.146 C 
HETATM   31  C21 UNL     1      28.016   5.843  48.362  1.00  0.00     0.042 C 
BRANCH  28  32
HETATM   32  O1  UNL     1      23.731   4.606  48.825  1.00  0.00    -0.335 OA
HETATM   33  C1  UNL     1      23.481   3.245  49.083  1.00  0.00     0.212 C 
ENDBRANCH  28  32
ENDBRANCH   1  21
TORSDOF 6
ENDMDL
