MODEL 1
REMARK VINA RESULT:     -10.0      0.000      0.000
REMARK  2 active torsions:
REMARK  status: ('A' for Active; 'I' for Inactive)
REMARK    1  A    between atoms: C5_6  and  C6_7 
REMARK    2  A    between atoms: C15_20  and  N6_21 
ROOT
HETATM    1  C6  UNL     1      24.638   1.512  53.110  1.00  0.00     0.234 A 
HETATM    2  C7  UNL     1      25.362   2.695  53.412  1.00  0.00     0.048 A 
HETATM    3  C8  UNL     1      26.708   2.427  53.567  1.00  0.00     0.047 A 
HETATM    4  C9  UNL     1      26.607   1.115  53.335  1.00  0.00     0.240 A 
HETATM    5  C10 UNL     1      27.539   0.125  53.313  1.00  0.00     0.258 A 
HETATM    6  N2  UNL     1      26.565  -0.681  53.040  1.00  0.00     0.302 N 
HETATM    7  C11 UNL     1      26.377  -1.847  52.825  1.00  0.00     0.451 A 
HETATM    8  N3  UNL     1      25.555  -0.889  52.856  1.00  0.00     0.185 NA
HETATM    9  N4  UNL     1      25.468   0.400  53.049  1.00  0.00     0.283 N 
HETATM   10  N5  UNL     1      27.518  -2.581  52.886  1.00  0.00    -0.342 N 
HETATM   11  C12 UNL     1      28.929  -2.690  53.121  1.00  0.00     0.087 C 
HETATM   12  C13 UNL     1      29.855  -1.796  53.446  1.00  0.00     0.019 C 
HETATM   13  C14 UNL     1      29.803  -0.345  53.720  1.00  0.00     0.027 C 
HETATM   14  C15 UNL     1      28.870   0.586  53.577  1.00  0.00     0.048 C 
HETATM   15  H7  UNL     1      26.664  -3.147  52.621  1.00  0.00     0.163 HD
ENDROOT
BRANCH   1  16
HETATM   16  C5  UNL     1      23.292   1.089  52.856  1.00  0.00     0.124 C 
HETATM   17  C4  UNL     1      22.435   0.214  53.293  1.00  0.00     0.130 C 
HETATM   18  N1  UNL     1      21.136   0.150  52.710  1.00  0.00    -0.354 N 
HETATM   19  C3  UNL     1      21.008   0.326  51.436  1.00  0.00     0.013 A 
HETATM   20  C1  UNL     1      19.866  -0.056  53.097  1.00  0.00     0.157 A 
HETATM   21  C2  UNL     1      19.618   0.108  51.819  1.00  0.00     0.019 A 
HETATM   22  C20 UNL     1      21.438   0.582  50.037  1.00  0.00     0.084 C 
HETATM   23  C19 UNL     1      20.824   1.671  49.322  1.00  0.00    -0.009 C 
HETATM   24  C18 UNL     1      20.500   2.875  49.735  1.00  0.00    -0.032 C 
HETATM   25  C17 UNL     1      21.223   3.179  50.802  1.00  0.00     0.011 C 
HETATM   26  C16 UNL     1      22.617   2.564  50.890  1.00  0.00     0.204 C 
HETATM   27  O1  UNL     1      22.844   1.814  51.917  1.00  0.00    -0.344 OA
ENDBRANCH   1  16
BRANCH  14  28
HETATM   28  N6  UNL     1      28.977   1.953  53.631  1.00  0.00    -0.301 NA
HETATM   29  H11 UNL     1      28.774   1.722  54.667  1.00  0.00     0.124 HD
HETATM   30  H12 UNL     1      29.171   2.035  52.579  1.00  0.00     0.124 HD
ENDBRANCH  14  28
TORSDOF 2
ENDMDL
MODEL 2
REMARK VINA RESULT:      -9.9      1.089      2.406
REMARK  2 active torsions:
REMARK  status: ('A' for Active; 'I' for Inactive)
REMARK    1  A    between atoms: C5_6  and  C6_7 
REMARK    2  A    between atoms: C15_20  and  N6_21 
ROOT
HETATM    1  C6  UNL     1      25.179   1.624  52.398  1.00  0.00     0.234 A 
HETATM    2  C7  UNL     1      25.968   2.750  52.749  1.00  0.00     0.048 A 
HETATM    3  C8  UNL     1      27.246   2.366  53.111  1.00  0.00     0.047 A 
HETATM    4  C9  UNL     1      27.046   1.058  52.925  1.00  0.00     0.240 A 
HETATM    5  C10 UNL     1      27.868  -0.014  53.082  1.00  0.00     0.258 A 
HETATM    6  N2  UNL     1      26.866  -0.740  52.705  1.00  0.00     0.302 N 
HETATM    7  C11 UNL     1      26.594  -1.894  52.517  1.00  0.00     0.451 A 
HETATM    8  N3  UNL     1      25.877  -0.863  52.386  1.00  0.00     0.185 NA
HETATM    9  N4  UNL     1      25.893   0.437  52.506  1.00  0.00     0.283 N 
HETATM   10  N5  UNL     1      27.636  -2.726  52.775  1.00  0.00    -0.342 N 
HETATM   11  C12 UNL     1      28.981  -2.953  53.218  1.00  0.00     0.087 C 
HETATM   12  C13 UNL     1      29.938  -2.131  53.635  1.00  0.00     0.019 C 
HETATM   13  C14 UNL     1      29.993  -0.668  53.834  1.00  0.00     0.027 C 
HETATM   14  C15 UNL     1      29.188   0.336  53.516  1.00  0.00     0.048 C 
HETATM   15  H7  UNL     1      26.775  -3.225  52.414  1.00  0.00     0.163 HD
ENDROOT
BRANCH   1  16
HETATM   16  C5  UNL     1      23.846   1.314  51.969  1.00  0.00     0.124 C 
HETATM   17  C4  UNL     1      23.044   1.574  50.979  1.00  0.00     0.130 C 
HETATM   18  N1  UNL     1      21.732   1.017  50.972  1.00  0.00    -0.354 N 
HETATM   19  C3  UNL     1      21.080   0.929  52.084  1.00  0.00     0.013 A 
HETATM   20  C1  UNL     1      20.862   0.499  50.090  1.00  0.00     0.157 A 
HETATM   21  C2  UNL     1      20.109   0.359  51.157  1.00  0.00     0.019 A 
HETATM   22  C20 UNL     1      20.828   1.072  53.541  1.00  0.00     0.084 C 
HETATM   23  C19 UNL     1      20.448  -0.099  54.288  1.00  0.00    -0.009 C 
HETATM   24  C18 UNL     1      20.894  -1.332  54.207  1.00  0.00    -0.032 C 
HETATM   25  C17 UNL     1      22.098  -1.325  53.656  1.00  0.00     0.011 C 
HETATM   26  C16 UNL     1      22.963  -0.092  53.904  1.00  0.00     0.204 C 
HETATM   27  O1  UNL     1      23.336   0.561  52.853  1.00  0.00    -0.344 OA
ENDBRANCH   1  16
BRANCH  14  28
HETATM   28  N6  UNL     1      29.423   1.687  53.526  1.00  0.00    -0.301 NA
HETATM   29  H11 UNL     1      28.375   1.661  53.786  1.00  0.00     0.124 HD
HETATM   30  H12 UNL     1      30.457   1.565  53.263  1.00  0.00     0.124 HD
ENDBRANCH  14  28
TORSDOF 2
ENDMDL
MODEL 3
REMARK VINA RESULT:      -9.7      2.206      7.739
REMARK  2 active torsions:
REMARK  status: ('A' for Active; 'I' for Inactive)
REMARK    1  A    between atoms: C5_6  and  C6_7 
REMARK    2  A    between atoms: C15_20  and  N6_21 
ROOT
HETATM    1  C6  UNL     1      22.376   0.035  53.184  1.00  0.00     0.234 A 
HETATM    2  C7  UNL     1      21.917  -0.704  54.306  1.00  0.00     0.048 A 
HETATM    3  C8  UNL     1      20.573  -1.002  54.187  1.00  0.00     0.047 A 
HETATM    4  C9  UNL     1      20.410  -0.399  53.005  1.00  0.00     0.240 A 
HETATM    5  C10 UNL     1      19.319  -0.254  52.206  1.00  0.00     0.258 A 
HETATM    6  N2  UNL     1      20.092   0.400  51.401  1.00  0.00     0.302 N 
HETATM    7  C11 UNL     1      20.039   0.969  50.346  1.00  0.00     0.451 A 
HETATM    8  N3  UNL     1      21.019   0.802  51.125  1.00  0.00     0.185 NA
HETATM    9  N4  UNL     1      21.360   0.262  52.264  1.00  0.00     0.283 N 
HETATM   10  N5  UNL     1      18.796   0.947  49.800  1.00  0.00    -0.342 N 
HETATM   11  C12 UNL     1      17.407   0.591  49.857  1.00  0.00     0.087 C 
HETATM   12  C13 UNL     1      16.683  -0.054  50.764  1.00  0.00     0.019 C 
HETATM   13  C14 UNL     1      17.007  -0.639  52.081  1.00  0.00     0.027 C 
HETATM   14  C15 UNL     1      18.138  -0.871  52.733  1.00  0.00     0.048 C 
HETATM   15  H7  UNL     1      19.517   1.424  49.190  1.00  0.00     0.163 HD
ENDROOT
BRANCH   1  16
HETATM   16  C5  UNL     1      23.578   0.645  52.694  1.00  0.00     0.124 C 
HETATM   17  C4  UNL     1      23.959   1.452  51.749  1.00  0.00     0.130 C 
HETATM   18  N1  UNL     1      25.335   1.804  51.637  1.00  0.00    -0.354 N 
HETATM   19  C3  UNL     1      26.235   0.905  51.867  1.00  0.00     0.013 A 
HETATM   20  C1  UNL     1      26.079   2.881  51.336  1.00  0.00     0.157 A 
HETATM   21  C2  UNL     1      27.076   2.053  51.548  1.00  0.00     0.019 A 
HETATM   22  C20 UNL     1      26.780  -0.433  52.216  1.00  0.00     0.084 C 
HETATM   23  C19 UNL     1      27.723  -0.524  53.300  1.00  0.00    -0.009 C 
HETATM   24  C18 UNL     1      27.737   0.090  54.461  1.00  0.00    -0.032 C 
HETATM   25  C17 UNL     1      26.510   0.493  54.755  1.00  0.00     0.011 C 
HETATM   26  C16 UNL     1      25.358  -0.354  54.221  1.00  0.00     0.204 C 
HETATM   27  O1  UNL     1      24.526   0.247  53.436  1.00  0.00    -0.344 OA
ENDBRANCH   1  16
BRANCH  14  28
HETATM   28  N6  UNL     1      18.368  -1.634  53.850  1.00  0.00    -0.301 NA
HETATM   29  H11 UNL     1      17.671  -2.261  53.314  1.00  0.00     0.124 HD
HETATM   30  H12 UNL     1      19.048  -0.916  54.268  1.00  0.00     0.124 HD
ENDBRANCH  14  28
TORSDOF 2
ENDMDL
MODEL 4
REMARK VINA RESULT:      -9.2      1.811      2.410
REMARK  2 active torsions:
REMARK  status: ('A' for Active; 'I' for Inactive)
REMARK    1  A    between atoms: C5_6  and  C6_7 
REMARK    2  A    between atoms: C15_20  and  N6_21 
ROOT
HETATM    1  C6  UNL     1      23.096   1.698  51.646  1.00  0.00     0.234 A 
HETATM    2  C7  UNL     1      23.633   2.709  50.807  1.00  0.00     0.048 A 
HETATM    3  C8  UNL     1      24.983   2.886  51.045  1.00  0.00     0.047 A 
HETATM    4  C9  UNL     1      25.070   1.953  51.997  1.00  0.00     0.240 A 
HETATM    5  C10 UNL     1      26.119   1.522  52.749  1.00  0.00     0.258 A 
HETATM    6  N2  UNL     1      25.284   0.707  53.308  1.00  0.00     0.302 N 
HETATM    7  C11 UNL     1      25.266  -0.143  54.154  1.00  0.00     0.451 A 
HETATM    8  N3  UNL     1      24.330   0.293  53.427  1.00  0.00     0.185 NA
HETATM    9  N4  UNL     1      24.062   1.153  52.482  1.00  0.00     0.283 N 
HETATM   10  N5  UNL     1      26.480  -0.333  54.732  1.00  0.00    -0.342 N 
HETATM   11  C12 UNL     1      27.865   0.007  54.881  1.00  0.00     0.087 C 
HETATM   12  C13 UNL     1      28.637   0.907  54.282  1.00  0.00     0.019 C 
HETATM   13  C14 UNL     1      28.376   1.929  53.247  1.00  0.00     0.027 C 
HETATM   14  C15 UNL     1      27.350   2.191  52.450  1.00  0.00     0.048 C 
HETATM   15  H7  UNL     1      25.733  -0.991  55.092  1.00  0.00     0.163 HD
ENDROOT
BRANCH   1  16
HETATM   16  C5  UNL     1      21.843   1.057  51.920  1.00  0.00     0.124 C 
HETATM   17  C4  UNL     1      21.395  -0.051  52.431  1.00  0.00     0.130 C 
HETATM   18  N1  UNL     1      19.989  -0.273  52.506  1.00  0.00    -0.354 N 
HETATM   19  C3  UNL     1      19.236   0.125  51.533  1.00  0.00     0.013 A 
HETATM   20  C1  UNL     1      19.098  -0.820  53.349  1.00  0.00     0.157 A 
HETATM   21  C2  UNL     1      18.240  -0.458  52.423  1.00  0.00     0.019 A 
HETATM   22  C20 UNL     1      18.899   0.744  50.225  1.00  0.00     0.084 C 
HETATM   23  C19 UNL     1      17.917   1.798  50.201  1.00  0.00    -0.009 C 
HETATM   24  C18 UNL     1      17.730   2.796  51.034  1.00  0.00    -0.032 C 
HETATM   25  C17 UNL     1      18.853   3.025  51.698  1.00  0.00     0.011 C 
HETATM   26  C16 UNL     1      20.160   2.719  50.971  1.00  0.00     0.204 C 
HETATM   27  O1  UNL     1      20.929   1.844  51.529  1.00  0.00    -0.344 OA
ENDBRANCH   1  16
BRANCH  14  28
HETATM   28  N6  UNL     1      27.278   3.010  51.352  1.00  0.00    -0.301 NA
HETATM   29  H11 UNL     1      27.471   3.732  52.132  1.00  0.00     0.124 HD
HETATM   30  H12 UNL     1      27.091   2.191  50.684  1.00  0.00     0.124 HD
ENDBRANCH  14  28
TORSDOF 2
ENDMDL
MODEL 5
REMARK VINA RESULT:      -9.0      1.997      3.528
REMARK  2 active torsions:
REMARK  status: ('A' for Active; 'I' for Inactive)
REMARK    1  A    between atoms: C5_6  and  C6_7 
REMARK    2  A    between atoms: C15_20  and  N6_21 
ROOT
HETATM    1  C6  UNL     1      22.938   0.596  52.291  1.00  0.00     0.234 A 
HETATM    2  C7  UNL     1      22.744  -0.438  53.244  1.00  0.00     0.048 A 
HETATM    3  C8  UNL     1      23.881  -0.630  54.005  1.00  0.00     0.047 A 
HETATM    4  C9  UNL     1      24.603   0.320  53.402  1.00  0.00     0.240 A 
HETATM    5  C10 UNL     1      25.878   0.748  53.598  1.00  0.00     0.258 A 
HETATM    6  N2  UNL     1      25.663   1.586  52.636  1.00  0.00     0.302 N 
HETATM    7  C11 UNL     1      26.236   2.452  52.035  1.00  0.00     0.451 A 
HETATM    8  N3  UNL     1      25.058   2.016  51.898  1.00  0.00     0.185 NA
HETATM    9  N4  UNL     1      24.212   1.143  52.373  1.00  0.00     0.283 N 
HETATM   10  N5  UNL     1      27.510   2.635  52.466  1.00  0.00    -0.342 N 
HETATM   11  C12 UNL     1      28.612   2.277  53.312  1.00  0.00     0.087 C 
HETATM   12  C13 UNL     1      28.754   1.355  54.258  1.00  0.00     0.019 C 
HETATM   13  C14 UNL     1      27.850   0.318  54.797  1.00  0.00     0.027 C 
HETATM   14  C15 UNL     1      26.559   0.056  54.652  1.00  0.00     0.048 C 
HETATM   15  H7  UNL     1      27.221   3.310  51.704  1.00  0.00     0.163 HD
ENDROOT
BRANCH   1  16
HETATM   16  C5  UNL     1      22.224   1.261  51.239  1.00  0.00     0.124 C 
HETATM   17  C4  UNL     1      22.419   1.663  50.018  1.00  0.00     0.130 C 
HETATM   18  N1  UNL     1      21.363   2.315  49.316  1.00  0.00    -0.354 N 
HETATM   19  C3  UNL     1      20.593   3.133  49.955  1.00  0.00     0.013 A 
HETATM   20  C1  UNL     1      20.856   2.359  48.073  1.00  0.00     0.157 A 
HETATM   21  C2  UNL     1      20.014   3.206  48.618  1.00  0.00     0.019 A 
HETATM   22  C20 UNL     1      20.073   3.906  51.112  1.00  0.00     0.084 C 
HETATM   23  C19 UNL     1      18.680   3.772  51.452  1.00  0.00    -0.009 C 
HETATM   24  C18 UNL     1      17.913   2.706  51.467  1.00  0.00    -0.032 C 
HETATM   25  C17 UNL     1      18.672   1.626  51.575  1.00  0.00     0.011 C 
HETATM   26  C16 UNL     1      19.983   1.777  52.340  1.00  0.00     0.204 C 
HETATM   27  O1  UNL     1      21.061   1.512  51.678  1.00  0.00    -0.344 OA
ENDBRANCH   1  16
BRANCH  14  28
HETATM   28  N6  UNL     1      25.747  -0.782  55.373  1.00  0.00    -0.301 NA
HETATM   29  H11 UNL     1      26.719  -1.189  55.608  1.00  0.00     0.124 HD
HETATM   30  H12 UNL     1      24.853  -0.278  55.057  1.00  0.00     0.124 HD
ENDBRANCH  14  28
TORSDOF 2
ENDMDL
MODEL 6
REMARK VINA RESULT:      -8.9      2.367      4.125
REMARK  2 active torsions:
REMARK  status: ('A' for Active; 'I' for Inactive)
REMARK    1  A    between atoms: C5_6  and  C6_7 
REMARK    2  A    between atoms: C15_20  and  N6_21 
ROOT
HETATM    1  C6  UNL     1      23.392   1.465  51.539  1.00  0.00     0.234 A 
HETATM    2  C7  UNL     1      22.788   0.424  52.290  1.00  0.00     0.048 A 
HETATM    3  C8  UNL     1      23.668  -0.090  53.223  1.00  0.00     0.047 A 
HETATM    4  C9  UNL     1      24.684   0.717  52.902  1.00  0.00     0.240 A 
HETATM    5  C10 UNL     1      25.947   0.822  53.394  1.00  0.00     0.258 A 
HETATM    6  N2  UNL     1      26.123   1.768  52.529  1.00  0.00     0.302 N 
HETATM    7  C11 UNL     1      26.978   2.529  52.170  1.00  0.00     0.451 A 
HETATM    8  N3  UNL     1      25.794   2.389  51.753  1.00  0.00     0.185 NA
HETATM    9  N4  UNL     1      24.703   1.695  51.935  1.00  0.00     0.283 N 
HETATM   10  N5  UNL     1      28.139   2.375  52.857  1.00  0.00    -0.342 N 
HETATM   11  C12 UNL     1      28.933   1.701  53.844  1.00  0.00     0.087 C 
HETATM   12  C13 UNL     1      28.673   0.692  54.667  1.00  0.00     0.019 C 
HETATM   13  C14 UNL     1      27.480  -0.153  54.881  1.00  0.00     0.027 C 
HETATM   14  C15 UNL     1      26.225  -0.097  54.457  1.00  0.00     0.048 C 
HETATM   15  H7  UNL     1      28.167   3.162  52.151  1.00  0.00     0.163 HD
ENDROOT
BRANCH   1  16
HETATM   16  C5  UNL     1      23.077   2.365  50.468  1.00  0.00     0.124 C 
HETATM   17  C4  UNL     1      23.029   2.372  49.169  1.00  0.00     0.130 C 
HETATM   18  N1  UNL     1      22.637   3.561  48.486  1.00  0.00    -0.354 N 
HETATM   19  C3  UNL     1      23.029   4.706  48.940  1.00  0.00     0.013 A 
HETATM   20  C1  UNL     1      21.917   3.913  47.408  1.00  0.00     0.157 A 
HETATM   21  C2  UNL     1      22.253   5.127  47.779  1.00  0.00     0.019 A 
HETATM   22  C20 UNL     1      23.723   5.657  49.845  1.00  0.00     0.084 C 
HETATM   23  C19 UNL     1      22.952   6.713  50.449  1.00  0.00    -0.009 C 
HETATM   24  C18 UNL     1      21.739   6.690  50.952  1.00  0.00    -0.032 C 
HETATM   25  C17 UNL     1      21.427   5.445  51.279  1.00  0.00     0.011 C 
HETATM   26  C16 UNL     1      22.575   4.536  51.708  1.00  0.00     0.204 C 
HETATM   27  O1  UNL     1      22.755   3.473  50.995  1.00  0.00    -0.344 OA
ENDBRANCH   1  16
BRANCH  14  28
HETATM   28  N6  UNL     1      25.120  -0.786  54.891  1.00  0.00    -0.301 NA
HETATM   29  H11 UNL     1      24.741  -0.345  53.980  1.00  0.00     0.124 HD
HETATM   30  H12 UNL     1      25.625  -1.157  55.763  1.00  0.00     0.124 HD
ENDBRANCH  14  28
TORSDOF 2
ENDMDL
MODEL 7
REMARK VINA RESULT:      -8.8      3.967      7.293
REMARK  2 active torsions:
REMARK  status: ('A' for Active; 'I' for Inactive)
REMARK    1  A    between atoms: C5_6  and  C6_7 
REMARK    2  A    between atoms: C15_20  and  N6_21 
ROOT
HETATM    1  C6  UNL     1      25.578   3.123  50.707  1.00  0.00     0.234 A 
HETATM    2  C7  UNL     1      26.567   3.395  49.726  1.00  0.00     0.048 A 
HETATM    3  C8  UNL     1      26.358   4.628  49.139  1.00  0.00     0.047 A 
HETATM    4  C9  UNL     1      25.268   4.928  49.852  1.00  0.00     0.240 A 
HETATM    5  C10 UNL     1      24.455   6.019  49.847  1.00  0.00     0.258 A 
HETATM    6  N2  UNL     1      23.775   5.420  50.770  1.00  0.00     0.302 N 
HETATM    7  C11 UNL     1      22.804   5.601  51.452  1.00  0.00     0.451 A 
HETATM    8  N3  UNL     1      23.593   4.615  51.415  1.00  0.00     0.185 NA
HETATM    9  N4  UNL     1      24.664   4.163  50.821  1.00  0.00     0.283 N 
HETATM   10  N5  UNL     1      22.201   6.791  51.198  1.00  0.00    -0.342 N 
HETATM   11  C12 UNL     1      22.105   8.017  50.460  1.00  0.00     0.087 C 
HETATM   12  C13 UNL     1      22.839   8.534  49.481  1.00  0.00     0.019 C 
HETATM   13  C14 UNL     1      24.025   8.046  48.746  1.00  0.00     0.027 C 
HETATM   14  C15 UNL     1      24.855   7.026  48.911  1.00  0.00     0.048 C 
HETATM   15  H7  UNL     1      21.741   6.241  51.978  1.00  0.00     0.163 HD
ENDROOT
BRANCH   1  16
HETATM   16  C5  UNL     1      25.207   2.088  51.627  1.00  0.00     0.124 C 
HETATM   17  C4  UNL     1      24.133   1.553  52.127  1.00  0.00     0.130 C 
HETATM   18  N1  UNL     1      24.250   0.484  53.063  1.00  0.00    -0.354 N 
HETATM   19  C3  UNL     1      25.201   0.514  53.938  1.00  0.00     0.013 A 
HETATM   20  C1  UNL     1      23.625  -0.667  53.362  1.00  0.00     0.157 A 
HETATM   21  C2  UNL     1      24.550  -0.742  54.291  1.00  0.00     0.019 A 
HETATM   22  C20 UNL     1      26.389   1.047  54.654  1.00  0.00     0.084 C 
HETATM   23  C19 UNL     1      27.551   0.204  54.769  1.00  0.00    -0.009 C 
HETATM   24  C18 UNL     1      28.099  -0.603  53.890  1.00  0.00    -0.032 C 
HETATM   25  C17 UNL     1      27.736  -0.230  52.672  1.00  0.00     0.011 C 
HETATM   26  C16 UNL     1      27.470   1.256  52.455  1.00  0.00     0.204 C 
HETATM   27  O1  UNL     1      26.281   1.569  52.057  1.00  0.00    -0.344 OA
ENDBRANCH   1  16
BRANCH  14  28
HETATM   28  N6  UNL     1      26.070   6.779  48.323  1.00  0.00    -0.301 NA
HETATM   29  H11 UNL     1      25.402   6.314  47.614  1.00  0.00     0.124 HD
HETATM   30  H12 UNL     1      26.612   7.278  49.105  1.00  0.00     0.124 HD
ENDBRANCH  14  28
TORSDOF 2
ENDMDL
MODEL 8
REMARK VINA RESULT:      -8.8      8.857     11.872
REMARK  2 active torsions:
REMARK  status: ('A' for Active; 'I' for Inactive)
REMARK    1  A    between atoms: C5_6  and  C6_7 
REMARK    2  A    between atoms: C15_20  and  N6_21 
ROOT
HETATM    1  C6  UNL     1      31.272   8.084  47.346  1.00  0.00     0.234 A 
HETATM    2  C7  UNL     1      31.352   9.423  47.808  1.00  0.00     0.048 A 
HETATM    3  C8  UNL     1      30.247   9.750  48.571  1.00  0.00     0.047 A 
HETATM    4  C9  UNL     1      29.656   8.557  48.462  1.00  0.00     0.240 A 
HETATM    5  C10 UNL     1      28.482   8.080  48.957  1.00  0.00     0.258 A 
HETATM    6  N2  UNL     1      28.773   6.968  48.363  1.00  0.00     0.302 N 
HETATM    7  C11 UNL     1      28.315   5.870  48.206  1.00  0.00     0.451 A 
HETATM    8  N3  UNL     1      29.394   6.364  47.775  1.00  0.00     0.185 NA
HETATM    9  N4  UNL     1      30.113   7.454  47.780  1.00  0.00     0.283 N 
HETATM   10  N5  UNL     1      27.116   5.709  48.824  1.00  0.00    -0.342 N 
HETATM   11  C12 UNL     1      26.025   6.225  49.599  1.00  0.00     0.087 C 
HETATM   12  C13 UNL     1      25.792   7.416  50.137  1.00  0.00     0.019 C 
HETATM   13  C14 UNL     1      26.544   8.688  50.133  1.00  0.00     0.027 C 
HETATM   14  C15 UNL     1      27.763   9.035  49.746  1.00  0.00     0.048 C 
HETATM   15  H7  UNL     1      27.466   4.833  48.343  1.00  0.00     0.163 HD
ENDROOT
BRANCH   1  16
HETATM   16  C5  UNL     1      32.019   7.158  46.544  1.00  0.00     0.124 C 
HETATM   17  C4  UNL     1      32.203   6.865  45.291  1.00  0.00     0.130 C 
HETATM   18  N1  UNL     1      33.089   5.806  44.939  1.00  0.00    -0.354 N 
HETATM   19  C3  UNL     1      33.121   4.742  45.672  1.00  0.00     0.013 A 
HETATM   20  C1  UNL     1      33.999   5.525  43.991  1.00  0.00     0.157 A 
HETATM   21  C2  UNL     1      34.116   4.402  44.661  1.00  0.00     0.019 A 
HETATM   22  C20 UNL     1      32.752   3.835  46.790  1.00  0.00     0.084 C 
HETATM   23  C19 UNL     1      33.801   3.347  47.648  1.00  0.00    -0.009 C 
HETATM   24  C18 UNL     1      34.852   3.967  48.132  1.00  0.00    -0.032 C 
HETATM   25  C17 UNL     1      34.627   5.273  48.128  1.00  0.00     0.011 C 
HETATM   26  C16 UNL     1      33.181   5.725  48.304  1.00  0.00     0.204 C 
HETATM   27  O1  UNL     1      32.684   6.428  47.340  1.00  0.00    -0.344 OA
ENDBRANCH   1  16
BRANCH  14  28
HETATM   28  N6  UNL     1      28.469  10.185  49.995  1.00  0.00    -0.301 NA
HETATM   29  H11 UNL     1      27.604  10.338  50.622  1.00  0.00     0.124 HD
HETATM   30  H12 UNL     1      29.268   9.904  49.334  1.00  0.00     0.124 HD
ENDBRANCH  14  28
TORSDOF 2
ENDMDL
MODEL 9
REMARK VINA RESULT:      -8.7      3.138      5.020
REMARK  2 active torsions:
REMARK  status: ('A' for Active; 'I' for Inactive)
REMARK    1  A    between atoms: C5_6  and  C6_7 
REMARK    2  A    between atoms: C15_20  and  N6_21 
ROOT
HETATM    1  C6  UNL     1      25.059   2.388  50.964  1.00  0.00     0.234 A 
HETATM    2  C7  UNL     1      26.411   2.097  51.284  1.00  0.00     0.048 A 
HETATM    3  C8  UNL     1      26.491   1.188  52.321  1.00  0.00     0.047 A 
HETATM    4  C9  UNL     1      25.171   1.058  52.481  1.00  0.00     0.240 A 
HETATM    5  C10 UNL     1      24.433   0.310  53.346  1.00  0.00     0.258 A 
HETATM    6  N2  UNL     1      23.390   0.821  52.777  1.00  0.00     0.302 N 
HETATM    7  C11 UNL     1      22.193   0.772  52.852  1.00  0.00     0.451 A 
HETATM    8  N3  UNL     1      22.927   1.442  52.073  1.00  0.00     0.185 NA
HETATM    9  N4  UNL     1      24.174   1.686  51.772  1.00  0.00     0.283 N 
HETATM   10  N5  UNL     1      21.764  -0.065  53.831  1.00  0.00    -0.342 N 
HETATM   11  C12 UNL     1      22.026  -0.963  54.919  1.00  0.00     0.087 C 
HETATM   12  C13 UNL     1      23.152  -1.400  55.468  1.00  0.00     0.019 C 
HETATM   13  C14 UNL     1      24.579  -1.122  55.200  1.00  0.00     0.027 C 
HETATM   14  C15 UNL     1      25.227  -0.486  54.234  1.00  0.00     0.048 C 
HETATM   15  H7  UNL     1      20.978   0.372  53.272  1.00  0.00     0.163 HD
ENDROOT
BRANCH   1  16
HETATM   16  C5  UNL     1      24.301   3.205  50.062  1.00  0.00     0.124 C 
HETATM   17  C4  UNL     1      23.603   3.082  48.972  1.00  0.00     0.130 C 
HETATM   18  N1  UNL     1      22.993   4.233  48.394  1.00  0.00    -0.354 N 
HETATM   19  C3  UNL     1      23.630   5.358  48.411  1.00  0.00     0.013 A 
HETATM   20  C1  UNL     1      21.850   4.563  47.770  1.00  0.00     0.157 A 
HETATM   21  C2  UNL     1      22.401   5.754  47.732  1.00  0.00     0.019 A 
HETATM   22  C20 UNL     1      24.743   6.300  48.696  1.00  0.00     0.084 C 
HETATM   23  C19 UNL     1      24.449   7.505  49.427  1.00  0.00    -0.009 C 
HETATM   24  C18 UNL     1      23.658   7.694  50.458  1.00  0.00    -0.032 C 
HETATM   25  C17 UNL     1      23.479   6.542  51.087  1.00  0.00     0.011 C 
HETATM   26  C16 UNL     1      24.628   5.540  51.031  1.00  0.00     0.204 C 
HETATM   27  O1  UNL     1      24.358   4.394  50.498  1.00  0.00    -0.344 OA
ENDBRANCH   1  16
BRANCH  14  28
HETATM   28  N6  UNL     1      26.565  -0.476  53.934  1.00  0.00    -0.301 NA
HETATM   29  H11 UNL     1      26.486  -1.405  54.480  1.00  0.00     0.124 HD
HETATM   30  H12 UNL     1      26.499   0.461  53.414  1.00  0.00     0.124 HD
ENDBRANCH  14  28
TORSDOF 2
ENDMDL
