MODEL 1
REMARK VINA RESULT:      -8.5      0.000      0.000
REMARK  6 active torsions:
REMARK  status: ('A' for Active; 'I' for Inactive)
REMARK    1  A    between atoms: O1_2  and  C2_3 
REMARK    2  A    between atoms: C7_8  and  O2_9 
REMARK    3  A    between atoms: O2_9  and  C8_10 
REMARK    4  A    between atoms: C8_10  and  N1_11 
REMARK    5  A    between atoms: N1_11  and  C9_12 
REMARK    6  A    between atoms: C18_22  and  N3_23 
ROOT
HETATM    1  C2  UNL     1      24.362  -0.006  53.538  1.00  0.00     0.103 A 
HETATM    2  C3  UNL     1      25.414  -0.638  54.212  1.00  0.00     0.071 A 
HETATM    3  C4  UNL     1      26.614   0.039  54.210  1.00  0.00     0.066 A 
HETATM    4  C5  UNL     1      26.855   1.270  53.605  1.00  0.00     0.019 A 
HETATM    5  C6  UNL     1      25.775   1.836  52.960  1.00  0.00     0.055 A 
HETATM    6  C7  UNL     1      24.527   1.236  52.904  1.00  0.00     0.105 A 
HETATM    7  C18 UNL     1      28.107   1.644  53.787  1.00  0.00     0.035 A 
HETATM    8  C19 UNL     1      28.765   0.573  54.583  1.00  0.00     0.206 A 
HETATM    9  N4  UNL     1      27.700  -0.367  54.772  1.00  0.00    -0.283 NA
ENDROOT
BRANCH   6  10
HETATM   10  O2  UNL     1      23.512   1.749  52.307  1.00  0.00    -0.329 OA
BRANCH  10  11
HETATM   11  C8  UNL     1      22.492   2.294  51.709  1.00  0.00     0.299 C 
BRANCH  11  12
HETATM   12  N1  UNL     1      22.679   2.669  50.293  1.00  0.00    -0.353 N 
HETATM   13  H8  UNL     1      22.059   2.167  49.587  1.00  0.00     0.163 HD
BRANCH  12  14
HETATM   14  C9  UNL     1      23.598   3.621  49.836  1.00  0.00     0.125 A 
HETATM   15  C10 UNL     1      24.934   3.367  49.679  1.00  0.00     0.062 A 
HETATM   16  C11 UNL     1      25.762   4.370  49.228  1.00  0.00    -0.021 A 
HETATM   17  C12 UNL     1      27.138   4.162  49.049  1.00  0.00     0.012 A 
HETATM   18  C16 UNL     1      25.348   5.636  48.912  1.00  0.00    -0.008 A 
HETATM   19  C13 UNL     1      27.967   5.187  48.589  1.00  0.00     0.001 A 
HETATM   20  C14 UNL     1      27.471   6.438  48.292  1.00  0.00     0.001 A 
HETATM   21  C15 UNL     1      26.124   6.674  48.457  1.00  0.00     0.014 A 
HETATM   22  C17 UNL     1      23.975   5.827  49.095  1.00  0.00     0.131 A 
HETATM   23  N2  UNL     1      23.169   4.856  49.534  1.00  0.00    -0.243 NA
ENDBRANCH  12  14
ENDBRANCH  11  12
ENDBRANCH  10  11
ENDBRANCH   6  10
BRANCH   1  24
HETATM   24  O1  UNL     1      23.114  -0.607  53.482  1.00  0.00    -0.353 OA
HETATM   25  C1  UNL     1      22.321  -0.803  54.628  1.00  0.00     0.210 C 
ENDBRANCH   1  24
BRANCH   7  26
HETATM   26  N3  UNL     1      28.739   2.832  53.327  1.00  0.00    -0.400 N 
HETATM   27  H15 UNL     1      29.558   3.165  53.882  1.00  0.00     0.156 HD
HETATM   28  H16 UNL     1      28.488   3.426  52.495  1.00  0.00     0.156 HD
ENDBRANCH   7  26
TORSDOF 6
ENDMDL
MODEL 2
REMARK VINA RESULT:      -8.1      3.509      7.291
REMARK  6 active torsions:
REMARK  status: ('A' for Active; 'I' for Inactive)
REMARK    1  A    between atoms: O1_2  and  C2_3 
REMARK    2  A    between atoms: C7_8  and  O2_9 
REMARK    3  A    between atoms: O2_9  and  C8_10 
REMARK    4  A    between atoms: C8_10  and  N1_11 
REMARK    5  A    between atoms: N1_11  and  C9_12 
REMARK    6  A    between atoms: C18_22  and  N3_23 
ROOT
HETATM    1  C2  UNL     1      20.922  -0.002  53.348  1.00  0.00     0.103 A 
HETATM    2  C3  UNL     1      19.704  -0.616  53.668  1.00  0.00     0.071 A 
HETATM    3  C4  UNL     1      18.733  -0.555  52.692  1.00  0.00     0.066 A 
HETATM    4  C5  UNL     1      18.866   0.052  51.447  1.00  0.00     0.019 A 
HETATM    5  C6  UNL     1      20.091   0.636  51.197  1.00  0.00     0.055 A 
HETATM    6  C7  UNL     1      21.132   0.630  52.113  1.00  0.00     0.105 A 
HETATM    7  C18 UNL     1      17.754  -0.067  50.747  1.00  0.00     0.035 A 
HETATM    8  C19 UNL     1      16.790  -0.819  51.595  1.00  0.00     0.206 A 
HETATM    9  N4  UNL     1      17.551  -1.057  52.786  1.00  0.00    -0.283 NA
ENDROOT
BRANCH   6  10
HETATM   10  O2  UNL     1      22.278   1.169  51.897  1.00  0.00    -0.329 OA
BRANCH  10  11
HETATM   11  C8  UNL     1      23.450   1.690  51.680  1.00  0.00     0.299 C 
BRANCH  11  12
HETATM   12  N1  UNL     1      24.335   1.839  52.852  1.00  0.00    -0.353 N 
HETATM   13  H8  UNL     1      23.997   2.499  53.618  1.00  0.00     0.163 HD
BRANCH  12  14
HETATM   14  C9  UNL     1      25.560   1.181  53.015  1.00  0.00     0.125 A 
HETATM   15  C10 UNL     1      25.737  -0.155  52.771  1.00  0.00     0.062 A 
HETATM   16  C11 UNL     1      26.980  -0.716  52.965  1.00  0.00    -0.021 A 
HETATM   17  C12 UNL     1      27.215  -2.078  52.728  1.00  0.00     0.012 A 
HETATM   18  C16 UNL     1      28.084  -0.029  53.393  1.00  0.00    -0.008 A 
HETATM   19  C13 UNL     1      28.480  -2.635  52.927  1.00  0.00     0.001 A 
HETATM   20  C14 UNL     1      29.544  -1.873  53.361  1.00  0.00     0.001 A 
HETATM   21  C15 UNL     1      29.345  -0.533  53.602  1.00  0.00     0.014 A 
HETATM   22  C17 UNL     1      27.833   1.327  53.623  1.00  0.00     0.131 A 
HETATM   23  N2  UNL     1      26.629   1.874  53.437  1.00  0.00    -0.243 NA
ENDBRANCH  12  14
ENDBRANCH  11  12
ENDBRANCH  10  11
ENDBRANCH   6  10
BRANCH   1  24
HETATM   24  O1  UNL     1      21.963  -0.008  54.265  1.00  0.00    -0.353 OA
HETATM   25  C1  UNL     1      22.469  -1.197  54.822  1.00  0.00     0.210 C 
ENDBRANCH   1  24
BRANCH   7  26
HETATM   26  N3  UNL     1      17.491   0.417  49.435  1.00  0.00    -0.400 N 
HETATM   27  H15 UNL     1      17.432  -0.301  48.681  1.00  0.00     0.156 HD
HETATM   28  H16 UNL     1      17.347   1.412  49.122  1.00  0.00     0.156 HD
ENDBRANCH   7  26
TORSDOF 6
ENDMDL
MODEL 3
REMARK VINA RESULT:      -8.0      3.206      6.933
REMARK  6 active torsions:
REMARK  status: ('A' for Active; 'I' for Inactive)
REMARK    1  A    between atoms: O1_2  and  C2_3 
REMARK    2  A    between atoms: C7_8  and  O2_9 
REMARK    3  A    between atoms: O2_9  and  C8_10 
REMARK    4  A    between atoms: C8_10  and  N1_11 
REMARK    5  A    between atoms: N1_11  and  C9_12 
REMARK    6  A    between atoms: C18_22  and  N3_23 
ROOT
HETATM    1  C2  UNL     1      21.133   2.468  51.409  1.00  0.00     0.103 A 
HETATM    2  C3  UNL     1      19.883   1.844  51.307  1.00  0.00     0.071 A 
HETATM    3  C4  UNL     1      19.690   0.761  52.136  1.00  0.00     0.066 A 
HETATM    4  C5  UNL     1      20.616   0.253  53.043  1.00  0.00     0.019 A 
HETATM    5  C6  UNL     1      21.825   0.915  53.092  1.00  0.00     0.055 A 
HETATM    6  C7  UNL     1      22.118   2.014  52.300  1.00  0.00     0.105 A 
HETATM    7  C18 UNL     1      20.121  -0.789  53.683  1.00  0.00     0.035 A 
HETATM    8  C19 UNL     1      18.743  -1.000  53.163  1.00  0.00     0.206 A 
HETATM    9  N4  UNL     1      18.616   0.052  52.198  1.00  0.00    -0.283 NA
ENDROOT
BRANCH   6  10
HETATM   10  O2  UNL     1      23.238   2.642  52.333  1.00  0.00    -0.329 OA
BRANCH  10  11
HETATM   11  C8  UNL     1      24.382   3.261  52.385  1.00  0.00     0.299 C 
BRANCH  11  12
HETATM   12  N1  UNL     1      25.260   2.932  53.526  1.00  0.00    -0.353 N 
HETATM   13  H8  UNL     1      25.113   3.503  54.414  1.00  0.00     0.163 HD
BRANCH  12  14
HETATM   14  C9  UNL     1      26.247   1.940  53.512  1.00  0.00     0.125 A 
HETATM   15  C10 UNL     1      26.013   0.648  53.123  1.00  0.00     0.062 A 
HETATM   16  C11 UNL     1      27.047  -0.261  53.148  1.00  0.00    -0.021 A 
HETATM   17  C12 UNL     1      26.861  -1.596  52.759  1.00  0.00     0.012 A 
HETATM   18  C16 UNL     1      28.326   0.029  53.540  1.00  0.00    -0.008 A 
HETATM   19  C13 UNL     1      27.918  -2.507  52.787  1.00  0.00     0.001 A 
HETATM   20  C14 UNL     1      29.181  -2.135  53.195  1.00  0.00     0.001 A 
HETATM   21  C15 UNL     1      29.396  -0.832  53.584  1.00  0.00     0.014 A 
HETATM   22  C17 UNL     1      28.495   1.363  53.924  1.00  0.00     0.131 A 
HETATM   23  N2  UNL     1      27.494   2.247  53.902  1.00  0.00    -0.243 NA
ENDBRANCH  12  14
ENDBRANCH  11  12
ENDBRANCH  10  11
ENDBRANCH   6  10
BRANCH   1  24
HETATM   24  O1  UNL     1      21.425   3.567  50.616  1.00  0.00    -0.353 OA
HETATM   25  C1  UNL     1      21.392   3.512  49.210  1.00  0.00     0.210 C 
ENDBRANCH   1  24
BRANCH   7  26
HETATM   26  N3  UNL     1      20.752  -1.581  54.682  1.00  0.00    -0.400 N 
HETATM   27  H15 UNL     1      20.219  -1.718  55.569  1.00  0.00     0.156 HD
HETATM   28  H16 UNL     1      21.693  -2.051  54.646  1.00  0.00     0.156 HD
ENDBRANCH   7  26
TORSDOF 6
ENDMDL
MODEL 4
REMARK VINA RESULT:      -7.9      3.457      6.741
REMARK  6 active torsions:
REMARK  status: ('A' for Active; 'I' for Inactive)
REMARK    1  A    between atoms: O1_2  and  C2_3 
REMARK    2  A    between atoms: C7_8  and  O2_9 
REMARK    3  A    between atoms: O2_9  and  C8_10 
REMARK    4  A    between atoms: C8_10  and  N1_11 
REMARK    5  A    between atoms: N1_11  and  C9_12 
REMARK    6  A    between atoms: C18_22  and  N3_23 
ROOT
HETATM    1  C2  UNL     1      25.768   1.221  53.449  1.00  0.00     0.103 A 
HETATM    2  C3  UNL     1      27.104   1.639  53.492  1.00  0.00     0.071 A 
HETATM    3  C4  UNL     1      28.044   0.632  53.458  1.00  0.00     0.066 A 
HETATM    4  C5  UNL     1      27.775  -0.732  53.384  1.00  0.00     0.019 A 
HETATM    5  C6  UNL     1      26.439  -1.073  53.344  1.00  0.00     0.055 A 
HETATM    6  C7  UNL     1      25.418  -0.136  53.374  1.00  0.00     0.105 A 
HETATM    7  C18 UNL     1      28.895  -1.429  53.368  1.00  0.00     0.035 A 
HETATM    8  C19 UNL     1      30.013  -0.451  53.435  1.00  0.00     0.206 A 
HETATM    9  N4  UNL     1      29.320   0.803  53.485  1.00  0.00    -0.283 NA
ENDROOT
BRANCH   6  10
HETATM   10  O2  UNL     1      24.169  -0.437  53.338  1.00  0.00    -0.329 OA
BRANCH  10  11
HETATM   11  C8  UNL     1      22.898  -0.715  53.303  1.00  0.00     0.299 C 
BRANCH  11  12
HETATM   12  N1  UNL     1      21.987   0.398  52.970  1.00  0.00    -0.353 N 
HETATM   13  H8  UNL     1      22.340   1.379  53.192  1.00  0.00     0.163 HD
BRANCH  12  14
HETATM   14  C9  UNL     1      20.720   0.246  52.394  1.00  0.00     0.125 A 
HETATM   15  C10 UNL     1      19.696  -0.440  52.992  1.00  0.00     0.062 A 
HETATM   16  C11 UNL     1      18.485  -0.541  52.345  1.00  0.00    -0.021 A 
HETATM   17  C12 UNL     1      17.404  -1.230  52.913  1.00  0.00     0.012 A 
HETATM   18  C16 UNL     1      18.212   0.003  51.118  1.00  0.00    -0.008 A 
HETATM   19  C13 UNL     1      16.181  -1.324  52.248  1.00  0.00     0.001 A 
HETATM   20  C14 UNL     1      15.985  -0.746  51.011  1.00  0.00     0.001 A 
HETATM   21  C15 UNL     1      17.028  -0.063  50.426  1.00  0.00     0.014 A 
HETATM   22  C17 UNL     1      19.300   0.687  50.566  1.00  0.00     0.131 A 
HETATM   23  N2  UNL     1      20.476   0.786  51.190  1.00  0.00    -0.243 NA
ENDBRANCH  12  14
ENDBRANCH  11  12
ENDBRANCH  10  11
ENDBRANCH   6  10
BRANCH   1  24
HETATM   24  O1  UNL     1      24.747   2.159  53.480  1.00  0.00    -0.353 OA
HETATM   25  C1  UNL     1      24.475   3.012  52.394  1.00  0.00     0.210 C 
ENDBRANCH   1  24
BRANCH   7  26
HETATM   26  N3  UNL     1      29.043  -2.843  53.299  1.00  0.00    -0.400 N 
HETATM   27  H15 UNL     1      29.937  -3.195  52.894  1.00  0.00     0.156 HD
HETATM   28  H16 UNL     1      28.364  -3.587  53.605  1.00  0.00     0.156 HD
ENDBRANCH   7  26
TORSDOF 6
ENDMDL
MODEL 5
REMARK VINA RESULT:      -7.7      2.201      3.972
REMARK  6 active torsions:
REMARK  status: ('A' for Active; 'I' for Inactive)
REMARK    1  A    between atoms: O1_2  and  C2_3 
REMARK    2  A    between atoms: C7_8  and  O2_9 
REMARK    3  A    between atoms: O2_9  and  C8_10 
REMARK    4  A    between atoms: C8_10  and  N1_11 
REMARK    5  A    between atoms: N1_11  and  C9_12 
REMARK    6  A    between atoms: C18_22  and  N3_23 
ROOT
HETATM    1  C2  UNL     1      24.998  -0.019  53.619  1.00  0.00     0.103 A 
HETATM    2  C3  UNL     1      24.265  -0.921  54.401  1.00  0.00     0.071 A 
HETATM    3  C4  UNL     1      22.902  -0.911  54.200  1.00  0.00     0.066 A 
HETATM    4  C5  UNL     1      22.216  -0.097  53.304  1.00  0.00     0.019 A 
HETATM    5  C6  UNL     1      22.999   0.767  52.565  1.00  0.00     0.055 A 
HETATM    6  C7  UNL     1      24.378   0.835  52.694  1.00  0.00     0.105 A 
HETATM    7  C18 UNL     1      20.919  -0.334  53.354  1.00  0.00     0.035 A 
HETATM    8  C19 UNL     1      20.715  -1.401  54.370  1.00  0.00     0.206 A 
HETATM    9  N4  UNL     1      22.053  -1.661  54.814  1.00  0.00    -0.283 NA
ENDROOT
BRANCH   6  10
HETATM   10  O2  UNL     1      25.121   1.632  52.015  1.00  0.00    -0.329 OA
BRANCH  10  11
HETATM   11  C8  UNL     1      25.853   2.457  51.323  1.00  0.00     0.299 C 
BRANCH  11  12
HETATM   12  N1  UNL     1      25.152   3.276  50.313  1.00  0.00    -0.353 N 
HETATM   13  H8  UNL     1      24.135   3.019  50.122  1.00  0.00     0.163 HD
BRANCH  12  14
HETATM   14  C9  UNL     1      25.728   4.341  49.611  1.00  0.00     0.125 A 
HETATM   15  C10 UNL     1      27.048   4.381  49.250  1.00  0.00     0.062 A 
HETATM   16  C11 UNL     1      27.525   5.476  48.565  1.00  0.00    -0.021 A 
HETATM   17  C12 UNL     1      28.868   5.566  48.170  1.00  0.00     0.012 A 
HETATM   18  C16 UNL     1      26.768   6.558  48.204  1.00  0.00    -0.008 A 
HETATM   19  C13 UNL     1      29.340   6.681  47.474  1.00  0.00     0.001 A 
HETATM   20  C14 UNL     1      28.511   7.732  47.147  1.00  0.00     0.001 A 
HETATM   21  C15 UNL     1      27.187   7.673  47.521  1.00  0.00     0.014 A 
HETATM   22  C17 UNL     1      25.432   6.452  48.604  1.00  0.00     0.131 A 
HETATM   23  N2  UNL     1      24.966   5.392  49.270  1.00  0.00    -0.243 NA
ENDBRANCH  12  14
ENDBRANCH  11  12
ENDBRANCH  10  11
ENDBRANCH   6  10
BRANCH   1  24
HETATM   24  O1  UNL     1      26.377   0.049  53.748  1.00  0.00    -0.353 OA
HETATM   25  C1  UNL     1      27.240  -0.850  53.094  1.00  0.00     0.210 C 
ENDBRANCH   1  24
BRANCH   7  26
HETATM   26  N3  UNL     1      19.887   0.288  52.597  1.00  0.00    -0.400 N 
HETATM   27  H15 UNL     1      19.915   1.330  52.547  1.00  0.00     0.156 HD
HETATM   28  H16 UNL     1      19.092  -0.166  52.079  1.00  0.00     0.156 HD
ENDBRANCH   7  26
TORSDOF 6
ENDMDL
MODEL 6
REMARK VINA RESULT:      -7.6      3.309      6.385
REMARK  6 active torsions:
REMARK  status: ('A' for Active; 'I' for Inactive)
REMARK    1  A    between atoms: O1_2  and  C2_3 
REMARK    2  A    between atoms: C7_8  and  O2_9 
REMARK    3  A    between atoms: O2_9  and  C8_10 
REMARK    4  A    between atoms: C8_10  and  N1_11 
REMARK    5  A    between atoms: N1_11  and  C9_12 
REMARK    6  A    between atoms: C18_22  and  N3_23 
ROOT
HETATM    1  C2  UNL     1      24.042  -0.041  53.602  1.00  0.00     0.103 A 
HETATM    2  C3  UNL     1      25.114  -0.710  54.206  1.00  0.00     0.071 A 
HETATM    3  C4  UNL     1      26.316  -0.035  54.202  1.00  0.00     0.066 A 
HETATM    4  C5  UNL     1      26.539   1.227  53.658  1.00  0.00     0.019 A 
HETATM    5  C6  UNL     1      25.441   1.829  53.080  1.00  0.00     0.055 A 
HETATM    6  C7  UNL     1      24.189   1.233  53.033  1.00  0.00     0.105 A 
HETATM    7  C18 UNL     1      27.798   1.589  53.819  1.00  0.00     0.035 A 
HETATM    8  C19 UNL     1      28.479   0.476  54.533  1.00  0.00     0.206 A 
HETATM    9  N4  UNL     1      27.418  -0.472  54.705  1.00  0.00    -0.283 NA
ENDROOT
BRANCH   6  10
HETATM   10  O2  UNL     1      23.157   1.779  52.499  1.00  0.00    -0.329 OA
BRANCH  10  11
HETATM   11  C8  UNL     1      22.127   2.347  51.942  1.00  0.00     0.299 C 
BRANCH  11  12
HETATM   12  N1  UNL     1      21.460   1.593  50.862  1.00  0.00    -0.353 N 
HETATM   13  H8  UNL     1      21.998   1.507  49.946  1.00  0.00     0.163 HD
BRANCH  12  14
HETATM   14  C9  UNL     1      20.196   0.999  50.967  1.00  0.00     0.125 A 
HETATM   15  C10 UNL     1      19.838   0.164  51.991  1.00  0.00     0.062 A 
HETATM   16  C11 UNL     1      18.572  -0.378  52.006  1.00  0.00    -0.021 A 
HETATM   17  C12 UNL     1      18.154  -1.238  53.032  1.00  0.00     0.012 A 
HETATM   18  C16 UNL     1      17.615  -0.143  51.056  1.00  0.00    -0.008 A 
HETATM   19  C13 UNL     1      16.868  -1.780  53.037  1.00  0.00     0.001 A 
HETATM   20  C14 UNL     1      15.959  -1.493  52.041  1.00  0.00     0.001 A 
HETATM   21  C15 UNL     1      16.340  -0.652  51.019  1.00  0.00     0.014 A 
HETATM   22  C17 UNL     1      18.047   0.716  50.041  1.00  0.00     0.131 A 
HETATM   23  N2  UNL     1      19.275   1.243  50.022  1.00  0.00    -0.243 NA
ENDBRANCH  12  14
ENDBRANCH  11  12
ENDBRANCH  10  11
ENDBRANCH   6  10
BRANCH   1  24
HETATM   24  O1  UNL     1      22.792  -0.638  53.555  1.00  0.00    -0.353 OA
HETATM   25  C1  UNL     1      22.213  -1.265  54.674  1.00  0.00     0.210 C 
ENDBRANCH   1  24
BRANCH   7  26
HETATM   26  N3  UNL     1      28.418   2.801  53.405  1.00  0.00    -0.400 N 
HETATM   27  H15 UNL     1      28.405   3.586  54.092  1.00  0.00     0.156 HD
HETATM   28  H16 UNL     1      28.890   3.013  52.489  1.00  0.00     0.156 HD
ENDBRANCH   7  26
TORSDOF 6
ENDMDL
MODEL 7
REMARK VINA RESULT:      -7.5      2.105      2.769
REMARK  6 active torsions:
REMARK  status: ('A' for Active; 'I' for Inactive)
REMARK    1  A    between atoms: O1_2  and  C2_3 
REMARK    2  A    between atoms: C7_8  and  O2_9 
REMARK    3  A    between atoms: O2_9  and  C8_10 
REMARK    4  A    between atoms: C8_10  and  N1_11 
REMARK    5  A    between atoms: N1_11  and  C9_12 
REMARK    6  A    between atoms: C18_22  and  N3_23 
ROOT
HETATM    1  C2  UNL     1      24.933   0.637  52.913  1.00  0.00     0.103 A 
HETATM    2  C3  UNL     1      25.778  -0.462  53.114  1.00  0.00     0.071 A 
HETATM    3  C4  UNL     1      27.048  -0.163  53.556  1.00  0.00     0.066 A 
HETATM    4  C5  UNL     1      27.543   1.113  53.812  1.00  0.00     0.019 A 
HETATM    5  C6  UNL     1      26.658   2.149  53.594  1.00  0.00     0.055 A 
HETATM    6  C7  UNL     1      25.359   1.953  53.149  1.00  0.00     0.105 A 
HETATM    7  C18 UNL     1      28.795   1.056  54.223  1.00  0.00     0.035 A 
HETATM    8  C19 UNL     1      29.176  -0.382  54.247  1.00  0.00     0.206 A 
HETATM    9  N4  UNL     1      27.973  -1.024  53.803  1.00  0.00    -0.283 NA
ENDROOT
BRANCH   6  10
HETATM   10  O2  UNL     1      24.523   2.905  52.941  1.00  0.00    -0.329 OA
BRANCH  10  11
HETATM   11  C8  UNL     1      23.675   3.864  52.703  1.00  0.00     0.299 C 
BRANCH  11  12
HETATM   12  N1  UNL     1      24.120   4.925  51.778  1.00  0.00    -0.353 N 
HETATM   13  H8  UNL     1      24.830   5.620  52.164  1.00  0.00     0.163 HD
BRANCH  12  14
HETATM   14  C9  UNL     1      23.677   5.069  50.457  1.00  0.00     0.125 A 
HETATM   15  C10 UNL     1      23.183   4.033  49.710  1.00  0.00     0.062 A 
HETATM   16  C11 UNL     1      22.776   4.270  48.417  1.00  0.00    -0.021 A 
HETATM   17  C12 UNL     1      22.261   3.245  47.609  1.00  0.00     0.012 A 
HETATM   18  C16 UNL     1      22.824   5.491  47.798  1.00  0.00    -0.008 A 
HETATM   19  C13 UNL     1      21.850   3.498  46.299  1.00  0.00     0.001 A 
HETATM   20  C14 UNL     1      21.931   4.760  45.748  1.00  0.00     0.001 A 
HETATM   21  C15 UNL     1      22.432   5.787  46.516  1.00  0.00     0.014 A 
HETATM   22  C17 UNL     1      23.339   6.501  48.616  1.00  0.00     0.131 A 
HETATM   23  N2  UNL     1      23.735   6.275  49.872  1.00  0.00    -0.243 NA
ENDBRANCH  12  14
ENDBRANCH  11  12
ENDBRANCH  10  11
ENDBRANCH   6  10
BRANCH   1  24
HETATM   24  O1  UNL     1      23.635   0.440  52.468  1.00  0.00    -0.353 OA
HETATM   25  C1  UNL     1      22.652  -0.181  53.262  1.00  0.00     0.210 C 
ENDBRANCH   1  24
BRANCH   7  26
HETATM   26  N3  UNL     1      29.647   2.137  54.582  1.00  0.00    -0.400 N 
HETATM   27  H15 UNL     1      30.317   1.959  55.362  1.00  0.00     0.156 HD
HETATM   28  H16 UNL     1      29.690   3.102  54.164  1.00  0.00     0.156 HD
ENDBRANCH   7  26
TORSDOF 6
ENDMDL
MODEL 8
REMARK VINA RESULT:      -7.4      2.850      7.722
REMARK  6 active torsions:
REMARK  status: ('A' for Active; 'I' for Inactive)
REMARK    1  A    between atoms: O1_2  and  C2_3 
REMARK    2  A    between atoms: C7_8  and  O2_9 
REMARK    3  A    between atoms: O2_9  and  C8_10 
REMARK    4  A    between atoms: C8_10  and  N1_11 
REMARK    5  A    between atoms: N1_11  and  C9_12 
REMARK    6  A    between atoms: C18_22  and  N3_23 
ROOT
HETATM    1  C2  UNL     1      26.128   6.400  49.060  1.00  0.00     0.103 A 
HETATM    2  C3  UNL     1      26.904   7.479  48.618  1.00  0.00     0.071 A 
HETATM    3  C4  UNL     1      28.185   7.165  48.217  1.00  0.00     0.066 A 
HETATM    4  C5  UNL     1      28.751   5.894  48.217  1.00  0.00     0.019 A 
HETATM    5  C6  UNL     1      27.931   4.878  48.663  1.00  0.00     0.055 A 
HETATM    6  C7  UNL     1      26.628   5.089  49.089  1.00  0.00     0.105 A 
HETATM    7  C18 UNL     1      29.992   5.934  47.773  1.00  0.00     0.035 A 
HETATM    8  C19 UNL     1      30.287   7.355  47.446  1.00  0.00     0.206 A 
HETATM    9  N4  UNL     1      29.055   8.007  47.777  1.00  0.00    -0.283 NA
ENDROOT
BRANCH   6  10
HETATM   10  O2  UNL     1      25.852   4.155  49.507  1.00  0.00    -0.329 OA
BRANCH  10  11
HETATM   11  C8  UNL     1      25.067   3.219  49.957  1.00  0.00     0.299 C 
BRANCH  11  12
HETATM   12  N1  UNL     1      25.616   2.346  51.013  1.00  0.00    -0.353 N 
HETATM   13  H8  UNL     1      26.677   2.344  51.119  1.00  0.00     0.163 HD
BRANCH  12  14
HETATM   14  C9  UNL     1      24.847   1.541  51.862  1.00  0.00     0.125 A 
HETATM   15  C10 UNL     1      23.504   1.722  52.061  1.00  0.00     0.062 A 
HETATM   16  C11 UNL     1      22.832   0.883  52.921  1.00  0.00    -0.021 A 
HETATM   17  C12 UNL     1      21.457   1.023  53.159  1.00  0.00     0.012 A 
HETATM   18  C16 UNL     1      23.412  -0.147  53.613  1.00  0.00    -0.008 A 
HETATM   19  C13 UNL     1      20.787   0.165  54.032  1.00  0.00     0.001 A 
HETATM   20  C14 UNL     1      21.444  -0.852  54.692  1.00  0.00     0.001 A 
HETATM   21  C15 UNL     1      22.795  -1.015  54.480  1.00  0.00     0.014 A 
HETATM   22  C17 UNL     1      24.782  -0.274  53.364  1.00  0.00     0.131 A 
HETATM   23  N2  UNL     1      25.437   0.539  52.531  1.00  0.00    -0.243 NA
ENDBRANCH  12  14
ENDBRANCH  11  12
ENDBRANCH  10  11
ENDBRANCH   6  10
BRANCH   1  24
HETATM   24  O1  UNL     1      24.826   6.612  49.486  1.00  0.00    -0.353 OA
HETATM   25  C1  UNL     1      24.526   7.149  50.752  1.00  0.00     0.210 C 
ENDBRANCH   1  24
BRANCH   7  26
HETATM   26  N3  UNL     1      30.902   4.850  47.622  1.00  0.00    -0.400 N 
HETATM   27  H15 UNL     1      31.234   4.656  46.652  1.00  0.00     0.156 HD
HETATM   28  H16 UNL     1      31.288   4.212  48.365  1.00  0.00     0.156 HD
ENDBRANCH   7  26
TORSDOF 6
ENDMDL
MODEL 9
REMARK VINA RESULT:      -7.3      2.359      7.906
REMARK  6 active torsions:
REMARK  status: ('A' for Active; 'I' for Inactive)
REMARK    1  A    between atoms: O1_2  and  C2_3 
REMARK    2  A    between atoms: C7_8  and  O2_9 
REMARK    3  A    between atoms: O2_9  and  C8_10 
REMARK    4  A    between atoms: C8_10  and  N1_11 
REMARK    5  A    between atoms: N1_11  and  C9_12 
REMARK    6  A    between atoms: C18_22  and  N3_23 
ROOT
HETATM    1  C2  UNL     1      26.433   5.304  49.132  1.00  0.00     0.103 A 
HETATM    2  C3  UNL     1      26.020   6.554  48.653  1.00  0.00     0.071 A 
HETATM    3  C4  UNL     1      24.844   7.036  49.186  1.00  0.00     0.066 A 
HETATM    4  C5  UNL     1      24.057   6.394  50.138  1.00  0.00     0.019 A 
HETATM    5  C6  UNL     1      24.523   5.168  50.566  1.00  0.00     0.055 A 
HETATM    6  C7  UNL     1      25.693   4.596  50.092  1.00  0.00     0.105 A 
HETATM    7  C18 UNL     1      22.998   7.122  50.438  1.00  0.00     0.035 A 
HETATM    8  C19 UNL     1      23.080   8.360  49.618  1.00  0.00     0.206 A 
HETATM    9  N4  UNL     1      24.295   8.161  48.883  1.00  0.00    -0.283 NA
ENDROOT
BRANCH   6  10
HETATM   10  O2  UNL     1      26.141   3.456  50.479  1.00  0.00    -0.329 OA
BRANCH  10  11
HETATM   11  C8  UNL     1      26.571   2.290  50.864  1.00  0.00     0.299 C 
BRANCH  11  12
HETATM   12  N1  UNL     1      26.410   1.964  52.295  1.00  0.00    -0.353 N 
HETATM   13  H8  UNL     1      27.137   2.376  52.957  1.00  0.00     0.163 HD
BRANCH  12  14
HETATM   14  C9  UNL     1      25.385   1.169  52.821  1.00  0.00     0.125 A 
HETATM   15  C10 UNL     1      24.074   1.277  52.438  1.00  0.00     0.062 A 
HETATM   16  C11 UNL     1      23.134   0.454  53.017  1.00  0.00    -0.021 A 
HETATM   17  C12 UNL     1      21.779   0.522  52.660  1.00  0.00     0.012 A 
HETATM   18  C16 UNL     1      23.409  -0.491  53.969  1.00  0.00    -0.008 A 
HETATM   19  C13 UNL     1      20.836  -0.319  53.252  1.00  0.00     0.001 A 
HETATM   20  C14 UNL     1      21.194  -1.248  54.207  1.00  0.00     0.001 A 
HETATM   21  C15 UNL     1      22.517  -1.338  54.579  1.00  0.00     0.014 A 
HETATM   22  C17 UNL     1      24.763  -0.546  54.314  1.00  0.00     0.131 A 
HETATM   23  N2  UNL     1      25.678   0.251  53.755  1.00  0.00    -0.243 NA
ENDBRANCH  12  14
ENDBRANCH  11  12
ENDBRANCH  10  11
ENDBRANCH   6  10
BRANCH   1  24
HETATM   24  O1  UNL     1      27.603   4.733  48.657  1.00  0.00    -0.353 OA
HETATM   25  C1  UNL     1      28.738   5.500  48.331  1.00  0.00     0.210 C 
ENDBRANCH   1  24
BRANCH   7  26
HETATM   26  N3  UNL     1      21.960   6.815  51.361  1.00  0.00    -0.400 N 
HETATM   27  H15 UNL     1      21.326   7.601  51.623  1.00  0.00     0.156 HD
HETATM   28  H16 UNL     1      21.744   5.892  51.819  1.00  0.00     0.156 HD
ENDBRANCH   7  26
TORSDOF 6
ENDMDL
