MODEL 1
REMARK VINA RESULT:      -7.8      0.000      0.000
REMARK  7 active torsions:
REMARK  status: ('A' for Active; 'I' for Inactive)
REMARK    1  A    between atoms: C2_2  and  C3_3 
REMARK    2  A    between atoms: C4_4  and  C5_5 
REMARK    3  A    between atoms: C6_6  and  N1_7 
REMARK    4  A    between atoms: N1_7  and  C7_8 
REMARK    5  A    between atoms: N2_12  and  C11_13 
REMARK    6  A    between atoms: C11_13  and  C12_14 
REMARK    7  A    between atoms: C20_23  and  N4_24 
ROOT
HETATM    1  C7  UNL     1      24.786   4.754  50.678  1.00  0.00     0.074 A 
HETATM    2  C8  UNL     1      25.354   3.577  50.861  1.00  0.00     0.020 A 
HETATM    3  C9  UNL     1      26.219   2.789  50.141  1.00  0.00     0.033 A 
HETATM    4  C10 UNL     1      26.466   1.637  50.859  1.00  0.00     0.092 A 
HETATM    5  N2  UNL     1      25.762   1.694  52.027  1.00  0.00    -0.351 N 
HETATM    6  C18 UNL     1      25.091   2.878  52.018  1.00  0.00     0.062 A 
HETATM    7  C19 UNL     1      24.288   3.322  52.972  1.00  0.00     0.116 A 
HETATM    8  N3  UNL     1      23.681   4.588  52.766  1.00  0.00    -0.363 N 
HETATM    9  C20 UNL     1      23.858   5.431  51.620  1.00  0.00     0.367 A 
HETATM   10  H21 UNL     1      23.029   5.055  53.435  1.00  0.00     0.161 HD
ENDROOT
BRANCH   1  11
HETATM   11  N1  UNL     1      25.132   5.369  49.460  1.00  0.00    -0.365 N 
HETATM   12  H10 UNL     1      24.667   5.222  48.538  1.00  0.00     0.165 HD
BRANCH  11  13
HETATM   13  C6  UNL     1      26.098   6.302  49.001  1.00  0.00     0.088 C 
HETATM   14  C5  UNL     1      27.281   5.893  48.516  1.00  0.00     0.017 C 
BRANCH  14  15
HETATM   15  C4  UNL     1      28.270   6.852  48.045  1.00  0.00    -0.003 C 
HETATM   16  C3  UNL     1      29.507   6.501  47.779  1.00  0.00    -0.027 C 
BRANCH  16  17
HETATM   17  C2  UNL     1      30.197   5.190  47.863  1.00  0.00     0.022 C 
HETATM   18  C1  UNL     1      31.676   5.448  48.159  1.00  0.00     0.009 C 
ENDBRANCH  16  17
ENDBRANCH  14  15
ENDBRANCH  11  13
ENDBRANCH   1  11
BRANCH   9  19
HETATM   19  N4  UNL     1      24.267   6.780  51.937  1.00  0.00     0.107 N 
HETATM   20  H23 UNL     1      24.076   7.365  51.075  1.00  0.00     0.316 HD
HETATM   21  H24 UNL     1      23.873   7.147  52.806  1.00  0.00     0.316 HD
ENDBRANCH   9  19
BRANCH   5  22
HETATM   22  C11 UNL     1      25.788   0.644  53.029  1.00  0.00     0.167 C 
BRANCH  22  23
HETATM   23  C12 UNL     1      27.228   0.281  53.260  1.00  0.00    -0.040 A 
HETATM   24  C13 UNL     1      27.545  -1.050  53.015  1.00  0.00     0.009 A 
HETATM   25  C14 UNL     1      28.838  -1.506  53.192  1.00  0.00     0.001 A 
HETATM   26  C15 UNL     1      29.814  -0.598  53.622  1.00  0.00     0.000 A 
HETATM   27  C16 UNL     1      29.488   0.725  53.863  1.00  0.00     0.001 A 
HETATM   28  C17 UNL     1      28.183   1.184  53.684  1.00  0.00     0.009 A 
ENDBRANCH  22  23
ENDBRANCH   5  22
TORSDOF 7
ENDMDL
MODEL 2
REMARK VINA RESULT:      -7.5      1.045      1.649
REMARK  7 active torsions:
REMARK  status: ('A' for Active; 'I' for Inactive)
REMARK    1  A    between atoms: C2_2  and  C3_3 
REMARK    2  A    between atoms: C4_4  and  C5_5 
REMARK    3  A    between atoms: C6_6  and  N1_7 
REMARK    4  A    between atoms: N1_7  and  C7_8 
REMARK    5  A    between atoms: N2_12  and  C11_13 
REMARK    6  A    between atoms: C11_13  and  C12_14 
REMARK    7  A    between atoms: C20_23  and  N4_24 
ROOT
HETATM    1  C7  UNL     1      24.903   5.033  50.562  1.00  0.00     0.074 A 
HETATM    2  C8  UNL     1      25.433   3.830  50.668  1.00  0.00     0.020 A 
HETATM    3  C9  UNL     1      26.338   3.094  49.941  1.00  0.00     0.033 A 
HETATM    4  C10 UNL     1      26.505   1.870  50.557  1.00  0.00     0.092 A 
HETATM    5  N2  UNL     1      25.712   1.830  51.667  1.00  0.00    -0.351 N 
HETATM    6  C18 UNL     1      25.066   3.027  51.725  1.00  0.00     0.062 A 
HETATM    7  C19 UNL     1      24.199   3.395  52.655  1.00  0.00     0.116 A 
HETATM    8  N3  UNL     1      23.634   4.690  52.532  1.00  0.00    -0.363 N 
HETATM    9  C20 UNL     1      23.916   5.638  51.494  1.00  0.00     0.367 A 
HETATM   10  H21 UNL     1      22.940   5.107  53.192  1.00  0.00     0.161 HD
ENDROOT
BRANCH   1  11
HETATM   11  N1  UNL     1      25.356   5.757  49.442  1.00  0.00    -0.365 N 
HETATM   12  H10 UNL     1      24.890   5.810  48.510  1.00  0.00     0.165 HD
BRANCH  11  13
HETATM   13  C6  UNL     1      26.453   6.595  49.117  1.00  0.00     0.088 C 
HETATM   14  C5  UNL     1      27.408   6.188  48.267  1.00  0.00     0.017 C 
BRANCH  14  15
HETATM   15  C4  UNL     1      28.533   7.050  47.934  1.00  0.00    -0.003 C 
HETATM   16  C3  UNL     1      28.434   8.011  47.045  1.00  0.00    -0.027 C 
BRANCH  16  17
HETATM   17  C2  UNL     1      27.296   8.463  46.209  1.00  0.00     0.022 C 
HETATM   18  C1  UNL     1      27.771   8.539  44.756  1.00  0.00     0.009 C 
ENDBRANCH  16  17
ENDBRANCH  14  15
ENDBRANCH  11  13
ENDBRANCH   1  11
BRANCH   9  19
HETATM   19  N4  UNL     1      24.324   6.937  51.975  1.00  0.00     0.107 N 
HETATM   20  H23 UNL     1      23.876   7.062  52.928  1.00  0.00     0.316 HD
HETATM   21  H24 UNL     1      25.332   7.101  51.946  1.00  0.00     0.316 HD
ENDBRANCH   9  19
BRANCH   5  22
HETATM   22  C11 UNL     1      25.640   0.687  52.556  1.00  0.00     0.167 C 
BRANCH  22  23
HETATM   23  C12 UNL     1      27.031   0.424  53.064  1.00  0.00    -0.040 A 
HETATM   24  C13 UNL     1      27.503  -0.864  52.843  1.00  0.00     0.009 A 
HETATM   25  C14 UNL     1      28.769  -1.227  53.264  1.00  0.00     0.001 A 
HETATM   26  C15 UNL     1      29.557  -0.270  53.915  1.00  0.00     0.000 A 
HETATM   27  C16 UNL     1      29.077   1.010  54.129  1.00  0.00     0.001 A 
HETATM   28  C17 UNL     1      27.800   1.375  53.704  1.00  0.00     0.009 A 
ENDBRANCH  22  23
ENDBRANCH   5  22
TORSDOF 7
ENDMDL
MODEL 3
REMARK VINA RESULT:      -7.4      2.031      2.898
REMARK  7 active torsions:
REMARK  status: ('A' for Active; 'I' for Inactive)
REMARK    1  A    between atoms: C2_2  and  C3_3 
REMARK    2  A    between atoms: C4_4  and  C5_5 
REMARK    3  A    between atoms: C6_6  and  N1_7 
REMARK    4  A    between atoms: N1_7  and  C7_8 
REMARK    5  A    between atoms: N2_12  and  C11_13 
REMARK    6  A    between atoms: C11_13  and  C12_14 
REMARK    7  A    between atoms: C20_23  and  N4_24 
ROOT
HETATM    1  C7  UNL     1      25.304   6.267  49.669  1.00  0.00     0.074 A 
HETATM    2  C8  UNL     1      24.852   5.055  49.927  1.00  0.00     0.020 A 
HETATM    3  C9  UNL     1      24.878   3.845  49.277  1.00  0.00     0.033 A 
HETATM    4  C10 UNL     1      24.224   2.912  50.057  1.00  0.00     0.092 A 
HETATM    5  N2  UNL     1      23.787   3.527  51.194  1.00  0.00    -0.351 N 
HETATM    6  C18 UNL     1      24.174   4.829  51.105  1.00  0.00     0.062 A 
HETATM    7  C19 UNL     1      23.945   5.769  52.007  1.00  0.00     0.116 A 
HETATM    8  N3  UNL     1      24.434   7.070  51.721  1.00  0.00    -0.363 N 
HETATM    9  C20 UNL     1      25.155   7.459  50.544  1.00  0.00     0.367 A 
HETATM   10  H21 UNL     1      24.324   7.902  52.343  1.00  0.00     0.161 HD
ENDROOT
BRANCH   1  11
HETATM   11  N1  UNL     1      25.977   6.373  48.438  1.00  0.00    -0.365 N 
HETATM   12  H10 UNL     1      25.536   6.454  47.496  1.00  0.00     0.165 HD
BRANCH  11  13
HETATM   13  C6  UNL     1      27.321   6.409  47.985  1.00  0.00     0.088 C 
HETATM   14  C5  UNL     1      28.240   5.559  48.469  1.00  0.00     0.017 C 
BRANCH  14  15
HETATM   15  C4  UNL     1      29.618   5.597  48.004  1.00  0.00    -0.003 C 
HETATM   16  C3  UNL     1      30.394   6.636  48.212  1.00  0.00    -0.027 C 
BRANCH  16  17
HETATM   17  C2  UNL     1      30.145   7.928  48.898  1.00  0.00     0.022 C 
HETATM   18  C1  UNL     1      30.126   9.033  47.839  1.00  0.00     0.009 C 
ENDBRANCH  16  17
ENDBRANCH  14  15
ENDBRANCH  11  13
ENDBRANCH   1  11
BRANCH   9  19
HETATM   19  N4  UNL     1      26.413   8.117  50.813  1.00  0.00     0.107 N 
HETATM   20  H23 UNL     1      26.491   8.202  51.867  1.00  0.00     0.316 HD
HETATM   21  H24 UNL     1      27.219   7.690  50.353  1.00  0.00     0.316 HD
ENDBRANCH   9  19
BRANCH   5  22
HETATM   22  C11 UNL     1      23.056   2.841  52.243  1.00  0.00     0.167 C 
BRANCH  22  23
HETATM   23  C12 UNL     1      24.009   1.878  52.897  1.00  0.00    -0.040 A 
HETATM   24  C13 UNL     1      23.574   0.559  52.939  1.00  0.00     0.009 A 
HETATM   25  C14 UNL     1      24.362  -0.420  53.514  1.00  0.00     0.001 A 
HETATM   26  C15 UNL     1      25.602  -0.050  54.052  1.00  0.00     0.000 A 
HETATM   27  C16 UNL     1      26.025   1.267  54.005  1.00  0.00     0.001 A 
HETATM   28  C17 UNL     1      25.229   2.253  53.423  1.00  0.00     0.009 A 
ENDBRANCH  22  23
ENDBRANCH   5  22
TORSDOF 7
ENDMDL
MODEL 4
REMARK VINA RESULT:      -7.2      3.110      4.102
REMARK  7 active torsions:
REMARK  status: ('A' for Active; 'I' for Inactive)
REMARK    1  A    between atoms: C2_2  and  C3_3 
REMARK    2  A    between atoms: C4_4  and  C5_5 
REMARK    3  A    between atoms: C6_6  and  N1_7 
REMARK    4  A    between atoms: N1_7  and  C7_8 
REMARK    5  A    between atoms: N2_12  and  C11_13 
REMARK    6  A    between atoms: C11_13  and  C12_14 
REMARK    7  A    between atoms: C20_23  and  N4_24 
ROOT
HETATM    1  C7  UNL     1      23.518   5.378  50.731  1.00  0.00     0.074 A 
HETATM    2  C8  UNL     1      23.620   4.074  50.904  1.00  0.00     0.020 A 
HETATM    3  C9  UNL     1      24.639   3.207  51.217  1.00  0.00     0.033 A 
HETATM    4  C10 UNL     1      24.129   1.926  51.260  1.00  0.00     0.092 A 
HETATM    5  N2  UNL     1      22.795   1.979  50.976  1.00  0.00    -0.351 N 
HETATM    6  C18 UNL     1      22.496   3.289  50.762  1.00  0.00     0.062 A 
HETATM    7  C19 UNL     1      21.303   3.772  50.457  1.00  0.00     0.116 A 
HETATM    8  N3  UNL     1      21.203   5.175  50.272  1.00  0.00    -0.363 N 
HETATM    9  C20 UNL     1      22.277   6.119  50.387  1.00  0.00     0.367 A 
HETATM   10  H21 UNL     1      20.326   5.687  50.030  1.00  0.00     0.161 HD
ENDROOT
BRANCH   1  11
HETATM   11  N1  UNL     1      24.732   6.070  50.902  1.00  0.00    -0.365 N 
HETATM   12  H10 UNL     1      25.262   6.179  51.793  1.00  0.00     0.165 HD
BRANCH  11  13
HETATM   13  C6  UNL     1      25.634   6.807  50.092  1.00  0.00     0.088 C 
HETATM   14  C5  UNL     1      26.137   6.285  48.963  1.00  0.00     0.017 C 
BRANCH  14  15
HETATM   15  C4  UNL     1      27.063   7.042  48.133  1.00  0.00    -0.003 C 
HETATM   16  C3  UNL     1      28.278   6.613  47.877  1.00  0.00    -0.027 C 
BRANCH  16  17
HETATM   17  C2  UNL     1      28.996   5.385  48.296  1.00  0.00     0.022 C 
HETATM   18  C1  UNL     1      30.473   5.547  47.928  1.00  0.00     0.009 C 
ENDBRANCH  16  17
ENDBRANCH  14  15
ENDBRANCH  11  13
ENDBRANCH   1  11
BRANCH   9  19
HETATM   19  N4  UNL     1      22.008   7.212  51.292  1.00  0.00     0.107 N 
HETATM   20  H23 UNL     1      22.656   8.003  51.013  1.00  0.00     0.316 HD
HETATM   21  H24 UNL     1      21.021   7.467  51.365  1.00  0.00     0.316 HD
ENDBRANCH   9  19
BRANCH   5  22
HETATM   22  C11 UNL     1      21.940   0.808  50.934  1.00  0.00     0.167 C 
BRANCH  22  23
HETATM   23  C12 UNL     1      21.730   0.355  52.353  1.00  0.00    -0.040 A 
HETATM   24  C13 UNL     1      22.481  -0.750  52.734  1.00  0.00     0.009 A 
HETATM   25  C14 UNL     1      22.376  -1.260  54.015  1.00  0.00     0.001 A 
HETATM   26  C15 UNL     1      21.498  -0.639  54.911  1.00  0.00     0.000 A 
HETATM   27  C16 UNL     1      20.754   0.461  54.521  1.00  0.00     0.001 A 
HETATM   28  C17 UNL     1      20.862   0.975  53.230  1.00  0.00     0.009 A 
ENDBRANCH  22  23
ENDBRANCH   5  22
TORSDOF 7
ENDMDL
MODEL 5
REMARK VINA RESULT:      -7.2      2.893      3.935
REMARK  7 active torsions:
REMARK  status: ('A' for Active; 'I' for Inactive)
REMARK    1  A    between atoms: C2_2  and  C3_3 
REMARK    2  A    between atoms: C4_4  and  C5_5 
REMARK    3  A    between atoms: C6_6  and  N1_7 
REMARK    4  A    between atoms: N1_7  and  C7_8 
REMARK    5  A    between atoms: N2_12  and  C11_13 
REMARK    6  A    between atoms: C11_13  and  C12_14 
REMARK    7  A    between atoms: C20_23  and  N4_24 
ROOT
HETATM    1  C7  UNL     1      22.668   1.206  51.170  1.00  0.00     0.074 A 
HETATM    2  C8  UNL     1      23.840   1.416  51.739  1.00  0.00     0.020 A 
HETATM    3  C9  UNL     1      24.943   2.182  51.449  1.00  0.00     0.033 A 
HETATM    4  C10 UNL     1      25.886   1.987  52.437  1.00  0.00     0.092 A 
HETATM    5  N2  UNL     1      25.385   1.103  53.349  1.00  0.00    -0.351 N 
HETATM    6  C18 UNL     1      24.140   0.764  52.915  1.00  0.00     0.062 A 
HETATM    7  C19 UNL     1      23.312  -0.075  53.516  1.00  0.00     0.116 A 
HETATM    8  N3  UNL     1      22.054  -0.295  52.896  1.00  0.00    -0.363 N 
HETATM    9  C20 UNL     1      21.599   0.309  51.678  1.00  0.00     0.367 A 
HETATM   10  H21 UNL     1      21.309  -0.928  53.261  1.00  0.00     0.161 HD
ENDROOT
BRANCH   1  11
HETATM   11  N1  UNL     1      22.480   1.928  49.976  1.00  0.00    -0.365 N 
HETATM   12  H10 UNL     1      22.333   1.524  49.025  1.00  0.00     0.165 HD
BRANCH  11  13
HETATM   13  C6  UNL     1      22.414   3.288  49.580  1.00  0.00     0.088 C 
HETATM   14  C5  UNL     1      23.047   3.721  48.478  1.00  0.00     0.017 C 
BRANCH  14  15
HETATM   15  C4  UNL     1      22.979   5.117  48.073  1.00  0.00    -0.003 C 
HETATM   16  C3  UNL     1      23.956   5.961  48.315  1.00  0.00    -0.027 C 
BRANCH  16  17
HETATM   17  C2  UNL     1      25.265   5.781  48.990  1.00  0.00     0.022 C 
HETATM   18  C1  UNL     1      25.228   6.547  50.314  1.00  0.00     0.009 C 
ENDBRANCH  16  17
ENDBRANCH  14  15
ENDBRANCH  11  13
ENDBRANCH   1  11
BRANCH   9  19
HETATM   19  N4  UNL     1      20.319   0.970  51.790  1.00  0.00     0.107 N 
HETATM   20  H23 UNL     1      19.628   0.387  51.237  1.00  0.00     0.316 HD
HETATM   21  H24 UNL     1      20.037   1.184  52.748  1.00  0.00     0.316 HD
ENDBRANCH   9  19
BRANCH   5  22
HETATM   22  C11 UNL     1      26.113   0.669  54.526  1.00  0.00     0.167 C 
BRANCH  22  23
HETATM   23  C12 UNL     1      27.273  -0.163  54.054  1.00  0.00    -0.040 A 
HETATM   24  C13 UNL     1      26.928  -1.278  53.299  1.00  0.00     0.009 A 
HETATM   25  C14 UNL     1      27.907  -2.121  52.808  1.00  0.00     0.001 A 
HETATM   26  C15 UNL     1      29.247  -1.825  53.088  1.00  0.00     0.000 A 
HETATM   27  C16 UNL     1      29.579  -0.712  53.841  1.00  0.00     0.001 A 
HETATM   28  C17 UNL     1      28.591   0.138  54.335  1.00  0.00     0.009 A 
ENDBRANCH  22  23
ENDBRANCH   5  22
TORSDOF 7
ENDMDL
MODEL 6
REMARK VINA RESULT:      -7.1      2.150      7.674
REMARK  7 active torsions:
REMARK  status: ('A' for Active; 'I' for Inactive)
REMARK    1  A    between atoms: C2_2  and  C3_3 
REMARK    2  A    between atoms: C4_4  and  C5_5 
REMARK    3  A    between atoms: C6_6  and  N1_7 
REMARK    4  A    between atoms: N1_7  and  C7_8 
REMARK    5  A    between atoms: N2_12  and  C11_13 
REMARK    6  A    between atoms: C11_13  and  C12_14 
REMARK    7  A    between atoms: C20_23  and  N4_24 
ROOT
HETATM    1  C7  UNL     1      24.368   5.025  50.830  1.00  0.00     0.074 A 
HETATM    2  C8  UNL     1      25.389   5.275  50.034  1.00  0.00     0.020 A 
HETATM    3  C9  UNL     1      26.192   4.523  49.210  1.00  0.00     0.033 A 
HETATM    4  C10 UNL     1      27.117   5.357  48.615  1.00  0.00     0.092 A 
HETATM    5  N2  UNL     1      26.903   6.630  49.059  1.00  0.00    -0.351 N 
HETATM    6  C18 UNL     1      25.850   6.568  49.920  1.00  0.00     0.062 A 
HETATM    7  C19 UNL     1      25.323   7.591  50.572  1.00  0.00     0.116 A 
HETATM    8  N3  UNL     1      24.225   7.313  51.427  1.00  0.00    -0.363 N 
HETATM    9  C20 UNL     1      23.634   6.025  51.648  1.00  0.00     0.367 A 
HETATM   10  H21 UNL     1      23.715   8.023  51.999  1.00  0.00     0.161 HD
ENDROOT
BRANCH   1  11
HETATM   11  N1  UNL     1      23.991   3.669  50.862  1.00  0.00    -0.365 N 
HETATM   12  H10 UNL     1      23.728   3.081  50.042  1.00  0.00     0.165 HD
BRANCH  11  13
HETATM   13  C6  UNL     1      23.823   2.657  51.842  1.00  0.00     0.088 C 
HETATM   14  C5  UNL     1      24.656   1.607  51.904  1.00  0.00     0.017 C 
BRANCH  14  15
HETATM   15  C4  UNL     1      24.482   0.569  52.910  1.00  0.00    -0.003 C 
HETATM   16  C3  UNL     1      25.397  -0.347  53.130  1.00  0.00    -0.027 C 
BRANCH  16  17
HETATM   17  C2  UNL     1      26.722  -0.583  52.505  1.00  0.00     0.022 C 
HETATM   18  C1  UNL     1      26.898  -2.092  52.318  1.00  0.00     0.009 C 
ENDBRANCH  16  17
ENDBRANCH  14  15
ENDBRANCH  11  13
ENDBRANCH   1  11
BRANCH   9  19
HETATM   19  N4  UNL     1      22.206   5.986  51.432  1.00  0.00     0.107 N 
HETATM   20  H23 UNL     1      21.825   5.223  52.062  1.00  0.00     0.316 HD
HETATM   21  H24 UNL     1      21.741   6.891  51.520  1.00  0.00     0.316 HD
ENDBRANCH   9  19
BRANCH   5  22
HETATM   22  C11 UNL     1      27.697   7.768  48.636  1.00  0.00     0.167 C 
BRANCH  22  23
HETATM   23  C12 UNL     1      27.331   8.065  47.208  1.00  0.00    -0.040 A 
HETATM   24  C13 UNL     1      28.404   8.131  46.328  1.00  0.00     0.009 A 
HETATM   25  C14 UNL     1      28.195   8.397  44.988  1.00  0.00     0.001 A 
HETATM   26  C15 UNL     1      26.882   8.597  44.543  1.00  0.00     0.000 A 
HETATM   27  C16 UNL     1      25.820   8.529  45.428  1.00  0.00     0.001 A 
HETATM   28  C17 UNL     1      26.033   8.259  46.779  1.00  0.00     0.009 A 
ENDBRANCH  22  23
ENDBRANCH   5  22
TORSDOF 7
ENDMDL
MODEL 7
REMARK VINA RESULT:      -7.1      1.599      6.910
REMARK  7 active torsions:
REMARK  status: ('A' for Active; 'I' for Inactive)
REMARK    1  A    between atoms: C2_2  and  C3_3 
REMARK    2  A    between atoms: C4_4  and  C5_5 
REMARK    3  A    between atoms: C6_6  and  N1_7 
REMARK    4  A    between atoms: N1_7  and  C7_8 
REMARK    5  A    between atoms: N2_12  and  C11_13 
REMARK    6  A    between atoms: C11_13  and  C12_14 
REMARK    7  A    between atoms: C20_23  and  N4_24 
ROOT
HETATM    1  C7  UNL     1      24.625   3.497  51.643  1.00  0.00     0.074 A 
HETATM    2  C8  UNL     1      25.366   3.977  50.663  1.00  0.00     0.020 A 
HETATM    3  C9  UNL     1      26.525   3.588  50.035  1.00  0.00     0.033 A 
HETATM    4  C10 UNL     1      26.827   4.513  49.057  1.00  0.00     0.092 A 
HETATM    5  N2  UNL     1      25.866   5.482  49.063  1.00  0.00    -0.351 N 
HETATM    6  C18 UNL     1      24.983   5.146  50.043  1.00  0.00     0.062 A 
HETATM    7  C19 UNL     1      23.900   5.828  50.378  1.00  0.00     0.116 A 
HETATM    8  N3  UNL     1      23.109   5.305  51.433  1.00  0.00    -0.363 N 
HETATM    9  C20 UNL     1      23.375   4.104  52.170  1.00  0.00     0.367 A 
HETATM   10  H21 UNL     1      22.231   5.739  51.797  1.00  0.00     0.161 HD
ENDROOT
BRANCH   1  11
HETATM   11  N1  UNL     1      25.119   2.300  52.196  1.00  0.00    -0.365 N 
HETATM   12  H10 UNL     1      25.093   1.356  51.753  1.00  0.00     0.165 HD
BRANCH  11  13
HETATM   13  C6  UNL     1      25.765   1.894  53.392  1.00  0.00     0.088 C 
HETATM   14  C5  UNL     1      26.256   0.652  53.527  1.00  0.00     0.017 C 
BRANCH  14  15
HETATM   15  C4  UNL     1      26.918   0.237  54.755  1.00  0.00    -0.003 C 
HETATM   16  C3  UNL     1      28.226   0.150  54.846  1.00  0.00    -0.027 C 
BRANCH  16  17
HETATM   17  C2  UNL     1      29.299   0.412  53.856  1.00  0.00     0.022 C 
HETATM   18  C1  UNL     1      30.013  -0.910  53.566  1.00  0.00     0.009 C 
ENDBRANCH  16  17
ENDBRANCH  14  15
ENDBRANCH  11  13
ENDBRANCH   1  11
BRANCH   9  19
HETATM   19  N4  UNL     1      22.271   3.173  52.202  1.00  0.00     0.107 N 
HETATM   20  H23 UNL     1      22.430   2.487  51.410  1.00  0.00     0.316 HD
HETATM   21  H24 UNL     1      22.103   2.748  53.116  1.00  0.00     0.316 HD
ENDBRANCH   9  19
BRANCH   5  22
HETATM   22  C11 UNL     1      25.869   6.617  48.160  1.00  0.00     0.167 C 
BRANCH  22  23
HETATM   23  C12 UNL     1      26.957   7.550  48.614  1.00  0.00    -0.040 A 
HETATM   24  C13 UNL     1      26.616   8.374  49.680  1.00  0.00     0.009 A 
HETATM   25  C14 UNL     1      27.533   9.276  50.189  1.00  0.00     0.001 A 
HETATM   26  C15 UNL     1      28.805   9.336  49.606  1.00  0.00     0.000 A 
HETATM   27  C16 UNL     1      29.133   8.511  48.545  1.00  0.00     0.001 A 
HETATM   28  C17 UNL     1      28.208   7.602  48.033  1.00  0.00     0.009 A 
ENDBRANCH  22  23
ENDBRANCH   5  22
TORSDOF 7
ENDMDL
MODEL 8
REMARK VINA RESULT:      -7.0      3.420      7.801
REMARK  7 active torsions:
REMARK  status: ('A' for Active; 'I' for Inactive)
REMARK    1  A    between atoms: C2_2  and  C3_3 
REMARK    2  A    between atoms: C4_4  and  C5_5 
REMARK    3  A    between atoms: C6_6  and  N1_7 
REMARK    4  A    between atoms: N1_7  and  C7_8 
REMARK    5  A    between atoms: N2_12  and  C11_13 
REMARK    6  A    between atoms: C11_13  and  C12_14 
REMARK    7  A    between atoms: C20_23  and  N4_24 
ROOT
HETATM    1  C7  UNL     1      29.181   7.984  48.811  1.00  0.00     0.074 A 
HETATM    2  C8  UNL     1      30.046   7.026  48.541  1.00  0.00     0.020 A 
HETATM    3  C9  UNL     1      29.973   5.777  47.972  1.00  0.00     0.033 A 
HETATM    4  C10 UNL     1      31.238   5.226  47.957  1.00  0.00     0.092 A 
HETATM    5  N2  UNL     1      32.108   6.119  48.513  1.00  0.00    -0.351 N 
HETATM    6  C18 UNL     1      31.372   7.209  48.864  1.00  0.00     0.062 A 
HETATM    7  C19 UNL     1      31.838   8.306  49.438  1.00  0.00     0.116 A 
HETATM    8  N3  UNL     1      30.901   9.332  49.725  1.00  0.00    -0.363 N 
HETATM    9  C20 UNL     1      29.494   9.289  49.449  1.00  0.00     0.367 A 
HETATM   10  H21 UNL     1      31.131  10.246  50.174  1.00  0.00     0.161 HD
ENDROOT
BRANCH   1  11
HETATM   11  N1  UNL     1      27.859   7.679  48.436  1.00  0.00    -0.365 N 
HETATM   12  H10 UNL     1      27.399   7.925  47.533  1.00  0.00     0.165 HD
BRANCH  11  13
HETATM   13  C6  UNL     1      26.741   7.016  49.005  1.00  0.00     0.088 C 
HETATM   14  C5  UNL     1      26.342   5.816  48.554  1.00  0.00     0.017 C 
BRANCH  14  15
HETATM   15  C4  UNL     1      25.195   5.138  49.139  1.00  0.00    -0.003 C 
HETATM   16  C3  UNL     1      25.300   3.957  49.706  1.00  0.00    -0.027 C 
BRANCH  16  17
HETATM   17  C2  UNL     1      26.465   3.061  49.902  1.00  0.00     0.022 C 
HETATM   18  C1  UNL     1      26.287   2.333  51.237  1.00  0.00     0.009 C 
ENDBRANCH  16  17
ENDBRANCH  14  15
ENDBRANCH  11  13
ENDBRANCH   1  11
BRANCH   9  19
HETATM   19  N4  UNL     1      29.008  10.416  48.688  1.00  0.00     0.107 N 
HETATM   20  H23 UNL     1      27.949  10.374  48.728  1.00  0.00     0.316 HD
HETATM   21  H24 UNL     1      29.416  11.314  48.954  1.00  0.00     0.316 HD
ENDBRANCH   9  19
BRANCH   5  22
HETATM   22  C11 UNL     1      33.529   5.866  48.658  1.00  0.00     0.167 C 
BRANCH  22  23
HETATM   23  C12 UNL     1      34.003   5.222  47.385  1.00  0.00    -0.040 A 
HETATM   24  C13 UNL     1      34.591   3.973  47.542  1.00  0.00     0.009 A 
HETATM   25  C14 UNL     1      35.065   3.279  46.444  1.00  0.00     0.001 A 
HETATM   26  C15 UNL     1      34.940   3.865  45.178  1.00  0.00     0.000 A 
HETATM   27  C16 UNL     1      34.352   5.110  45.033  1.00  0.00     0.001 A 
HETATM   28  C17 UNL     1      33.874   5.807  46.141  1.00  0.00     0.009 A 
ENDBRANCH  22  23
ENDBRANCH   5  22
TORSDOF 7
ENDMDL
MODEL 9
REMARK VINA RESULT:      -6.9      4.191      6.723
REMARK  7 active torsions:
REMARK  status: ('A' for Active; 'I' for Inactive)
REMARK    1  A    between atoms: C2_2  and  C3_3 
REMARK    2  A    between atoms: C4_4  and  C5_5 
REMARK    3  A    between atoms: C6_6  and  N1_7 
REMARK    4  A    between atoms: N1_7  and  C7_8 
REMARK    5  A    between atoms: N2_12  and  C11_13 
REMARK    6  A    between atoms: C11_13  and  C12_14 
REMARK    7  A    between atoms: C20_23  and  N4_24 
ROOT
HETATM    1  C7  UNL     1      23.327   3.999  50.635  1.00  0.00     0.074 A 
HETATM    2  C8  UNL     1      22.493   3.050  50.252  1.00  0.00     0.020 A 
HETATM    3  C9  UNL     1      22.596   1.908  49.495  1.00  0.00     0.033 A 
HETATM    4  C10 UNL     1      21.356   1.304  49.440  1.00  0.00     0.092 A 
HETATM    5  N2  UNL     1      20.473   2.058  50.157  1.00  0.00    -0.351 N 
HETATM    6  C18 UNL     1      21.175   3.117  50.646  1.00  0.00     0.062 A 
HETATM    7  C19 UNL     1      20.686   4.090  51.397  1.00  0.00     0.116 A 
HETATM    8  N3  UNL     1      21.590   5.106  51.804  1.00  0.00    -0.363 N 
HETATM    9  C20 UNL     1      22.984   5.174  51.477  1.00  0.00     0.367 A 
HETATM   10  H21 UNL     1      21.339   5.929  52.396  1.00  0.00     0.161 HD
ENDROOT
BRANCH   1  11
HETATM   11  N1  UNL     1      24.643   3.820  50.169  1.00  0.00    -0.365 N 
HETATM   12  H10 UNL     1      25.016   4.115  49.240  1.00  0.00     0.165 HD
BRANCH  11  13
HETATM   13  C6  UNL     1      25.853   3.261  50.653  1.00  0.00     0.088 C 
HETATM   14  C5  UNL     1      25.855   2.394  51.678  1.00  0.00     0.017 C 
BRANCH  14  15
HETATM   15  C4  UNL     1      27.098   1.821  52.173  1.00  0.00    -0.003 C 
HETATM   16  C3  UNL     1      27.166   0.588  52.620  1.00  0.00    -0.027 C 
BRANCH  16  17
HETATM   17  C2  UNL     1      26.135  -0.471  52.744  1.00  0.00     0.022 C 
HETATM   18  C1  UNL     1      26.797  -1.819  52.449  1.00  0.00     0.009 C 
ENDBRANCH  16  17
ENDBRANCH  14  15
ENDBRANCH  11  13
ENDBRANCH   1  11
BRANCH   9  19
HETATM   19  N4  UNL     1      23.853   5.314  52.622  1.00  0.00     0.107 N 
HETATM   20  H23 UNL     1      24.720   4.739  52.418  1.00  0.00     0.316 HD
HETATM   21  H24 UNL     1      24.031   6.281  52.901  1.00  0.00     0.316 HD
ENDBRANCH   9  19
BRANCH   5  22
HETATM   22  C11 UNL     1      19.072   1.716  50.312  1.00  0.00     0.167 C 
BRANCH  22  23
HETATM   23  C12 UNL     1      18.978   0.697  51.414  1.00  0.00    -0.040 A 
HETATM   24  C13 UNL     1      17.833  -0.090  51.390  1.00  0.00     0.009 A 
HETATM   25  C14 UNL     1      17.633  -1.064  52.351  1.00  0.00     0.001 A 
HETATM   26  C15 UNL     1      18.607  -1.236  53.342  1.00  0.00     0.000 A 
HETATM   27  C16 UNL     1      19.745  -0.447  53.355  1.00  0.00     0.001 A 
HETATM   28  C17 UNL     1      19.945   0.535  52.386  1.00  0.00     0.009 A 
ENDBRANCH  22  23
ENDBRANCH   5  22
TORSDOF 7
ENDMDL
