MODEL 1
REMARK VINA RESULT:      -6.2      0.000      0.000
REMARK  5 active torsions:
REMARK  status: ('A' for Active; 'I' for Inactive)
REMARK    1  A    between atoms: O1_2  and  C2_3 
REMARK    2  A    between atoms: C2_3  and  C3_4 
REMARK    3  A    between atoms: C3_4  and  C4_5 
REMARK    4  A    between atoms: C15_18  and  C16_19 
REMARK    5  A    between atoms: C16_19  and  O2_20 
ROOT
HETATM    1  C4  UNL     1      24.521   2.089  51.191  1.00  0.00    -0.002 C 
HETATM    2  C5  UNL     1      25.520   1.184  51.767  1.00  0.00     0.039 C 
HETATM    3  C6  UNL     1      25.030   0.042  52.615  1.00  0.00    -0.080 C 
HETATM    4  C7  UNL     1      23.837  -0.540  52.873  1.00  0.00    -0.005 C 
HETATM    5  C8  UNL     1      22.411  -0.362  52.469  1.00  0.00     0.142 C 
HETATM    6  N1  UNL     1      21.694   0.088  53.750  1.00  0.00    -0.411 N 
HETATM    7  C9  UNL     1      22.639   1.160  53.491  1.00  0.00     0.112 C 
HETATM    8  C10 UNL     1      23.770   1.872  53.488  1.00  0.00     0.024 C 
HETATM    9  C11 UNL     1      25.203   2.474  53.644  1.00  0.00     0.140 C 
HETATM   10  N2  UNL     1      26.364   1.975  54.107  1.00  0.00    -0.317 NA
HETATM   11  C12 UNL     1      26.520   0.588  54.593  1.00  0.00     0.102 C 
HETATM   12  C13 UNL     1      28.006   0.410  54.796  1.00  0.00     0.034 C 
HETATM   13  C14 UNL     1      26.181  -0.448  53.490  1.00  0.00     0.060 C 
HETATM   14  C15 UNL     1      23.569   2.707  52.187  1.00  0.00     0.027 C 
HETATM   15  H14 UNL     1      21.149   0.299  54.610  1.00  0.00     0.153 HD
ENDROOT
BRANCH   1  16
HETATM   16  C3  UNL     1      25.102   3.073  50.294  1.00  0.00     0.031 C 
BRANCH  16  17
HETATM   17  C2  UNL     1      26.647   3.149  50.435  1.00  0.00     0.167 C 
BRANCH  17  18
HETATM   18  O1  UNL     1      27.089   3.636  49.208  1.00  0.00    -0.396 OA
HETATM   19  C1  UNL     1      26.733   4.960  48.979  1.00  0.00     0.201 C 
ENDBRANCH  17  18
ENDBRANCH  16  17
ENDBRANCH   1  16
BRANCH  14  20
HETATM   20  C16 UNL     1      23.699   4.126  52.535  1.00  0.00     0.172 C 
BRANCH  20  21
HETATM   21  O2  UNL     1      22.564   4.888  52.593  1.00  0.00    -0.396 OA
HETATM   22  C17 UNL     1      21.531   4.398  51.790  1.00  0.00     0.201 C 
ENDBRANCH  20  21
ENDBRANCH  14  20
TORSDOF 5
ENDMDL
MODEL 2
REMARK VINA RESULT:      -6.0      2.686      4.939
REMARK  5 active torsions:
REMARK  status: ('A' for Active; 'I' for Inactive)
REMARK    1  A    between atoms: O1_2  and  C2_3 
REMARK    2  A    between atoms: C2_3  and  C3_4 
REMARK    3  A    between atoms: C3_4  and  C4_5 
REMARK    4  A    between atoms: C15_18  and  C16_19 
REMARK    5  A    between atoms: C16_19  and  O2_20 
ROOT
HETATM    1  C4  UNL     1      22.986   2.531  50.067  1.00  0.00    -0.002 C 
HETATM    2  C5  UNL     1      24.118   3.160  49.382  1.00  0.00     0.039 C 
HETATM    3  C6  UNL     1      25.430   3.240  50.114  1.00  0.00    -0.080 C 
HETATM    4  C7  UNL     1      25.954   2.700  51.237  1.00  0.00    -0.005 C 
HETATM    5  C8  UNL     1      25.522   1.767  52.320  1.00  0.00     0.142 C 
HETATM    6  N1  UNL     1      25.467   2.634  53.586  1.00  0.00    -0.411 N 
HETATM    7  C9  UNL     1      24.460   3.224  52.721  1.00  0.00     0.112 C 
HETATM    8  C10 UNL     1      23.894   3.988  51.782  1.00  0.00     0.024 C 
HETATM    9  C11 UNL     1      23.512   4.986  50.642  1.00  0.00     0.140 C 
HETATM   10  N2  UNL     1      24.240   5.735  49.794  1.00  0.00    -0.317 NA
HETATM   11  C12 UNL     1      25.718   5.736  49.770  1.00  0.00     0.102 C 
HETATM   12  C13 UNL     1      26.087   6.532  48.541  1.00  0.00     0.034 C 
HETATM   13  C14 UNL     1      26.287   4.325  49.469  1.00  0.00     0.060 C 
HETATM   14  C15 UNL     1      22.655   3.113  51.421  1.00  0.00     0.027 C 
HETATM   15  H14 UNL     1      25.509   3.155  54.485  1.00  0.00     0.153 HD
ENDROOT
BRANCH   1  16
HETATM   16  C3  UNL     1      21.815   2.401  49.218  1.00  0.00     0.031 C 
BRANCH  16  17
HETATM   17  C2  UNL     1      21.221   0.966  49.261  1.00  0.00     0.167 C 
BRANCH  17  18
HETATM   18  O1  UNL     1      19.855   1.156  49.446  1.00  0.00    -0.396 OA
HETATM   19  C1  UNL     1      19.404   2.394  49.003  1.00  0.00     0.201 C 
ENDBRANCH  17  18
ENDBRANCH  16  17
ENDBRANCH   1  16
BRANCH  14  20
HETATM   20  C16 UNL     1      21.454   3.938  51.586  1.00  0.00     0.172 C 
BRANCH  20  21
HETATM   21  O2  UNL     1      20.559   3.596  52.562  1.00  0.00    -0.396 OA
HETATM   22  C17 UNL     1      20.449   2.216  52.749  1.00  0.00     0.201 C 
ENDBRANCH  20  21
ENDBRANCH  14  20
TORSDOF 5
ENDMDL
MODEL 3
REMARK VINA RESULT:      -5.9      2.796      5.260
REMARK  5 active torsions:
REMARK  status: ('A' for Active; 'I' for Inactive)
REMARK    1  A    between atoms: O1_2  and  C2_3 
REMARK    2  A    between atoms: C2_3  and  C3_4 
REMARK    3  A    between atoms: C3_4  and  C4_5 
REMARK    4  A    between atoms: C15_18  and  C16_19 
REMARK    5  A    between atoms: C16_19  and  O2_20 
ROOT
HETATM    1  C4  UNL     1      23.149   1.685  50.615  1.00  0.00    -0.002 C 
HETATM    2  C5  UNL     1      23.290   3.038  50.071  1.00  0.00     0.039 C 
HETATM    3  C6  UNL     1      24.607   3.739  50.259  1.00  0.00    -0.080 C 
HETATM    4  C7  UNL     1      25.851   3.389  50.659  1.00  0.00    -0.005 C 
HETATM    5  C8  UNL     1      26.557   2.157  51.117  1.00  0.00     0.142 C 
HETATM    6  N1  UNL     1      26.904   2.427  52.588  1.00  0.00    -0.411 N 
HETATM    7  C9  UNL     1      25.452   2.440  52.569  1.00  0.00     0.112 C 
HETATM    8  C10 UNL     1      24.196   2.880  52.449  1.00  0.00     0.024 C 
HETATM    9  C11 UNL     1      22.857   3.659  52.242  1.00  0.00     0.140 C 
HETATM   10  N2  UNL     1      22.570   4.885  51.769  1.00  0.00    -0.317 NA
HETATM   11  C12 UNL     1      23.595   5.830  51.277  1.00  0.00     0.102 C 
HETATM   12  C13 UNL     1      22.814   6.961  50.651  1.00  0.00     0.034 C 
HETATM   13  C14 UNL     1      24.393   5.240  50.085  1.00  0.00     0.060 C 
HETATM   14  C15 UNL     1      23.470   1.550  52.085  1.00  0.00     0.027 C 
HETATM   15  H14 UNL     1      27.246   2.603  53.554  1.00  0.00     0.153 HD
ENDROOT
BRANCH   1  16
HETATM   16  C3  UNL     1      21.883   1.065  50.264  1.00  0.00     0.031 C 
BRANCH  16  17
HETATM   17  C2  UNL     1      21.484   1.350  48.790  1.00  0.00     0.167 C 
BRANCH  17  18
HETATM   18  O1  UNL     1      20.140   1.705  48.852  1.00  0.00    -0.396 OA
HETATM   19  C1  UNL     1      19.498   1.243  49.995  1.00  0.00     0.201 C 
ENDBRANCH  17  18
ENDBRANCH  16  17
ENDBRANCH   1  16
BRANCH  14  20
HETATM   20  C16 UNL     1      22.385   1.346  53.051  1.00  0.00     0.172 C 
BRANCH  20  21
HETATM   21  O2  UNL     1      22.347   0.169  53.747  1.00  0.00    -0.396 OA
HETATM   22  C17 UNL     1      23.484  -0.620  53.557  1.00  0.00     0.201 C 
ENDBRANCH  20  21
ENDBRANCH  14  20
TORSDOF 5
ENDMDL
MODEL 4
REMARK VINA RESULT:      -5.9      3.080      4.600
REMARK  5 active torsions:
REMARK  status: ('A' for Active; 'I' for Inactive)
REMARK    1  A    between atoms: O1_2  and  C2_3 
REMARK    2  A    between atoms: C2_3  and  C3_4 
REMARK    3  A    between atoms: C3_4  and  C4_5 
REMARK    4  A    between atoms: C15_18  and  C16_19 
REMARK    5  A    between atoms: C16_19  and  O2_20 
ROOT
HETATM    1  C4  UNL     1      21.732   0.684  50.453  1.00  0.00    -0.002 C 
HETATM    2  C5  UNL     1      22.761   1.689  50.731  1.00  0.00     0.039 C 
HETATM    3  C6  UNL     1      23.477   1.617  52.053  1.00  0.00    -0.080 C 
HETATM    4  C7  UNL     1      23.577   0.721  53.061  1.00  0.00    -0.005 C 
HETATM    5  C8  UNL     1      23.045  -0.633  53.390  1.00  0.00     0.142 C 
HETATM    6  N1  UNL     1      22.124  -0.410  54.599  1.00  0.00    -0.411 N 
HETATM    7  C9  UNL     1      21.492   0.356  53.540  1.00  0.00     0.112 C 
HETATM    8  C10 UNL     1      21.197   1.369  52.718  1.00  0.00     0.024 C 
HETATM    9  C11 UNL     1      21.065   2.700  51.911  1.00  0.00     0.140 C 
HETATM   10  N2  UNL     1      21.796   3.829  51.874  1.00  0.00    -0.317 NA
HETATM   11  C12 UNL     1      23.021   4.034  52.675  1.00  0.00     0.102 C 
HETATM   12  C13 UNL     1      23.616   5.321  52.156  1.00  0.00     0.034 C 
HETATM   13  C14 UNL     1      24.107   2.977  52.344  1.00  0.00     0.060 C 
HETATM   14  C15 UNL     1      20.642   0.579  51.494  1.00  0.00     0.027 C 
HETATM   15  H14 UNL     1      21.570  -0.324  55.475  1.00  0.00     0.153 HD
ENDROOT
BRANCH   1  16
HETATM   16  C3  UNL     1      21.203   0.778  49.103  1.00  0.00     0.031 C 
BRANCH  16  17
HETATM   17  C2  UNL     1      21.930   1.866  48.267  1.00  0.00     0.167 C 
BRANCH  17  18
HETATM   18  O1  UNL     1      20.912   2.526  47.585  1.00  0.00    -0.396 OA
HETATM   19  C1  UNL     1      20.203   3.419  48.379  1.00  0.00     0.201 C 
ENDBRANCH  17  18
ENDBRANCH  16  17
ENDBRANCH   1  16
BRANCH  14  20
HETATM   20  C16 UNL     1      19.299   1.088  51.196  1.00  0.00     0.172 C 
BRANCH  20  21
HETATM   21  O2  UNL     1      18.273   0.191  51.089  1.00  0.00    -0.396 OA
HETATM   22  C17 UNL     1      18.113  -0.601  52.229  1.00  0.00     0.201 C 
ENDBRANCH  20  21
ENDBRANCH  14  20
TORSDOF 5
ENDMDL
MODEL 5
REMARK VINA RESULT:      -5.8      1.687      2.080
REMARK  5 active torsions:
REMARK  status: ('A' for Active; 'I' for Inactive)
REMARK    1  A    between atoms: O1_2  and  C2_3 
REMARK    2  A    between atoms: C2_3  and  C3_4 
REMARK    3  A    between atoms: C3_4  and  C4_5 
REMARK    4  A    between atoms: C15_18  and  C16_19 
REMARK    5  A    between atoms: C16_19  and  O2_20 
ROOT
HETATM    1  C4  UNL     1      24.001   3.195  50.274  1.00  0.00    -0.002 C 
HETATM    2  C5  UNL     1      24.517   2.011  50.966  1.00  0.00     0.039 C 
HETATM    3  C6  UNL     1      23.534   1.140  51.701  1.00  0.00    -0.080 C 
HETATM    4  C7  UNL     1      22.189   1.027  51.764  1.00  0.00    -0.005 C 
HETATM    5  C8  UNL     1      20.995   1.688  51.159  1.00  0.00     0.142 C 
HETATM    6  N1  UNL     1      20.303   2.398  52.332  1.00  0.00    -0.411 N 
HETATM    7  C9  UNL     1      21.594   3.058  52.245  1.00  0.00     0.112 C 
HETATM    8  C10 UNL     1      22.891   3.322  52.429  1.00  0.00     0.024 C 
HETATM    9  C11 UNL     1      24.405   3.380  52.811  1.00  0.00     0.140 C 
HETATM   10  N2  UNL     1      25.231   2.515  53.426  1.00  0.00    -0.317 NA
HETATM   11  C12 UNL     1      24.811   1.177  53.892  1.00  0.00     0.102 C 
HETATM   12  C13 UNL     1      26.090   0.488  54.307  1.00  0.00     0.034 C 
HETATM   13  C14 UNL     1      24.294   0.298  52.723  1.00  0.00     0.060 C 
HETATM   14  C15 UNL     1      23.194   4.138  51.135  1.00  0.00     0.027 C 
HETATM   15  H14 UNL     1      19.747   2.811  53.108  1.00  0.00     0.153 HD
ENDROOT
BRANCH   1  16
HETATM   16  C3  UNL     1      25.019   3.884  49.500  1.00  0.00     0.031 C 
BRANCH  16  17
HETATM   17  C2  UNL     1      26.430   3.276  49.721  1.00  0.00     0.167 C 
BRANCH  17  18
HETATM   18  O1  UNL     1      27.291   4.124  49.032  1.00  0.00    -0.396 OA
HETATM   19  C1  UNL     1      26.784   5.406  48.860  1.00  0.00     0.201 C 
ENDBRANCH  17  18
ENDBRANCH  16  17
ENDBRANCH   1  16
BRANCH  14  20
HETATM   20  C16 UNL     1      23.766   5.428  51.537  1.00  0.00     0.172 C 
BRANCH  20  21
HETATM   21  O2  UNL     1      23.162   6.572  51.094  1.00  0.00    -0.396 OA
HETATM   22  C17 UNL     1      24.070   7.578  50.754  1.00  0.00     0.201 C 
ENDBRANCH  20  21
ENDBRANCH  14  20
TORSDOF 5
ENDMDL
MODEL 6
REMARK VINA RESULT:      -5.8      1.866      4.715
REMARK  5 active torsions:
REMARK  status: ('A' for Active; 'I' for Inactive)
REMARK    1  A    between atoms: O1_2  and  C2_3 
REMARK    2  A    between atoms: C2_3  and  C3_4 
REMARK    3  A    between atoms: C3_4  and  C4_5 
REMARK    4  A    between atoms: C15_18  and  C16_19 
REMARK    5  A    between atoms: C16_19  and  O2_20 
ROOT
HETATM    1  C4  UNL     1      23.982   4.459  51.819  1.00  0.00    -0.002 C 
HETATM    2  C5  UNL     1      22.974   3.476  52.226  1.00  0.00     0.039 C 
HETATM    3  C6  UNL     1      23.455   2.154  52.759  1.00  0.00    -0.080 C 
HETATM    4  C7  UNL     1      24.636   1.639  53.170  1.00  0.00    -0.005 C 
HETATM    5  C8  UNL     1      26.051   2.093  53.304  1.00  0.00     0.142 C 
HETATM    6  N1  UNL     1      26.830   1.262  52.274  1.00  0.00    -0.411 N 
HETATM    7  C9  UNL     1      25.914   2.044  51.462  1.00  0.00     0.112 C 
HETATM    8  C10 UNL     1      24.808   2.414  50.809  1.00  0.00     0.024 C 
HETATM    9  C11 UNL     1      23.403   2.587  50.148  1.00  0.00     0.140 C 
HETATM   10  N2  UNL     1      22.243   1.915  50.265  1.00  0.00    -0.317 NA
HETATM   11  C12 UNL     1      22.058   0.759  51.167  1.00  0.00     0.102 C 
HETATM   12  C13 UNL     1      20.575   0.474  51.137  1.00  0.00     0.034 C 
HETATM   13  C14 UNL     1      22.321   1.139  52.648  1.00  0.00     0.060 C 
HETATM   14  C15 UNL     1      24.990   3.962  50.810  1.00  0.00     0.027 C 
HETATM   15  H14 UNL     1      27.413   0.655  51.662  1.00  0.00     0.153 HD
ENDROOT
BRANCH   1  16
HETATM   16  C3  UNL     1      23.402   5.737  51.441  1.00  0.00     0.031 C 
BRANCH  16  17
HETATM   17  C2  UNL     1      21.851   5.685  51.406  1.00  0.00     0.167 C 
BRANCH  17  18
HETATM   18  O1  UNL     1      21.465   6.960  51.003  1.00  0.00    -0.396 OA
HETATM   19  C1  UNL     1      22.479   7.671  50.373  1.00  0.00     0.201 C 
ENDBRANCH  17  18
ENDBRANCH  16  17
ENDBRANCH   1  16
BRANCH  14  20
HETATM   20  C16 UNL     1      24.922   4.428  49.421  1.00  0.00     0.172 C 
BRANCH  20  21
HETATM   21  O2  UNL     1      25.919   5.242  48.959  1.00  0.00    -0.396 OA
HETATM   22  C17 UNL     1      27.166   4.615  48.914  1.00  0.00     0.201 C 
ENDBRANCH  20  21
ENDBRANCH  14  20
TORSDOF 5
ENDMDL
MODEL 7
REMARK VINA RESULT:      -5.8      7.566     11.111
REMARK  5 active torsions:
REMARK  status: ('A' for Active; 'I' for Inactive)
REMARK    1  A    between atoms: O1_2  and  C2_3 
REMARK    2  A    between atoms: C2_3  and  C3_4 
REMARK    3  A    between atoms: C3_4  and  C4_5 
REMARK    4  A    between atoms: C15_18  and  C16_19 
REMARK    5  A    between atoms: C16_19  and  O2_20 
ROOT
HETATM    1  C4  UNL     1      32.026   6.010  48.732  1.00  0.00    -0.002 C 
HETATM    2  C5  UNL     1      32.377   5.139  47.607  1.00  0.00     0.039 C 
HETATM    3  C6  UNL     1      33.835   4.857  47.362  1.00  0.00    -0.080 C 
HETATM    4  C7  UNL     1      34.991   5.045  48.037  1.00  0.00    -0.005 C 
HETATM    5  C8  UNL     1      35.426   5.619  49.344  1.00  0.00     0.142 C 
HETATM    6  N1  UNL     1      36.239   6.868  48.974  1.00  0.00    -0.411 N 
HETATM    7  C9  UNL     1      34.905   7.168  48.482  1.00  0.00     0.112 C 
HETATM    8  C10 UNL     1      33.842   7.225  47.675  1.00  0.00     0.024 C 
HETATM    9  C11 UNL     1      32.771   7.138  46.540  1.00  0.00     0.140 C 
HETATM   10  N2  UNL     1      32.715   6.458  45.380  1.00  0.00    -0.317 NA
HETATM   11  C12 UNL     1      33.778   5.540  44.920  1.00  0.00     0.102 C 
HETATM   12  C13 UNL     1      33.199   4.848  43.709  1.00  0.00     0.034 C 
HETATM   13  C14 UNL     1      34.007   4.379  45.923  1.00  0.00     0.060 C 
HETATM   14  C15 UNL     1      32.701   7.361  48.730  1.00  0.00     0.027 C 
HETATM   15  H14 UNL     1      36.877   7.664  48.770  1.00  0.00     0.153 HD
ENDROOT
BRANCH   1  16
HETATM   16  C3  UNL     1      30.592   6.107  48.944  1.00  0.00     0.031 C 
BRANCH  16  17
HETATM   17  C2  UNL     1      29.787   5.429  47.802  1.00  0.00     0.167 C 
BRANCH  17  18
HETATM   18  O1  UNL     1      28.715   4.815  48.443  1.00  0.00    -0.396 OA
HETATM   19  C1  UNL     1      27.573   5.605  48.489  1.00  0.00     0.201 C 
ENDBRANCH  17  18
ENDBRANCH  16  17
ENDBRANCH   1  16
BRANCH  14  20
HETATM   20  C16 UNL     1      31.925   8.563  48.405  1.00  0.00     0.172 C 
BRANCH  20  21
HETATM   21  O2  UNL     1      31.449   9.326  49.435  1.00  0.00    -0.396 OA
HETATM   22  C17 UNL     1      30.136   9.761  49.237  1.00  0.00     0.201 C 
ENDBRANCH  20  21
ENDBRANCH  14  20
TORSDOF 5
ENDMDL
MODEL 8
REMARK VINA RESULT:      -5.7      2.373      4.745
REMARK  5 active torsions:
REMARK  status: ('A' for Active; 'I' for Inactive)
REMARK    1  A    between atoms: O1_2  and  C2_3 
REMARK    2  A    between atoms: C2_3  and  C3_4 
REMARK    3  A    between atoms: C3_4  and  C4_5 
REMARK    4  A    between atoms: C15_18  and  C16_19 
REMARK    5  A    between atoms: C16_19  and  O2_20 
ROOT
HETATM    1  C4  UNL     1      23.139   2.462  53.065  1.00  0.00    -0.002 C 
HETATM    2  C5  UNL     1      21.870   2.704  52.374  1.00  0.00     0.039 C 
HETATM    3  C6  UNL     1      20.745   1.732  52.606  1.00  0.00    -0.080 C 
HETATM    4  C7  UNL     1      20.489   0.723  53.469  1.00  0.00    -0.005 C 
HETATM    5  C8  UNL     1      21.169   0.054  54.617  1.00  0.00     0.142 C 
HETATM    6  N1  UNL     1      21.473  -1.367  54.120  1.00  0.00    -0.411 N 
HETATM    7  C9  UNL     1      22.254  -0.519  53.236  1.00  0.00     0.112 C 
HETATM    8  C10 UNL     1      22.584   0.262  52.203  1.00  0.00     0.024 C 
HETATM    9  C11 UNL     1      22.685   1.130  50.908  1.00  0.00     0.140 C 
HETATM   10  N2  UNL     1      21.772   1.571  50.023  1.00  0.00    -0.317 NA
HETATM   11  C12 UNL     1      20.324   1.300  50.142  1.00  0.00     0.102 C 
HETATM   12  C13 UNL     1      19.677   2.158  49.080  1.00  0.00     0.034 C 
HETATM   13  C14 UNL     1      19.741   1.863  51.464  1.00  0.00     0.060 C 
HETATM   14  C15 UNL     1      23.739   1.093  52.841  1.00  0.00     0.027 C 
HETATM   15  H14 UNL     1      21.611  -2.365  53.863  1.00  0.00     0.153 HD
ENDROOT
BRANCH   1  16
HETATM   16  C3  UNL     1      24.104   3.530  52.863  1.00  0.00     0.031 C 
BRANCH  16  17
HETATM   17  C2  UNL     1      23.619   4.560  51.808  1.00  0.00     0.167 C 
BRANCH  17  18
HETATM   18  O1  UNL     1      24.610   4.557  50.831  1.00  0.00    -0.396 OA
HETATM   19  C1  UNL     1      24.862   5.814  50.294  1.00  0.00     0.201 C 
ENDBRANCH  17  18
ENDBRANCH  16  17
ENDBRANCH   1  16
BRANCH  14  20
HETATM   20  C16 UNL     1      24.925   0.948  51.991  1.00  0.00     0.172 C 
BRANCH  20  21
HETATM   21  O2  UNL     1      26.097   0.551  52.574  1.00  0.00    -0.396 OA
HETATM   22  C17 UNL     1      26.046  -0.749  53.082  1.00  0.00     0.201 C 
ENDBRANCH  20  21
ENDBRANCH  14  20
TORSDOF 5
ENDMDL
MODEL 9
REMARK VINA RESULT:      -5.6      2.716      4.601
REMARK  5 active torsions:
REMARK  status: ('A' for Active; 'I' for Inactive)
REMARK    1  A    between atoms: O1_2  and  C2_3 
REMARK    2  A    between atoms: C2_3  and  C3_4 
REMARK    3  A    between atoms: C3_4  and  C4_5 
REMARK    4  A    between atoms: C15_18  and  C16_19 
REMARK    5  A    between atoms: C16_19  and  O2_20 
ROOT
HETATM    1  C4  UNL     1      24.011   2.399  51.193  1.00  0.00    -0.002 C 
HETATM    2  C5  UNL     1      23.031   1.323  51.364  1.00  0.00     0.039 C 
HETATM    3  C6  UNL     1      22.016   1.114  50.274  1.00  0.00    -0.080 C 
HETATM    4  C7  UNL     1      21.843   1.549  49.005  1.00  0.00    -0.005 C 
HETATM    5  C8  UNL     1      22.545   2.445  48.040  1.00  0.00     0.142 C 
HETATM    6  N1  UNL     1      21.596   3.637  47.849  1.00  0.00    -0.411 N 
HETATM    7  C9  UNL     1      21.950   3.703  49.256  1.00  0.00     0.112 C 
HETATM    8  C10 UNL     1      21.929   3.482  50.574  1.00  0.00     0.024 C 
HETATM    9  C11 UNL     1      21.670   3.045  52.052  1.00  0.00     0.140 C 
HETATM   10  N2  UNL     1      20.876   2.112  52.609  1.00  0.00    -0.317 NA
HETATM   11  C12 UNL     1      20.012   1.204  51.826  1.00  0.00     0.102 C 
HETATM   12  C13 UNL     1      19.488   0.204  52.829  1.00  0.00     0.034 C 
HETATM   13  C14 UNL     1      20.837   0.331  50.845  1.00  0.00     0.060 C 
HETATM   14  C15 UNL     1      23.421   3.764  50.927  1.00  0.00     0.027 C 
HETATM   15  H14 UNL     1      20.946   4.414  47.613  1.00  0.00     0.153 HD
ENDROOT
BRANCH   1  16
HETATM   16  C3  UNL     1      25.012   2.423  52.245  1.00  0.00     0.031 C 
BRANCH  16  17
HETATM   17  C2  UNL     1      26.457   2.411  51.675  1.00  0.00     0.167 C 
BRANCH  17  18
HETATM   18  O1  UNL     1      26.692   1.081  51.340  1.00  0.00    -0.396 OA
HETATM   19  C1  UNL     1      26.843   0.251  52.445  1.00  0.00     0.201 C 
ENDBRANCH  17  18
ENDBRANCH  16  17
ENDBRANCH   1  16
BRANCH  14  20
HETATM   20  C16 UNL     1      23.453   4.789  51.976  1.00  0.00     0.172 C 
BRANCH  20  21
HETATM   21  O2  UNL     1      23.843   6.055  51.636  1.00  0.00    -0.396 OA
HETATM   22  C17 UNL     1      24.693   6.090  50.528  1.00  0.00     0.201 C 
ENDBRANCH  20  21
ENDBRANCH  14  20
TORSDOF 5
ENDMDL
