MODEL 1
REMARK VINA RESULT:      -7.2      0.000      0.000
REMARK  4 active torsions:
REMARK  status: ('A' for Active; 'I' for Inactive)
REMARK    1  A    between atoms: C2_2  and  C3_3 
REMARK    2  A    between atoms: C3_3  and  C4_4 
REMARK    3  A    between atoms: C7_7  and  C8_8 
REMARK       I    between atoms: C8_8  and  N1_10 
REMARK    4  A    between atoms: N1_10  and  C9_11 
ROOT
HETATM    1  C4  UNL     1      27.173   4.486  48.961  1.00  0.00     0.033 C 
HETATM    2  C5  UNL     1      26.074   4.143  49.590  1.00  0.00     0.013 C 
HETATM    3  C6  UNL     1      25.535   2.813  50.037  1.00  0.00     0.078 C 
HETATM    4  C7  UNL     1      24.038   3.033  49.783  1.00  0.00     0.145 C 
HETATM    5  C15 UNL     1      23.810   4.467  50.172  1.00  0.00     0.093 C 
HETATM    6  S1  UNL     1      22.395   5.087  50.660  1.00  0.00    -0.064 SA
HETATM    7  N2  UNL     1      25.095   5.095  50.003  1.00  0.00    -0.348 N 
HETATM    8  C16 UNL     1      25.204   6.516  50.261  1.00  0.00     0.156 C 
ENDROOT
BRANCH   4   9
HETATM    9  C8  UNL     1      23.240   2.096  50.606  1.00  0.00     0.233 C 
HETATM   10  O1  UNL     1      22.295   1.474  50.060  1.00  0.00    -0.272 OA
HETATM   11  N1  UNL     1      23.488   1.864  51.979  1.00  0.00    -0.327 N 
HETATM   12  H8  UNL     1      24.295   2.433  52.323  1.00  0.00     0.169 HD
BRANCH  11  13
HETATM   13  C9  UNL     1      22.824   1.014  52.887  1.00  0.00     0.034 A 
HETATM   14  C10 UNL     1      21.520   1.087  53.301  1.00  0.00     0.029 A 
HETATM   15  C11 UNL     1      20.913   0.233  54.190  1.00  0.00     0.002 A 
HETATM   16  C12 UNL     1      21.648  -0.793  54.728  1.00  0.00     0.000 A 
HETATM   17  C13 UNL     1      22.963  -0.907  54.340  1.00  0.00     0.002 A 
HETATM   18  C14 UNL     1      23.523  -0.025  53.447  1.00  0.00     0.029 A 
ENDBRANCH  11  13
ENDBRANCH   4   9
BRANCH   1  19
HETATM   19  C3  UNL     1      27.703   5.769  48.525  1.00  0.00     0.052 C 
BRANCH  19  20
HETATM   20  C2  UNL     1      28.984   5.877  48.203  1.00  0.00    -0.155 C 
HETATM   21  C1  UNL     1      30.256   5.695  47.879  1.00  0.00     0.096 C 
ENDBRANCH  19  20
ENDBRANCH   1  19
TORSDOF 4
ENDMDL
MODEL 2
REMARK VINA RESULT:      -6.8      4.310      7.111
REMARK  4 active torsions:
REMARK  status: ('A' for Active; 'I' for Inactive)
REMARK    1  A    between atoms: C2_2  and  C3_3 
REMARK    2  A    between atoms: C3_3  and  C4_4 
REMARK    3  A    between atoms: C7_7  and  C8_8 
REMARK       I    between atoms: C8_8  and  N1_10 
REMARK    4  A    between atoms: N1_10  and  C9_11 
ROOT
HETATM    1  C4  UNL     1      20.434   0.200  51.508  1.00  0.00     0.033 C 
HETATM    2  C5  UNL     1      21.671   0.360  51.912  1.00  0.00     0.013 C 
HETATM    3  C6  UNL     1      22.671  -0.587  52.516  1.00  0.00     0.078 C 
HETATM    4  C7  UNL     1      23.363   0.353  53.510  1.00  0.00     0.145 C 
HETATM    5  C15 UNL     1      23.436   1.665  52.778  1.00  0.00     0.093 C 
HETATM    6  S1  UNL     1      24.528   2.830  53.058  1.00  0.00    -0.064 SA
HETATM    7  N2  UNL     1      22.352   1.611  51.832  1.00  0.00    -0.348 N 
HETATM    8  C16 UNL     1      22.120   2.764  50.987  1.00  0.00     0.156 C 
ENDROOT
BRANCH   4   9
HETATM    9  C8  UNL     1      24.705  -0.171  53.855  1.00  0.00     0.233 C 
HETATM   10  O1  UNL     1      24.874  -0.684  54.989  1.00  0.00    -0.272 OA
HETATM   11  N1  UNL     1      25.808  -0.123  52.971  1.00  0.00    -0.327 N 
HETATM   12  H8  UNL     1      25.549   0.323  52.061  1.00  0.00     0.169 HD
BRANCH  11  13
HETATM   13  C9  UNL     1      27.131  -0.574  53.152  1.00  0.00     0.034 A 
HETATM   14  C10 UNL     1      28.207   0.148  53.599  1.00  0.00     0.029 A 
HETATM   15  C11 UNL     1      29.483  -0.335  53.760  1.00  0.00     0.002 A 
HETATM   16  C12 UNL     1      29.736  -1.649  53.457  1.00  0.00     0.000 A 
HETATM   17  C13 UNL     1      28.685  -2.413  53.006  1.00  0.00     0.002 A 
HETATM   18  C14 UNL     1      27.427  -1.882  52.861  1.00  0.00     0.029 A 
ENDBRANCH  11  13
ENDBRANCH   4   9
BRANCH   1  19
HETATM   19  C3  UNL     1      19.460   1.109  50.923  1.00  0.00     0.052 C 
BRANCH  19  20
HETATM   20  C2  UNL     1      18.331   0.630  50.420  1.00  0.00    -0.155 C 
HETATM   21  C1  UNL     1      17.223  -0.039  50.135  1.00  0.00     0.096 C 
ENDBRANCH  19  20
ENDBRANCH   1  19
TORSDOF 4
ENDMDL
MODEL 3
REMARK VINA RESULT:      -6.8      2.439      3.491
REMARK  4 active torsions:
REMARK  status: ('A' for Active; 'I' for Inactive)
REMARK    1  A    between atoms: C2_2  and  C3_3 
REMARK    2  A    between atoms: C3_3  and  C4_4 
REMARK    3  A    between atoms: C7_7  and  C8_8 
REMARK       I    between atoms: C8_8  and  N1_10 
REMARK    4  A    between atoms: N1_10  and  C9_11 
ROOT
HETATM    1  C4  UNL     1      28.434   7.365  47.589  1.00  0.00     0.033 C 
HETATM    2  C5  UNL     1      27.653   6.721  48.423  1.00  0.00     0.013 C 
HETATM    3  C6  UNL     1      27.397   5.257  48.647  1.00  0.00     0.078 C 
HETATM    4  C7  UNL     1      25.895   5.293  48.958  1.00  0.00     0.145 C 
HETATM    5  C15 UNL     1      25.722   6.547  49.768  1.00  0.00     0.093 C 
HETATM    6  S1  UNL     1      24.530   6.811  50.835  1.00  0.00    -0.064 SA
HETATM    7  N2  UNL     1      26.819   7.389  49.369  1.00  0.00    -0.348 N 
HETATM    8  C16 UNL     1      26.916   8.713  49.949  1.00  0.00     0.156 C 
ENDROOT
BRANCH   4   9
HETATM    9  C8  UNL     1      25.503   4.080  49.711  1.00  0.00     0.233 C 
HETATM   10  O1  UNL     1      24.503   3.429  49.320  1.00  0.00    -0.272 OA
HETATM   11  N1  UNL     1      26.199   3.616  50.852  1.00  0.00    -0.327 N 
HETATM   12  H8  UNL     1      27.010   4.234  51.082  1.00  0.00     0.169 HD
BRANCH  11  13
HETATM   13  C9  UNL     1      25.951   2.493  51.667  1.00  0.00     0.034 A 
HETATM   14  C10 UNL     1      25.016   2.371  52.661  1.00  0.00     0.029 A 
HETATM   15  C11 UNL     1      24.809   1.253  53.432  1.00  0.00     0.002 A 
HETATM   16  C12 UNL     1      25.589   0.145  53.214  1.00  0.00     0.000 A 
HETATM   17  C13 UNL     1      26.541   0.221  52.224  1.00  0.00     0.002 A 
HETATM   18  C14 UNL     1      26.708   1.364  51.481  1.00  0.00     0.029 A 
ENDBRANCH  11  13
ENDBRANCH   4   9
BRANCH   1  19
HETATM   19  C3  UNL     1      28.689   8.780  47.366  1.00  0.00     0.052 C 
BRANCH  19  20
HETATM   20  C2  UNL     1      29.877   9.290  47.658  1.00  0.00    -0.155 C 
HETATM   21  C1  UNL     1      31.054   9.615  48.174  1.00  0.00     0.096 C 
ENDBRANCH  19  20
ENDBRANCH   1  19
TORSDOF 4
ENDMDL
MODEL 4
REMARK VINA RESULT:      -6.7      4.002      5.569
REMARK  4 active torsions:
REMARK  status: ('A' for Active; 'I' for Inactive)
REMARK    1  A    between atoms: C2_2  and  C3_3 
REMARK    2  A    between atoms: C3_3  and  C4_4 
REMARK    3  A    between atoms: C7_7  and  C8_8 
REMARK       I    between atoms: C8_8  and  N1_10 
REMARK    4  A    between atoms: N1_10  and  C9_11 
ROOT
HETATM    1  C4  UNL     1      26.119  -0.566  53.295  1.00  0.00     0.033 C 
HETATM    2  C5  UNL     1      24.914  -0.049  53.296  1.00  0.00     0.013 C 
HETATM    3  C6  UNL     1      23.550  -0.655  53.480  1.00  0.00     0.078 C 
HETATM    4  C7  UNL     1      22.745   0.192  52.487  1.00  0.00     0.145 C 
HETATM    5  C15 UNL     1      23.333   1.569  52.624  1.00  0.00     0.093 C 
HETATM    6  S1  UNL     1      22.557   2.952  52.288  1.00  0.00    -0.064 SA
HETATM    7  N2  UNL     1      24.673   1.344  53.098  1.00  0.00    -0.348 N 
HETATM    8  C16 UNL     1      25.534   2.491  53.295  1.00  0.00     0.156 C 
ENDROOT
BRANCH   4   9
HETATM    9  C8  UNL     1      21.307   0.159  52.841  1.00  0.00     0.233 C 
HETATM   10  O1  UNL     1      20.984   0.294  54.047  1.00  0.00    -0.272 OA
HETATM   11  N1  UNL     1      20.277  -0.018  51.888  1.00  0.00    -0.327 N 
HETATM   12  H8  UNL     1      20.664  -0.119  50.922  1.00  0.00     0.169 HD
BRANCH  11  13
HETATM   13  C9  UNL     1      18.880  -0.072  52.067  1.00  0.00     0.034 A 
HETATM   14  C10 UNL     1      18.161  -1.012  52.758  1.00  0.00     0.029 A 
HETATM   15  C11 UNL     1      16.795  -1.024  52.907  1.00  0.00     0.002 A 
HETATM   16  C12 UNL     1      16.057  -0.024  52.327  1.00  0.00     0.000 A 
HETATM   17  C13 UNL     1      16.737   0.943  51.623  1.00  0.00     0.002 A 
HETATM   18  C14 UNL     1      18.105   0.910  51.504  1.00  0.00     0.029 A 
ENDBRANCH  11  13
ENDBRANCH   4   9
BRANCH   1  19
HETATM   19  C3  UNL     1      27.442   0.012  53.118  1.00  0.00     0.052 C 
BRANCH  19  20
HETATM   20  C2  UNL     1      28.518  -0.694  53.438  1.00  0.00    -0.155 C 
HETATM   21  C1  UNL     1      29.734  -1.155  53.691  1.00  0.00     0.096 C 
ENDBRANCH  19  20
ENDBRANCH   1  19
TORSDOF 4
ENDMDL
MODEL 5
REMARK VINA RESULT:      -6.6      3.559      6.217
REMARK  4 active torsions:
REMARK  status: ('A' for Active; 'I' for Inactive)
REMARK    1  A    between atoms: C2_2  and  C3_3 
REMARK    2  A    between atoms: C3_3  and  C4_4 
REMARK    3  A    between atoms: C7_7  and  C8_8 
REMARK       I    between atoms: C8_8  and  N1_10 
REMARK    4  A    between atoms: N1_10  and  C9_11 
ROOT
HETATM    1  C4  UNL     1      28.106   1.310  53.539  1.00  0.00     0.033 C 
HETATM    2  C5  UNL     1      26.930   1.455  52.977  1.00  0.00     0.013 C 
HETATM    3  C6  UNL     1      26.361   2.513  52.073  1.00  0.00     0.078 C 
HETATM    4  C7  UNL     1      24.920   2.565  52.596  1.00  0.00     0.145 C 
HETATM    5  C15 UNL     1      24.594   1.130  52.904  1.00  0.00     0.093 C 
HETATM    6  S1  UNL     1      23.102   0.498  52.928  1.00  0.00    -0.064 SA
HETATM    7  N2  UNL     1      25.871   0.515  53.154  1.00  0.00    -0.348 N 
HETATM    8  C16 UNL     1      25.898  -0.884  53.527  1.00  0.00     0.156 C 
ENDROOT
BRANCH   4   9
HETATM    9  C8  UNL     1      24.025   3.134  51.563  1.00  0.00     0.233 C 
HETATM   10  O1  UNL     1      23.021   3.790  51.936  1.00  0.00    -0.272 OA
HETATM   11  N1  UNL     1      24.243   2.977  50.174  1.00  0.00    -0.327 N 
HETATM   12  H8  UNL     1      25.105   2.416  49.985  1.00  0.00     0.169 HD
BRANCH  11  13
HETATM   13  C9  UNL     1      23.491   3.452  49.082  1.00  0.00     0.034 A 
HETATM   14  C10 UNL     1      23.438   4.733  48.596  1.00  0.00     0.029 A 
HETATM   15  C11 UNL     1      22.687   5.152  47.524  1.00  0.00     0.002 A 
HETATM   16  C12 UNL     1      21.913   4.235  46.860  1.00  0.00     0.000 A 
HETATM   17  C13 UNL     1      21.935   2.935  47.311  1.00  0.00     0.002 A 
HETATM   18  C14 UNL     1      22.703   2.568  48.389  1.00  0.00     0.029 A 
ENDBRANCH  11  13
ENDBRANCH   4   9
BRANCH   1  19
HETATM   19  C3  UNL     1      28.665   0.290  54.413  1.00  0.00     0.052 C 
BRANCH  19  20
HETATM   20  C2  UNL     1      29.345  -0.723  53.894  1.00  0.00    -0.155 C 
HETATM   21  C1  UNL     1      29.784  -1.886  53.437  1.00  0.00     0.096 C 
ENDBRANCH  19  20
ENDBRANCH   1  19
TORSDOF 4
ENDMDL
MODEL 6
REMARK VINA RESULT:      -6.6      3.947      7.179
REMARK  4 active torsions:
REMARK  status: ('A' for Active; 'I' for Inactive)
REMARK    1  A    between atoms: C2_2  and  C3_3 
REMARK    2  A    between atoms: C3_3  and  C4_4 
REMARK    3  A    between atoms: C7_7  and  C8_8 
REMARK       I    between atoms: C8_8  and  N1_10 
REMARK    4  A    between atoms: N1_10  and  C9_11 
ROOT
HETATM    1  C4  UNL     1      19.551  -0.092  51.989  1.00  0.00     0.033 C 
HETATM    2  C5  UNL     1      20.717   0.509  51.972  1.00  0.00     0.013 C 
HETATM    3  C6  UNL     1      22.116   0.015  52.216  1.00  0.00     0.078 C 
HETATM    4  C7  UNL     1      22.707   1.233  52.938  1.00  0.00     0.145 C 
HETATM    5  C15 UNL     1      22.094   2.408  52.229  1.00  0.00     0.093 C 
HETATM    6  S1  UNL     1      22.744   3.891  52.147  1.00  0.00    -0.064 SA
HETATM    7  N2  UNL     1      20.862   1.899  51.684  1.00  0.00    -0.348 N 
HETATM    8  C16 UNL     1      20.000   2.813  50.964  1.00  0.00     0.156 C 
ENDROOT
BRANCH   4   9
HETATM    9  C8  UNL     1      24.184   1.221  52.829  1.00  0.00     0.233 C 
HETATM   10  O1  UNL     1      24.699   1.111  51.688  1.00  0.00    -0.272 OA
HETATM   11  N1  UNL     1      25.046   1.326  53.945  1.00  0.00    -0.327 N 
HETATM   12  H8  UNL     1      24.507   1.413  54.836  1.00  0.00     0.169 HD
BRANCH  11  13
HETATM   13  C9  UNL     1      26.454   1.329  54.002  1.00  0.00     0.034 A 
HETATM   14  C10 UNL     1      27.309   2.282  53.511  1.00  0.00     0.029 A 
HETATM   15  C11 UNL     1      28.680   2.243  53.591  1.00  0.00     0.002 A 
HETATM   16  C12 UNL     1      29.277   1.172  54.207  1.00  0.00     0.000 A 
HETATM   17  C13 UNL     1      28.458   0.191  54.716  1.00  0.00     0.002 A 
HETATM   18  C14 UNL     1      27.091   0.278  54.610  1.00  0.00     0.029 A 
ENDBRANCH  11  13
ENDBRANCH   4   9
BRANCH   1  19
HETATM   19  C3  UNL     1      18.194   0.377  51.754  1.00  0.00     0.052 C 
BRANCH  19  20
HETATM   20  C2  UNL     1      17.559   0.027  50.644  1.00  0.00    -0.155 C 
HETATM   21  C1  UNL     1      16.696  -0.351  49.712  1.00  0.00     0.096 C 
ENDBRANCH  19  20
ENDBRANCH   1  19
TORSDOF 4
ENDMDL
MODEL 7
REMARK VINA RESULT:      -6.5      1.659      7.939
REMARK  4 active torsions:
REMARK  status: ('A' for Active; 'I' for Inactive)
REMARK    1  A    between atoms: C2_2  and  C3_3 
REMARK    2  A    between atoms: C3_3  and  C4_4 
REMARK    3  A    between atoms: C7_7  and  C8_8 
REMARK       I    between atoms: C8_8  and  N1_10 
REMARK    4  A    between atoms: N1_10  and  C9_11 
ROOT
HETATM    1  C4  UNL     1      23.246   1.141  52.990  1.00  0.00     0.033 C 
HETATM    2  C5  UNL     1      23.731   1.717  51.916  1.00  0.00     0.013 C 
HETATM    3  C6  UNL     1      25.086   2.284  51.595  1.00  0.00     0.078 C 
HETATM    4  C7  UNL     1      24.676   3.493  50.745  1.00  0.00     0.145 C 
HETATM    5  C15 UNL     1      23.506   2.993  49.944  1.00  0.00     0.093 C 
HETATM    6  S1  UNL     1      23.034   3.588  48.512  1.00  0.00    -0.064 SA
HETATM    7  N2  UNL     1      22.957   1.922  50.735  1.00  0.00    -0.348 N 
HETATM    8  C16 UNL     1      21.772   1.247  50.250  1.00  0.00     0.156 C 
ENDROOT
BRANCH   4   9
HETATM    9  C8  UNL     1      25.804   3.916  49.885  1.00  0.00     0.233 C 
HETATM   10  O1  UNL     1      26.536   3.029  49.378  1.00  0.00    -0.272 OA
HETATM   11  N1  UNL     1      26.102   5.270  49.604  1.00  0.00    -0.327 N 
HETATM   12  H8  UNL     1      25.428   5.914  50.077  1.00  0.00     0.169 HD
BRANCH  11  13
HETATM   13  C9  UNL     1      27.129   5.824  48.814  1.00  0.00     0.034 A 
HETATM   14  C10 UNL     1      28.388   5.323  48.608  1.00  0.00     0.029 A 
HETATM   15  C11 UNL     1      29.360   5.901  47.826  1.00  0.00     0.002 A 
HETATM   16  C12 UNL     1      29.079   7.079  47.183  1.00  0.00     0.000 A 
HETATM   17  C13 UNL     1      27.826   7.619  47.360  1.00  0.00     0.002 A 
HETATM   18  C14 UNL     1      26.889   7.002  48.153  1.00  0.00     0.029 A 
ENDBRANCH  11  13
ENDBRANCH   4   9
BRANCH   1  19
HETATM   19  C3  UNL     1      21.937   0.590  53.309  1.00  0.00     0.052 C 
BRANCH  19  20
HETATM   20  C2  UNL     1      21.835  -0.665  53.725  1.00  0.00    -0.155 C 
HETATM   21  C1  UNL     1      21.679  -1.795  54.398  1.00  0.00     0.096 C 
ENDBRANCH  19  20
ENDBRANCH   1  19
TORSDOF 4
ENDMDL
MODEL 8
REMARK VINA RESULT:      -6.3      2.387      3.055
REMARK  4 active torsions:
REMARK  status: ('A' for Active; 'I' for Inactive)
REMARK    1  A    between atoms: C2_2  and  C3_3 
REMARK    2  A    between atoms: C3_3  and  C4_4 
REMARK    3  A    between atoms: C7_7  and  C8_8 
REMARK       I    between atoms: C8_8  and  N1_10 
REMARK    4  A    between atoms: N1_10  and  C9_11 
ROOT
HETATM    1  C4  UNL     1      25.675   4.253  49.155  1.00  0.00     0.033 C 
HETATM    2  C5  UNL     1      24.857   3.582  49.930  1.00  0.00     0.013 C 
HETATM    3  C6  UNL     1      23.357   3.491  49.983  1.00  0.00     0.078 C 
HETATM    4  C7  UNL     1      23.148   3.397  51.499  1.00  0.00     0.145 C 
HETATM    5  C15 UNL     1      24.291   2.542  51.971  1.00  0.00     0.093 C 
HETATM    6  S1  UNL     1      24.288   1.643  53.320  1.00  0.00    -0.064 SA
HETATM    7  N2  UNL     1      25.314   2.725  50.975  1.00  0.00    -0.348 N 
HETATM    8  C16 UNL     1      26.584   2.055  51.163  1.00  0.00     0.156 C 
ENDROOT
BRANCH   4   9
HETATM    9  C8  UNL     1      21.832   2.786  51.794  1.00  0.00     0.233 C 
HETATM   10  O1  UNL     1      20.965   3.483  52.378  1.00  0.00    -0.272 OA
HETATM   11  N1  UNL     1      21.500   1.455  51.451  1.00  0.00    -0.327 N 
HETATM   12  H8  UNL     1      22.295   0.975  50.971  1.00  0.00     0.169 HD
BRANCH  11  13
HETATM   13  C9  UNL     1      20.304   0.738  51.662  1.00  0.00     0.034 A 
HETATM   14  C10 UNL     1      19.226   0.645  50.821  1.00  0.00     0.029 A 
HETATM   15  C11 UNL     1      18.078  -0.068  51.070  1.00  0.00     0.002 A 
HETATM   16  C12 UNL     1      17.969  -0.757  52.251  1.00  0.00     0.000 A 
HETATM   17  C13 UNL     1      19.029  -0.693  53.126  1.00  0.00     0.002 A 
HETATM   18  C14 UNL     1      20.155   0.035  52.830  1.00  0.00     0.029 A 
ENDBRANCH  11  13
ENDBRANCH   4   9
BRANCH   1  19
HETATM   19  C3  UNL     1      27.126   4.347  49.097  1.00  0.00     0.052 C 
BRANCH  19  20
HETATM   20  C2  UNL     1      27.695   5.368  48.471  1.00  0.00    -0.155 C 
HETATM   21  C1  UNL     1      28.299   6.492  48.114  1.00  0.00     0.096 C 
ENDBRANCH  19  20
ENDBRANCH   1  19
TORSDOF 4
ENDMDL
MODEL 9
REMARK VINA RESULT:      -6.1      3.883      5.360
REMARK  4 active torsions:
REMARK  status: ('A' for Active; 'I' for Inactive)
REMARK    1  A    between atoms: C2_2  and  C3_3 
REMARK    2  A    between atoms: C3_3  and  C4_4 
REMARK    3  A    between atoms: C7_7  and  C8_8 
REMARK       I    between atoms: C8_8  and  N1_10 
REMARK    4  A    between atoms: N1_10  and  C9_11 
ROOT
HETATM    1  C4  UNL     1      22.020   7.137  50.863  1.00  0.00     0.033 C 
HETATM    2  C5  UNL     1      22.463   5.930  51.120  1.00  0.00     0.013 C 
HETATM    3  C6  UNL     1      23.591   5.425  51.977  1.00  0.00     0.078 C 
HETATM    4  C7  UNL     1      24.075   4.252  51.115  1.00  0.00     0.145 C 
HETATM    5  C15 UNL     1      22.810   3.666  50.555  1.00  0.00     0.093 C 
HETATM    6  S1  UNL     1      22.628   2.129  50.072  1.00  0.00    -0.064 SA
HETATM    7  N2  UNL     1      21.872   4.758  50.561  1.00  0.00    -0.348 N 
HETATM    8  C16 UNL     1      20.544   4.526  50.033  1.00  0.00     0.156 C 
ENDROOT
BRANCH   4   9
HETATM    9  C8  UNL     1      24.821   3.283  51.951  1.00  0.00     0.233 C 
HETATM   10  O1  UNL     1      24.315   2.919  53.041  1.00  0.00    -0.272 OA
HETATM   11  N1  UNL     1      26.075   2.744  51.582  1.00  0.00    -0.327 N 
HETATM   12  H8  UNL     1      26.395   3.116  50.660  1.00  0.00     0.169 HD
BRANCH  11  13
HETATM   13  C9  UNL     1      26.898   1.823  52.262  1.00  0.00     0.034 A 
HETATM   14  C10 UNL     1      27.958   2.099  53.087  1.00  0.00     0.029 A 
HETATM   15  C11 UNL     1      28.734   1.166  53.731  1.00  0.00     0.002 A 
HETATM   16  C12 UNL     1      28.451  -0.165  53.556  1.00  0.00     0.000 A 
HETATM   17  C13 UNL     1      27.394  -0.490  52.737  1.00  0.00     0.002 A 
HETATM   18  C14 UNL     1      26.649   0.482  52.115  1.00  0.00     0.029 A 
ENDBRANCH  11  13
ENDBRANCH   4   9
BRANCH   1  19
HETATM   19  C3  UNL     1      20.931   7.635  50.037  1.00  0.00     0.052 C 
BRANCH  19  20
HETATM   20  C2  UNL     1      21.050   8.805  49.424  1.00  0.00    -0.155 C 
HETATM   21  C1  UNL     1      21.442   9.887  48.769  1.00  0.00     0.096 C 
ENDBRANCH  19  20
ENDBRANCH   1  19
TORSDOF 4
ENDMDL
