MODEL 1
REMARK VINA RESULT:      -9.5      0.000      0.000
REMARK  8 active torsions:
REMARK  status: ('A' for Active; 'I' for Inactive)
REMARK    1  A    between atoms: C3_3  and  C4_4 
REMARK    2  A    between atoms: C3_3  and  C21_27 
REMARK    3  A    between atoms: C9_11  and  C10_12 
REMARK    4  A    between atoms: C11_13  and  C12_14 
REMARK    5  A    between atoms: C12_14  and  C13_15 
REMARK    6  A    between atoms: C13_15  and  C14_16 
REMARK    7  A    between atoms: C14_16  and  O3_18 
REMARK    8  A    between atoms: C21_27  and  O5_28 
ROOT
HETATM    1  C10 UNL     1      24.105   2.124  53.007  1.00  0.00     0.106 A 
HETATM    2  C11 UNL     1      24.199   0.798  53.149  1.00  0.00    -0.013 A 
HETATM    3  C15 UNL     1      25.458   0.347  53.689  1.00  0.00    -0.025 A 
HETATM    4  C16 UNL     1      26.496   1.076  54.057  1.00  0.00     0.039 A 
HETATM    5  C17 UNL     1      27.728   0.447  54.599  1.00  0.00     0.059 C 
HETATM    6  C18 UNL     1      28.149  -0.585  53.543  1.00  0.00     0.006 C 
HETATM    7  C19 UNL     1      26.980  -1.314  52.956  1.00  0.00     0.005 C 
HETATM    8  C20 UNL     1      25.726  -1.107  53.821  1.00  0.00     0.041 C 
HETATM    9  N2  UNL     1      26.358   2.480  53.897  1.00  0.00    -0.264 N 
HETATM   10  O4  UNL     1      25.173   2.909  53.383  1.00  0.00    -0.237 OA
HETATM   11  H23 UNL     1      27.137   3.125  54.166  1.00  0.00     0.194 HD
ENDROOT
BRANCH   1  12
HETATM   12  C9  UNL     1      23.000   2.906  52.493  1.00  0.00     0.057 C 
HETATM   13  C8  UNL     1      22.717   3.974  51.810  1.00  0.00     0.042 C 
HETATM   14  C5  UNL     1      23.548   5.007  51.157  1.00  0.00    -0.024 C 
HETATM   15  C7  UNL     1      21.323   4.455  51.615  1.00  0.00     0.252 C 
HETATM   16  C4  UNL     1      24.682   4.736  50.545  1.00  0.00     0.019 C 
HETATM   17  C6  UNL     1      22.723   6.216  51.420  1.00  0.00     0.162 C 
HETATM   18  N1  UNL     1      21.435   5.679  50.902  1.00  0.00    -0.353 N 
HETATM   19  H8  UNL     1      20.742   6.036  50.208  1.00  0.00     0.163 HD
HETATM   20  O1  UNL     1      20.194   3.965  51.962  1.00  0.00    -0.268 OA
BRANCH  16  21
HETATM   21  C3  UNL     1      25.541   5.692  49.876  1.00  0.00    -0.038 C 
HETATM   22  C2  UNL     1      26.615   5.306  49.163  1.00  0.00    -0.022 C 
HETATM   23  C1  UNL     1      26.872   3.826  49.098  1.00  0.00     0.036 C 
BRANCH  21  24
HETATM   24  C21 UNL     1      25.464   7.183  49.815  1.00  0.00     0.202 C 
BRANCH  24  25
HETATM   25  O5  UNL     1      26.288   7.674  50.834  1.00  0.00    -0.396 OA
HETATM   26  H26 UNL     1      25.806   8.295  51.434  1.00  0.00     0.209 HD
ENDBRANCH  24  25
ENDBRANCH  21  24
ENDBRANCH  16  21
ENDBRANCH   1  12
BRANCH   2  27
HETATM   27  C12 UNL     1      23.060   0.014  52.738  1.00  0.00     0.052 C 
BRANCH  27  28
HETATM   28  C13 UNL     1      21.971  -0.003  53.762  1.00  0.00     0.115 C 
BRANCH  28  29
HETATM   29  C14 UNL     1      22.118  -1.053  54.778  1.00  0.00     0.139 C 
HETATM   30  O2  UNL     1      22.766  -1.720  55.646  1.00  0.00    -0.650 OA
BRANCH  29  31
HETATM   31  O3  UNL     1      20.919  -1.707  54.899  1.00  0.00    -0.776 OA
HETATM   32  H14 UNL     1      20.226  -1.666  55.616  1.00  0.00     0.167 HD
ENDBRANCH  29  31
ENDBRANCH  28  29
ENDBRANCH  27  28
ENDBRANCH   2  27
TORSDOF 8
ENDMDL
MODEL 2
REMARK VINA RESULT:      -8.6      2.382      6.280
REMARK  8 active torsions:
REMARK  status: ('A' for Active; 'I' for Inactive)
REMARK    1  A    between atoms: C3_3  and  C4_4 
REMARK    2  A    between atoms: C3_3  and  C21_27 
REMARK    3  A    between atoms: C9_11  and  C10_12 
REMARK    4  A    between atoms: C11_13  and  C12_14 
REMARK    5  A    between atoms: C12_14  and  C13_15 
REMARK    6  A    between atoms: C13_15  and  C14_16 
REMARK    7  A    between atoms: C14_16  and  O3_18 
REMARK    8  A    between atoms: C21_27  and  O5_28 
ROOT
HETATM    1  C10 UNL     1      23.462   4.920  51.226  1.00  0.00     0.106 A 
HETATM    2  C11 UNL     1      24.272   4.721  50.181  1.00  0.00    -0.013 A 
HETATM    3  C15 UNL     1      25.179   5.811  49.919  1.00  0.00    -0.025 A 
HETATM    4  C16 UNL     1      25.301   6.948  50.580  1.00  0.00     0.039 A 
HETATM    5  C17 UNL     1      26.296   7.974  50.172  1.00  0.00     0.059 C 
HETATM    6  C18 UNL     1      26.005   8.249  48.690  1.00  0.00     0.006 C 
HETATM    7  C19 UNL     1      25.674   7.001  47.931  1.00  0.00     0.005 C 
HETATM    8  C20 UNL     1      26.076   5.756  48.737  1.00  0.00     0.041 C 
HETATM    9  N2  UNL     1      24.428   7.122  51.686  1.00  0.00    -0.264 N 
HETATM   10  O4  UNL     1      23.567   6.097  51.934  1.00  0.00    -0.237 OA
HETATM   11  H23 UNL     1      24.464   7.996  52.260  1.00  0.00     0.194 HD
ENDROOT
BRANCH   1  12
HETATM   12  C9  UNL     1      22.435   4.047  51.758  1.00  0.00     0.057 C 
HETATM   13  C8  UNL     1      22.234   2.855  52.231  1.00  0.00     0.042 C 
HETATM   14  C5  UNL     1      23.122   1.698  52.471  1.00  0.00    -0.024 C 
HETATM   15  C7  UNL     1      20.878   2.349  52.578  1.00  0.00     0.252 C 
HETATM   16  C4  UNL     1      24.361   1.820  52.900  1.00  0.00     0.019 C 
HETATM   17  C6  UNL     1      22.207   0.583  52.111  1.00  0.00     0.162 C 
HETATM   18  N1  UNL     1      21.063   0.996  52.970  1.00  0.00    -0.353 N 
HETATM   19  H8  UNL     1      20.495   0.495  53.688  1.00  0.00     0.163 HD
HETATM   20  O1  UNL     1      19.729   2.909  52.568  1.00  0.00    -0.268 OA
BRANCH  16  21
HETATM   21  C3  UNL     1      25.283   0.735  53.167  1.00  0.00    -0.038 C 
HETATM   22  C2  UNL     1      26.435   0.597  52.484  1.00  0.00    -0.022 C 
HETATM   23  C1  UNL     1      26.710   1.635  51.430  1.00  0.00     0.036 C 
BRANCH  21  24
HETATM   24  C21 UNL     1      25.201  -0.382  54.155  1.00  0.00     0.202 C 
BRANCH  24  25
HETATM   25  O5  UNL     1      26.186  -1.311  53.799  1.00  0.00    -0.396 OA
HETATM   26  H26 UNL     1      27.091  -1.014  54.070  1.00  0.00     0.209 HD
ENDBRANCH  24  25
ENDBRANCH  21  24
ENDBRANCH  16  21
ENDBRANCH   1  12
BRANCH   2  27
HETATM   27  C12 UNL     1      24.123   3.478  49.465  1.00  0.00     0.052 C 
BRANCH  27  28
HETATM   28  C13 UNL     1      23.037   3.530  48.439  1.00  0.00     0.115 C 
BRANCH  28  29
HETATM   29  C14 UNL     1      22.128   2.377  48.466  1.00  0.00     0.139 C 
HETATM   30  O2  UNL     1      21.828   1.153  48.284  1.00  0.00    -0.650 OA
BRANCH  29  31
HETATM   31  O3  UNL     1      20.914   2.797  48.946  1.00  0.00    -0.776 OA
HETATM   32  H14 UNL     1      19.990   2.485  48.735  1.00  0.00     0.167 HD
ENDBRANCH  29  31
ENDBRANCH  28  29
ENDBRANCH  27  28
ENDBRANCH   2  27
TORSDOF 8
ENDMDL
MODEL 3
REMARK VINA RESULT:      -8.3      2.272      2.760
REMARK  8 active torsions:
REMARK  status: ('A' for Active; 'I' for Inactive)
REMARK    1  A    between atoms: C3_3  and  C4_4 
REMARK    2  A    between atoms: C3_3  and  C21_27 
REMARK    3  A    between atoms: C9_11  and  C10_12 
REMARK    4  A    between atoms: C11_13  and  C12_14 
REMARK    5  A    between atoms: C12_14  and  C13_15 
REMARK    6  A    between atoms: C13_15  and  C14_16 
REMARK    7  A    between atoms: C14_16  and  O3_18 
REMARK    8  A    between atoms: C21_27  and  O5_28 
ROOT
HETATM    1  C10 UNL     1      22.539   2.627  52.412  1.00  0.00     0.106 A 
HETATM    2  C11 UNL     1      22.977   1.412  52.760  1.00  0.00    -0.013 A 
HETATM    3  C15 UNL     1      24.382   1.358  53.081  1.00  0.00    -0.025 A 
HETATM    4  C16 UNL     1      25.259   2.347  53.077  1.00  0.00     0.039 A 
HETATM    5  C17 UNL     1      26.682   2.117  53.437  1.00  0.00     0.059 C 
HETATM    6  C18 UNL     1      27.152   0.986  52.512  1.00  0.00     0.006 C 
HETATM    7  C19 UNL     1      26.113  -0.077  52.333  1.00  0.00     0.005 C 
HETATM    8  C20 UNL     1      25.016   0.055  53.402  1.00  0.00     0.041 C 
HETATM    9  N2  UNL     1      24.756   3.622  52.708  1.00  0.00    -0.264 N 
HETATM   10  O4  UNL     1      23.432   3.676  52.400  1.00  0.00    -0.237 OA
HETATM   11  H23 UNL     1      25.388   4.455  52.682  1.00  0.00     0.194 HD
ENDROOT
BRANCH   1  12
HETATM   12  C9  UNL     1      21.205   3.034  52.025  1.00  0.00     0.057 C 
HETATM   13  C8  UNL     1      20.548   3.720  51.140  1.00  0.00     0.042 C 
HETATM   14  C5  UNL     1      20.961   4.498  49.952  1.00  0.00    -0.024 C 
HETATM   15  C7  UNL     1      19.080   3.945  51.227  1.00  0.00     0.252 C 
HETATM   16  C4  UNL     1      21.941   4.127  49.155  1.00  0.00     0.019 C 
HETATM   17  C6  UNL     1      19.993   5.625  50.025  1.00  0.00     0.162 C 
HETATM   18  N1  UNL     1      18.757   4.803  50.141  1.00  0.00    -0.353 N 
HETATM   19  H8  UNL     1      17.858   4.793  49.613  1.00  0.00     0.163 HD
HETATM   20  O1  UNL     1      18.198   3.517  52.047  1.00  0.00    -0.268 OA
BRANCH  16  21
HETATM   21  C3  UNL     1      22.392   4.832  47.973  1.00  0.00    -0.038 C 
HETATM   22  C2  UNL     1      23.542   5.531  47.957  1.00  0.00    -0.022 C 
HETATM   23  C1  UNL     1      24.332   5.539  49.238  1.00  0.00     0.036 C 
BRANCH  21  24
HETATM   24  C21 UNL     1      21.769   4.949  46.620  1.00  0.00     0.202 C 
BRANCH  24  25
HETATM   25  O5  UNL     1      22.089   3.779  45.923  1.00  0.00    -0.396 OA
HETATM   26  H26 UNL     1      22.662   3.960  45.137  1.00  0.00     0.209 HD
ENDBRANCH  24  25
ENDBRANCH  21  24
ENDBRANCH  16  21
ENDBRANCH   1  12
BRANCH   2  27
HETATM   27  C12 UNL     1      22.011   0.342  52.753  1.00  0.00     0.052 C 
BRANCH  27  28
HETATM   28  C13 UNL     1      21.325   0.174  54.071  1.00  0.00     0.115 C 
BRANCH  28  29
HETATM   29  C14 UNL     1      21.789  -0.982  54.848  1.00  0.00     0.139 C 
HETATM   30  O2  UNL     1      22.643  -1.628  55.537  1.00  0.00    -0.650 OA
BRANCH  29  31
HETATM   31  O3  UNL     1      20.782  -1.912  54.881  1.00  0.00    -0.776 OA
HETATM   32  H14 UNL     1      20.067  -2.118  54.217  1.00  0.00     0.167 HD
ENDBRANCH  29  31
ENDBRANCH  28  29
ENDBRANCH  27  28
ENDBRANCH   2  27
TORSDOF 8
ENDMDL
MODEL 4
REMARK VINA RESULT:      -8.0      2.042      6.349
REMARK  8 active torsions:
REMARK  status: ('A' for Active; 'I' for Inactive)
REMARK    1  A    between atoms: C3_3  and  C4_4 
REMARK    2  A    between atoms: C3_3  and  C21_27 
REMARK    3  A    between atoms: C9_11  and  C10_12 
REMARK    4  A    between atoms: C11_13  and  C12_14 
REMARK    5  A    between atoms: C12_14  and  C13_15 
REMARK    6  A    between atoms: C13_15  and  C14_16 
REMARK    7  A    between atoms: C14_16  and  O3_18 
REMARK    8  A    between atoms: C21_27  and  O5_28 
ROOT
HETATM    1  C10 UNL     1      24.486   2.907  51.211  1.00  0.00     0.106 A 
HETATM    2  C11 UNL     1      23.816   3.656  50.328  1.00  0.00    -0.013 A 
HETATM    3  C15 UNL     1      24.652   4.520  49.530  1.00  0.00    -0.025 A 
HETATM    4  C16 UNL     1      25.966   4.646  49.567  1.00  0.00     0.039 A 
HETATM    5  C17 UNL     1      26.676   5.591  48.668  1.00  0.00     0.059 C 
HETATM    6  C18 UNL     1      26.004   6.951  48.905  1.00  0.00     0.006 C 
HETATM    7  C19 UNL     1      24.519   6.838  49.058  1.00  0.00     0.005 C 
HETATM    8  C20 UNL     1      24.030   5.465  48.569  1.00  0.00     0.041 C 
HETATM    9  N2  UNL     1      26.643   3.831  50.514  1.00  0.00    -0.264 N 
HETATM   10  O4  UNL     1      25.858   3.018  51.271  1.00  0.00    -0.237 OA
HETATM   11  H23 UNL     1      27.684   3.873  50.602  1.00  0.00     0.194 HD
ENDROOT
BRANCH   1  12
HETATM   12  C9  UNL     1      23.968   1.949  52.165  1.00  0.00     0.057 C 
HETATM   13  C8  UNL     1      24.312   0.948  52.918  1.00  0.00     0.042 C 
HETATM   14  C5  UNL     1      25.597   0.258  53.160  1.00  0.00    -0.024 C 
HETATM   15  C7  UNL     1      23.326   0.161  53.706  1.00  0.00     0.252 C 
HETATM   16  C4  UNL     1      26.752   0.889  53.214  1.00  0.00     0.019 C 
HETATM   17  C6  UNL     1      25.122  -1.144  53.297  1.00  0.00     0.162 C 
HETATM   18  N1  UNL     1      24.068  -0.885  54.316  1.00  0.00    -0.353 N 
HETATM   19  H8  UNL     1      23.859  -1.308  55.247  1.00  0.00     0.163 HD
HETATM   20  O1  UNL     1      22.066   0.297  53.877  1.00  0.00    -0.268 OA
BRANCH  16  21
HETATM   21  C3  UNL     1      28.045   0.282  53.456  1.00  0.00    -0.038 C 
HETATM   22  C2  UNL     1      29.142   1.021  53.704  1.00  0.00    -0.022 C 
HETATM   23  C1  UNL     1      28.949   2.513  53.718  1.00  0.00     0.036 C 
BRANCH  21  24
HETATM   24  C21 UNL     1      28.447  -1.157  53.487  1.00  0.00     0.202 C 
BRANCH  24  25
HETATM   25  O5  UNL     1      29.803  -1.206  53.145  1.00  0.00    -0.396 OA
HETATM   26  H26 UNL     1      30.371  -1.460  53.915  1.00  0.00     0.209 HD
ENDBRANCH  24  25
ENDBRANCH  21  24
ENDBRANCH  16  21
ENDBRANCH   1  12
BRANCH   2  27
HETATM   27  C12 UNL     1      22.382   3.512  50.304  1.00  0.00     0.052 C 
BRANCH  27  28
HETATM   28  C13 UNL     1      21.699   4.365  51.324  1.00  0.00     0.115 C 
BRANCH  28  29
HETATM   29  C14 UNL     1      20.439   3.807  51.830  1.00  0.00     0.139 C 
HETATM   30  O2  UNL     1      19.172   3.764  51.943  1.00  0.00    -0.650 OA
BRANCH  29  31
HETATM   31  O3  UNL     1      20.733   2.731  52.628  1.00  0.00    -0.776 OA
HETATM   32  H14 UNL     1      21.051   2.692  53.573  1.00  0.00     0.167 HD
ENDBRANCH  29  31
ENDBRANCH  28  29
ENDBRANCH  27  28
ENDBRANCH   2  27
TORSDOF 8
ENDMDL
MODEL 5
REMARK VINA RESULT:      -8.0      2.633      4.893
REMARK  8 active torsions:
REMARK  status: ('A' for Active; 'I' for Inactive)
REMARK    1  A    between atoms: C3_3  and  C4_4 
REMARK    2  A    between atoms: C3_3  and  C21_27 
REMARK    3  A    between atoms: C9_11  and  C10_12 
REMARK    4  A    between atoms: C11_13  and  C12_14 
REMARK    5  A    between atoms: C12_14  and  C13_15 
REMARK    6  A    between atoms: C13_15  and  C14_16 
REMARK    7  A    between atoms: C14_16  and  O3_18 
REMARK    8  A    between atoms: C21_27  and  O5_28 
ROOT
HETATM    1  C10 UNL     1      23.930   1.779  51.298  1.00  0.00     0.106 A 
HETATM    2  C11 UNL     1      24.090   0.829  52.225  1.00  0.00    -0.013 A 
HETATM    3  C15 UNL     1      22.861   0.210  52.657  1.00  0.00    -0.025 A 
HETATM    4  C16 UNL     1      21.631   0.462  52.246  1.00  0.00     0.039 A 
HETATM    5  C17 UNL     1      20.467  -0.275  52.801  1.00  0.00     0.059 C 
HETATM    6  C18 UNL     1      20.566  -0.097  54.322  1.00  0.00     0.006 C 
HETATM    7  C19 UNL     1      21.976  -0.189  54.819  1.00  0.00     0.005 C 
HETATM    8  C20 UNL     1      22.887  -0.802  53.744  1.00  0.00     0.041 C 
HETATM    9  N2  UNL     1      21.501   1.472  51.257  1.00  0.00    -0.264 N 
HETATM   10  O4  UNL     1      22.658   2.063  50.851  1.00  0.00    -0.237 OA
HETATM   11  H23 UNL     1      20.560   1.729  50.880  1.00  0.00     0.194 HD
ENDROOT
BRANCH   1  12
HETATM   12  C9  UNL     1      24.936   2.600  50.657  1.00  0.00     0.057 C 
HETATM   13  C8  UNL     1      25.138   3.775  50.142  1.00  0.00     0.042 C 
HETATM   14  C5  UNL     1      24.283   4.969  49.976  1.00  0.00    -0.024 C 
HETATM   15  C7  UNL     1      26.410   4.144  49.462  1.00  0.00     0.252 C 
HETATM   16  C4  UNL     1      23.400   5.351  50.875  1.00  0.00     0.019 C 
HETATM   17  C6  UNL     1      24.756   5.451  48.651  1.00  0.00     0.162 C 
HETATM   18  N1  UNL     1      26.211   5.460  48.965  1.00  0.00    -0.353 N 
HETATM   19  H8  UNL     1      26.954   6.187  48.876  1.00  0.00     0.163 HD
HETATM   20  O1  UNL     1      27.505   3.507  49.297  1.00  0.00    -0.268 OA
BRANCH  16  21
HETATM   21  C3  UNL     1      22.537   6.511  50.785  1.00  0.00    -0.038 C 
HETATM   22  C2  UNL     1      21.196   6.398  50.742  1.00  0.00    -0.022 C 
HETATM   23  C1  UNL     1      20.646   4.999  50.794  1.00  0.00     0.036 C 
BRANCH  21  24
HETATM   24  C21 UNL     1      22.874   7.965  50.723  1.00  0.00     0.202 C 
BRANCH  24  25
HETATM   25  O5  UNL     1      24.098   8.126  51.383  1.00  0.00    -0.396 OA
HETATM   26  H26 UNL     1      24.010   8.681  52.197  1.00  0.00     0.209 HD
ENDBRANCH  24  25
ENDBRANCH  21  24
ENDBRANCH  16  21
ENDBRANCH   1  12
BRANCH   2  27
HETATM   27  C12 UNL     1      25.437   0.569  52.669  1.00  0.00     0.052 C 
BRANCH  27  28
HETATM   28  C13 UNL     1      25.935   1.596  53.635  1.00  0.00     0.115 C 
BRANCH  28  29
HETATM   29  C14 UNL     1      27.313   2.037  53.387  1.00  0.00     0.139 C 
HETATM   30  O2  UNL     1      28.243   2.534  52.674  1.00  0.00    -0.650 OA
BRANCH  29  31
HETATM   31  O3  UNL     1      28.049   1.813  54.523  1.00  0.00    -0.776 OA
HETATM   32  H14 UNL     1      29.036   1.817  54.668  1.00  0.00     0.167 HD
ENDBRANCH  29  31
ENDBRANCH  28  29
ENDBRANCH  27  28
ENDBRANCH   2  27
TORSDOF 8
ENDMDL
MODEL 6
REMARK VINA RESULT:      -7.8      2.881      5.375
REMARK  8 active torsions:
REMARK  status: ('A' for Active; 'I' for Inactive)
REMARK    1  A    between atoms: C3_3  and  C4_4 
REMARK    2  A    between atoms: C3_3  and  C21_27 
REMARK    3  A    between atoms: C9_11  and  C10_12 
REMARK    4  A    between atoms: C11_13  and  C12_14 
REMARK    5  A    between atoms: C12_14  and  C13_15 
REMARK    6  A    between atoms: C13_15  and  C14_16 
REMARK    7  A    between atoms: C14_16  and  O3_18 
REMARK    8  A    between atoms: C21_27  and  O5_28 
ROOT
HETATM    1  C10 UNL     1      25.582   3.246  49.885  1.00  0.00     0.106 A 
HETATM    2  C11 UNL     1      25.564   2.209  50.729  1.00  0.00    -0.013 A 
HETATM    3  C15 UNL     1      24.241   1.750  51.074  1.00  0.00    -0.025 A 
HETATM    4  C16 UNL     1      23.079   2.219  50.657  1.00  0.00     0.039 A 
HETATM    5  C17 UNL     1      21.797   1.624  51.115  1.00  0.00     0.059 C 
HETATM    6  C18 UNL     1      21.864   1.658  52.648  1.00  0.00     0.006 C 
HETATM    7  C19 UNL     1      23.224   1.311  53.169  1.00  0.00     0.005 C 
HETATM    8  C20 UNL     1      24.074   0.658  52.067  1.00  0.00     0.041 C 
HETATM    9  N2  UNL     1      23.139   3.317  49.758  1.00  0.00    -0.264 N 
HETATM   10  O4  UNL     1      24.385   3.757  49.434  1.00  0.00    -0.237 OA
HETATM   11  H23 UNL     1      22.261   3.744  49.382  1.00  0.00     0.194 HD
ENDROOT
BRANCH   1  12
HETATM   12  C9  UNL     1      26.723   3.956  49.345  1.00  0.00     0.057 C 
HETATM   13  C8  UNL     1      27.137   5.136  48.994  1.00  0.00     0.042 C 
HETATM   14  C5  UNL     1      26.510   6.474  49.010  1.00  0.00    -0.024 C 
HETATM   15  C7  UNL     1      28.457   5.363  48.347  1.00  0.00     0.252 C 
HETATM   16  C4  UNL     1      25.705   6.879  49.971  1.00  0.00     0.019 C 
HETATM   17  C6  UNL     1      27.070   7.044  47.756  1.00  0.00     0.162 C 
HETATM   18  N1  UNL     1      28.502   6.749  48.040  1.00  0.00    -0.353 N 
HETATM   19  H8  UNL     1      29.363   7.337  48.038  1.00  0.00     0.163 HD
HETATM   20  O1  UNL     1      29.422   4.569  48.074  1.00  0.00    -0.268 OA
BRANCH  16  21
HETATM   21  C3  UNL     1      25.065   8.176  50.058  1.00  0.00    -0.038 C 
HETATM   22  C2  UNL     1      23.741   8.303  50.268  1.00  0.00    -0.022 C 
HETATM   23  C1  UNL     1      22.966   7.021  50.408  1.00  0.00     0.036 C 
BRANCH  21  24
HETATM   24  C21 UNL     1      25.643   9.549  49.949  1.00  0.00     0.202 C 
BRANCH  24  25
HETATM   25  O5  UNL     1      26.797   9.567  50.740  1.00  0.00    -0.396 OA
HETATM   26  H26 UNL     1      26.871  10.399  51.271  1.00  0.00     0.209 HD
ENDBRANCH  24  25
ENDBRANCH  21  24
ENDBRANCH  16  21
ENDBRANCH   1  12
BRANCH   2  27
HETATM   27  C12 UNL     1      26.839   1.711  51.182  1.00  0.00     0.052 C 
BRANCH  27  28
HETATM   28  C13 UNL     1      26.800   1.222  52.594  1.00  0.00     0.115 C 
BRANCH  28  29
HETATM   29  C14 UNL     1      27.410   2.138  53.565  1.00  0.00     0.139 C 
HETATM   30  O2  UNL     1      28.392   2.654  54.189  1.00  0.00    -0.650 OA
BRANCH  29  31
HETATM   31  O3  UNL     1      26.410   2.864  54.160  1.00  0.00    -0.776 OA
HETATM   32  H14 UNL     1      26.308   3.849  54.282  1.00  0.00     0.167 HD
ENDBRANCH  29  31
ENDBRANCH  28  29
ENDBRANCH  27  28
ENDBRANCH   2  27
TORSDOF 8
ENDMDL
MODEL 7
REMARK VINA RESULT:      -7.7      2.806      4.891
REMARK  8 active torsions:
REMARK  status: ('A' for Active; 'I' for Inactive)
REMARK    1  A    between atoms: C3_3  and  C4_4 
REMARK    2  A    between atoms: C3_3  and  C21_27 
REMARK    3  A    between atoms: C9_11  and  C10_12 
REMARK    4  A    between atoms: C11_13  and  C12_14 
REMARK    5  A    between atoms: C12_14  and  C13_15 
REMARK    6  A    between atoms: C13_15  and  C14_16 
REMARK    7  A    between atoms: C14_16  and  O3_18 
REMARK    8  A    between atoms: C21_27  and  O5_28 
ROOT
HETATM    1  C10 UNL     1      22.663   3.025  52.208  1.00  0.00     0.106 A 
HETATM    2  C11 UNL     1      23.322   1.871  52.356  1.00  0.00    -0.013 A 
HETATM    3  C15 UNL     1      22.495   0.766  52.776  1.00  0.00    -0.025 A 
HETATM    4  C16 UNL     1      21.196   0.764  53.017  1.00  0.00     0.039 A 
HETATM    5  C17 UNL     1      20.493  -0.472  53.446  1.00  0.00     0.059 C 
HETATM    6  C18 UNL     1      21.264  -0.964  54.679  1.00  0.00     0.006 C 
HETATM    7  C19 UNL     1      22.745  -0.809  54.528  1.00  0.00     0.005 C 
HETATM    8  C20 UNL     1      23.114  -0.553  53.058  1.00  0.00     0.041 C 
HETATM    9  N2  UNL     1      20.530   2.007  52.845  1.00  0.00    -0.264 N 
HETATM   10  O4  UNL     1      21.308   3.052  52.453  1.00  0.00    -0.237 OA
HETATM   11  H23 UNL     1      19.501   2.086  53.016  1.00  0.00     0.194 HD
ENDROOT
BRANCH   1  12
HETATM   12  C9  UNL     1      23.178   4.320  51.813  1.00  0.00     0.057 C 
HETATM   13  C8  UNL     1      23.391   5.077  50.779  1.00  0.00     0.042 C 
HETATM   14  C5  UNL     1      23.147   4.905  49.332  1.00  0.00    -0.024 C 
HETATM   15  C7  UNL     1      24.089   6.387  50.876  1.00  0.00     0.252 C 
HETATM   16  C4  UNL     1      22.088   4.291  48.849  1.00  0.00     0.019 C 
HETATM   17  C6  UNL     1      24.347   5.589  48.779  1.00  0.00     0.162 C 
HETATM   18  N1  UNL     1      24.204   6.860  49.541  1.00  0.00    -0.353 N 
HETATM   19  H8  UNL     1      24.185   7.863  49.255  1.00  0.00     0.163 HD
HETATM   20  O1  UNL     1      24.534   7.046  51.877  1.00  0.00    -0.268 OA
BRANCH  16  21
HETATM   21  C3  UNL     1      21.780   4.094  47.447  1.00  0.00    -0.038 C 
HETATM   22  C2  UNL     1      21.946   2.903  46.842  1.00  0.00    -0.022 C 
HETATM   23  C1  UNL     1      22.470   1.788  47.705  1.00  0.00     0.036 C 
BRANCH  21  24
HETATM   24  C21 UNL     1      21.257   5.054  46.428  1.00  0.00     0.202 C 
BRANCH  24  25
HETATM   25  O5  UNL     1      21.136   4.345  45.228  1.00  0.00    -0.396 OA
HETATM   26  H26 UNL     1      20.240   4.453  44.822  1.00  0.00     0.209 HD
ENDBRANCH  24  25
ENDBRANCH  21  24
ENDBRANCH  16  21
ENDBRANCH   1  12
BRANCH   2  27
HETATM   27  C12 UNL     1      24.740   1.889  52.096  1.00  0.00     0.052 C 
BRANCH  27  28
HETATM   28  C13 UNL     1      25.555   1.997  53.345  1.00  0.00     0.115 C 
BRANCH  28  29
HETATM   29  C14 UNL     1      26.992   2.183  53.111  1.00  0.00     0.139 C 
HETATM   30  O2  UNL     1      28.065   2.068  52.435  1.00  0.00    -0.650 OA
BRANCH  29  31
HETATM   31  O3  UNL     1      27.523   2.842  54.191  1.00  0.00    -0.776 OA
HETATM   32  H14 UNL     1      28.182   3.589  54.235  1.00  0.00     0.167 HD
ENDBRANCH  29  31
ENDBRANCH  28  29
ENDBRANCH  27  28
ENDBRANCH   2  27
TORSDOF 8
ENDMDL
MODEL 8
REMARK VINA RESULT:      -7.7      8.102     11.105
REMARK  8 active torsions:
REMARK  status: ('A' for Active; 'I' for Inactive)
REMARK    1  A    between atoms: C3_3  and  C4_4 
REMARK    2  A    between atoms: C3_3  and  C21_27 
REMARK    3  A    between atoms: C9_11  and  C10_12 
REMARK    4  A    between atoms: C11_13  and  C12_14 
REMARK    5  A    between atoms: C12_14  and  C13_15 
REMARK    6  A    between atoms: C13_15  and  C14_16 
REMARK    7  A    between atoms: C14_16  and  O3_18 
REMARK    8  A    between atoms: C21_27  and  O5_28 
ROOT
HETATM    1  C10 UNL     1      32.444   7.369  47.543  1.00  0.00     0.106 A 
HETATM    2  C11 UNL     1      32.782   6.709  46.430  1.00  0.00    -0.013 A 
HETATM    3  C15 UNL     1      32.962   5.289  46.616  1.00  0.00    -0.025 A 
HETATM    4  C16 UNL     1      32.826   4.587  47.727  1.00  0.00     0.039 A 
HETATM    5  C17 UNL     1      33.051   3.119  47.744  1.00  0.00     0.059 C 
HETATM    6  C18 UNL     1      34.456   2.921  47.158  1.00  0.00     0.006 C 
HETATM    7  C19 UNL     1      34.729   3.834  46.003  1.00  0.00     0.005 C 
HETATM    8  C20 UNL     1      33.420   4.449  45.481  1.00  0.00     0.041 C 
HETATM    9  N2  UNL     1      32.461   5.323  48.886  1.00  0.00    -0.264 N 
HETATM   10  O4  UNL     1      32.295   6.662  48.716  1.00  0.00    -0.237 OA
HETATM   11  H23 UNL     1      32.333   4.838  49.804  1.00  0.00     0.194 HD
ENDROOT
BRANCH   1  12
HETATM   12  C9  UNL     1      32.197   8.785  47.717  1.00  0.00     0.057 C 
HETATM   13  C8  UNL     1      31.262   9.649  47.973  1.00  0.00     0.042 C 
HETATM   14  C5  UNL     1      29.815   9.523  48.246  1.00  0.00    -0.024 C 
HETATM   15  C7  UNL     1      31.498  11.118  47.946  1.00  0.00     0.252 C 
HETATM   16  C4  UNL     1      29.299   8.535  48.947  1.00  0.00     0.019 C 
HETATM   17  C6  UNL     1      29.308  10.736  47.551  1.00  0.00     0.162 C 
HETATM   18  N1  UNL     1      30.232  11.715  48.186  1.00  0.00    -0.353 N 
HETATM   19  H8  UNL     1      30.077  12.616  48.690  1.00  0.00     0.163 HD
HETATM   20  O1  UNL     1      32.557  11.809  47.759  1.00  0.00    -0.268 OA
BRANCH  16  21
HETATM   21  C3  UNL     1      27.897   8.353  49.262  1.00  0.00    -0.038 C 
HETATM   22  C2  UNL     1      27.214   7.264  48.862  1.00  0.00    -0.022 C 
HETATM   23  C1  UNL     1      27.991   6.247  48.071  1.00  0.00     0.036 C 
BRANCH  21  24
HETATM   24  C21 UNL     1      26.956   9.227  50.024  1.00  0.00     0.202 C 
BRANCH  24  25
HETATM   25  O5  UNL     1      27.651   9.689  51.148  1.00  0.00    -0.396 OA
HETATM   26  H26 UNL     1      28.447  10.222  50.898  1.00  0.00     0.209 HD
ENDBRANCH  24  25
ENDBRANCH  21  24
ENDBRANCH  16  21
ENDBRANCH   1  12
BRANCH   2  27
HETATM   27  C12 UNL     1      32.933   7.488  45.227  1.00  0.00     0.052 C 
BRANCH  27  28
HETATM   28  C13 UNL     1      31.727   7.429  44.345  1.00  0.00     0.115 C 
BRANCH  28  29
HETATM   29  C14 UNL     1      30.851   8.603  44.444  1.00  0.00     0.139 C 
HETATM   30  O2  UNL     1      30.600   9.850  44.385  1.00  0.00    -0.650 OA
BRANCH  29  31
HETATM   31  O3  UNL     1      29.594   8.176  44.786  1.00  0.00    -0.776 OA
HETATM   32  H14 UNL     1      28.996   8.455  45.535  1.00  0.00     0.167 HD
ENDBRANCH  29  31
ENDBRANCH  28  29
ENDBRANCH  27  28
ENDBRANCH   2  27
TORSDOF 8
ENDMDL
MODEL 9
REMARK VINA RESULT:      -7.6      2.510      3.044
REMARK  8 active torsions:
REMARK  status: ('A' for Active; 'I' for Inactive)
REMARK    1  A    between atoms: C3_3  and  C4_4 
REMARK    2  A    between atoms: C3_3  and  C21_27 
REMARK    3  A    between atoms: C9_11  and  C10_12 
REMARK    4  A    between atoms: C11_13  and  C12_14 
REMARK    5  A    between atoms: C12_14  and  C13_15 
REMARK    6  A    between atoms: C13_15  and  C14_16 
REMARK    7  A    between atoms: C14_16  and  O3_18 
REMARK    8  A    between atoms: C21_27  and  O5_28 
ROOT
HETATM    1  C10 UNL     1      24.737   2.771  50.620  1.00  0.00     0.106 A 
HETATM    2  C11 UNL     1      24.375   1.857  51.526  1.00  0.00    -0.013 A 
HETATM    3  C15 UNL     1      25.425   1.479  52.439  1.00  0.00    -0.025 A 
HETATM    4  C16 UNL     1      26.667   1.927  52.485  1.00  0.00     0.039 A 
HETATM    5  C17 UNL     1      27.631   1.427  53.499  1.00  0.00     0.059 C 
HETATM    6  C18 UNL     1      27.621  -0.100  53.343  1.00  0.00     0.006 C 
HETATM    7  C19 UNL     1      26.247  -0.643  53.100  1.00  0.00     0.005 C 
HETATM    8  C20 UNL     1      25.182   0.412  53.442  1.00  0.00     0.041 C 
HETATM    9  N2  UNL     1      27.014   2.900  51.511  1.00  0.00    -0.264 N 
HETATM   10  O4  UNL     1      26.026   3.256  50.644  1.00  0.00    -0.237 OA
HETATM   11  H23 UNL     1      27.978   3.304  51.483  1.00  0.00     0.194 HD
ENDROOT
BRANCH   1  12
HETATM   12  C9  UNL     1      23.946   3.362  49.560  1.00  0.00     0.057 C 
HETATM   13  C8  UNL     1      23.712   4.481  48.944  1.00  0.00     0.042 C 
HETATM   14  C5  UNL     1      24.255   5.848  49.088  1.00  0.00    -0.024 C 
HETATM   15  C7  UNL     1      22.655   4.619  47.906  1.00  0.00     0.252 C 
HETATM   16  C4  UNL     1      25.518   6.094  49.367  1.00  0.00     0.019 C 
HETATM   17  C6  UNL     1      23.030   6.648  48.824  1.00  0.00     0.162 C 
HETATM   18  N1  UNL     1      22.651   5.992  47.542  1.00  0.00    -0.353 N 
HETATM   19  H8  UNL     1      22.427   6.361  46.593  1.00  0.00     0.163 HD
HETATM   20  O1  UNL     1      21.862   3.767  47.378  1.00  0.00    -0.268 OA
BRANCH  16  21
HETATM   21  C3  UNL     1      26.121   7.404  49.513  1.00  0.00    -0.038 C 
HETATM   22  C2  UNL     1      27.298   7.713  48.939  1.00  0.00    -0.022 C 
HETATM   23  C1  UNL     1      27.952   6.622  48.137  1.00  0.00     0.036 C 
BRANCH  21  24
HETATM   24  C21 UNL     1      25.644   8.610  50.254  1.00  0.00     0.202 C 
BRANCH  24  25
HETATM   25  O5  UNL     1      26.587   9.620  50.034  1.00  0.00    -0.396 OA
HETATM   26  H26 UNL     1      26.160  10.481  49.797  1.00  0.00     0.209 HD
ENDBRANCH  24  25
ENDBRANCH  21  24
ENDBRANCH  16  21
ENDBRANCH   1  12
BRANCH   2  27
HETATM   27  C12 UNL     1      23.018   1.373  51.460  1.00  0.00     0.052 C 
BRANCH  27  28
HETATM   28  C13 UNL     1      22.188   1.820  52.620  1.00  0.00     0.115 C 
BRANCH  28  29
HETATM   29  C14 UNL     1      21.041   2.660  52.251  1.00  0.00     0.139 C 
HETATM   30  O2  UNL     1      20.083   3.459  52.501  1.00  0.00    -0.650 OA
BRANCH  29  31
HETATM   31  O3  UNL     1      20.858   2.568  50.895  1.00  0.00    -0.776 OA
HETATM   32  H14 UNL     1      21.124   1.854  50.251  1.00  0.00     0.167 HD
ENDBRANCH  29  31
ENDBRANCH  28  29
ENDBRANCH  27  28
ENDBRANCH   2  27
TORSDOF 8
ENDMDL
