MODEL 1
REMARK VINA RESULT:      -8.1      0.000      0.000
REMARK  7 active torsions:
REMARK  status: ('A' for Active; 'I' for Inactive)
REMARK    1  A    between atoms: C5_5  and  C6_6 
REMARK    2  A    between atoms: C6_6  and  C7_7 
REMARK    3  A    between atoms: C7_7  and  N1_8 
REMARK       I    between atoms: N1_8  and  C8_9 
REMARK    4  A    between atoms: C8_9  and  C9_11 
REMARK    5  A    between atoms: C10_12  and  N2_13 
REMARK    6  A    between atoms: N2_13  and  C11_14 
REMARK    7  A    between atoms: C14_18  and  C15_19 
ROOT
HETATM    1  C9  UNL     1      27.478   5.331  48.546  1.00  0.00     0.091 C 
HETATM    2  C10 UNL     1      26.506   5.018  49.368  1.00  0.00     0.112 C 
ENDROOT
BRANCH   2   3
HETATM    3  N2  UNL     1      26.062   3.676  49.509  1.00  0.00    -0.198 N 
HETATM    4  H14 UNL     1      25.868   3.148  48.635  1.00  0.00     0.183 HD
BRANCH   3   5
HETATM    5  C11 UNL     1      25.887   3.068  50.783  1.00  0.00     0.726 A 
HETATM    6  N3  UNL     1      24.815   3.370  51.531  1.00  0.00    -0.075 NA
HETATM    7  C12 UNL     1      24.620   2.803  52.756  1.00  0.00     0.139 A 
HETATM    8  C13 UNL     1      25.593   1.913  53.156  1.00  0.00     0.053 A 
HETATM    9  C14 UNL     1      26.705   1.578  52.416  1.00  0.00     0.089 A 
HETATM   10  N5  UNL     1      26.792   2.198  51.229  1.00  0.00    -0.062 NA
BRANCH   9  11
HETATM   11  C15 UNL     1      27.718   0.632  52.866  1.00  0.00     0.011 A 
HETATM   12  C16 UNL     1      28.986   0.969  53.288  1.00  0.00     0.017 A 
HETATM   13  C17 UNL     1      29.882   0.004  53.699  1.00  0.00     0.020 A 
HETATM   14  C18 UNL     1      29.501  -1.338  53.686  1.00  0.00     0.116 A 
HETATM   15  N4  UNL     1      28.256  -1.668  53.271  1.00  0.00    -0.272 NA
HETATM   16  C19 UNL     1      27.405  -0.703  52.877  1.00  0.00     0.130 A 
ENDBRANCH   9  11
ENDBRANCH   3   5
ENDBRANCH   2   3
BRANCH   1  17
HETATM   17  C8  UNL     1      28.008   6.694  48.331  1.00  0.00     0.242 C 
HETATM   18  N1  UNL     1      28.041   7.743  49.319  1.00  0.00    -0.357 N 
HETATM   19  H11 UNL     1      27.613   7.358  50.212  1.00  0.00     0.162 HD
HETATM   20  O1  UNL     1      28.454   6.876  47.152  1.00  0.00    -0.269 OA
BRANCH  18  21
HETATM   21  C7  UNL     1      28.593   9.032  48.962  1.00  0.00     0.127 C 
BRANCH  21  22
HETATM   22  C6  UNL     1      29.972   9.283  49.474  1.00  0.00     0.054 C 
BRANCH  22  23
HETATM   23  C5  UNL     1      31.030   8.457  48.835  1.00  0.00    -0.068 C 
HETATM   24  C4  UNL     1      31.725   7.418  49.630  1.00  0.00     0.063 C 
HETATM   25  C3  UNL     1      31.483   6.037  49.189  1.00  0.00    -0.009 C 
HETATM   26  C2  UNL     1      31.982   5.761  47.981  1.00  0.00    -0.025 C 
HETATM   27  C1  UNL     1      31.810   4.397  47.412  1.00  0.00     0.056 C 
HETATM   28  S1  UNL     1      32.769   7.279  47.375  1.00  0.00    -0.107 SA
HETATM   29  C20 UNL     1      31.470   8.533  47.560  1.00  0.00     0.053 C 
ENDBRANCH  22  23
ENDBRANCH  21  22
ENDBRANCH  18  21
ENDBRANCH   1  17
TORSDOF 7
ENDMDL
MODEL 2
REMARK VINA RESULT:      -8.1      1.833      2.671
REMARK  7 active torsions:
REMARK  status: ('A' for Active; 'I' for Inactive)
REMARK    1  A    between atoms: C5_5  and  C6_6 
REMARK    2  A    between atoms: C6_6  and  C7_7 
REMARK    3  A    between atoms: C7_7  and  N1_8 
REMARK       I    between atoms: N1_8  and  C8_9 
REMARK    4  A    between atoms: C8_9  and  C9_11 
REMARK    5  A    between atoms: C10_12  and  N2_13 
REMARK    6  A    between atoms: N2_13  and  C11_14 
REMARK    7  A    between atoms: C14_18  and  C15_19 
ROOT
HETATM    1  C9  UNL     1      27.809   5.943  48.365  1.00  0.00     0.091 C 
HETATM    2  C10 UNL     1      27.506   4.798  48.927  1.00  0.00     0.112 C 
ENDROOT
BRANCH   2   3
HETATM    3  N2  UNL     1      26.160   4.355  49.019  1.00  0.00    -0.198 N 
HETATM    4  H14 UNL     1      25.485   4.749  48.334  1.00  0.00     0.183 HD
BRANCH   3   5
HETATM    5  C11 UNL     1      25.739   3.415  50.000  1.00  0.00     0.726 A 
HETATM    6  N3  UNL     1      24.448   3.059  50.083  1.00  0.00    -0.075 NA
HETATM    7  C12 UNL     1      24.015   2.161  51.012  1.00  0.00     0.139 A 
HETATM    8  C13 UNL     1      24.991   1.655  51.843  1.00  0.00     0.053 A 
HETATM    9  C14 UNL     1      26.325   1.994  51.788  1.00  0.00     0.089 A 
HETATM   10  N5  UNL     1      26.634   2.887  50.835  1.00  0.00    -0.062 NA
BRANCH   9  11
HETATM   11  C15 UNL     1      27.335   1.442  52.681  1.00  0.00     0.011 A 
HETATM   12  C16 UNL     1      27.636   0.103  52.805  1.00  0.00     0.017 A 
HETATM   13  C17 UNL     1      28.611  -0.331  53.679  1.00  0.00     0.020 A 
HETATM   14  C18 UNL     1      29.305   0.600  54.453  1.00  0.00     0.116 A 
HETATM   15  N4  UNL     1      29.008   1.914  54.330  1.00  0.00    -0.272 NA
HETATM   16  C19 UNL     1      28.052   2.306  53.468  1.00  0.00     0.130 A 
ENDBRANCH   9  11
ENDBRANCH   3   5
ENDBRANCH   2   3
BRANCH   1  17
HETATM   17  C8  UNL     1      29.175   6.488  48.221  1.00  0.00     0.242 C 
HETATM   18  N1  UNL     1      30.236   6.349  49.187  1.00  0.00    -0.357 N 
HETATM   19  H11 UNL     1      29.852   5.795  50.009  1.00  0.00     0.162 HD
HETATM   20  O1  UNL     1      29.349   7.119  47.129  1.00  0.00    -0.269 OA
BRANCH  18  21
HETATM   21  C7  UNL     1      31.527   6.938  48.908  1.00  0.00     0.127 C 
BRANCH  21  22
HETATM   22  C6  UNL     1      32.684   6.008  49.061  1.00  0.00     0.054 C 
BRANCH  22  23
HETATM   23  C5  UNL     1      32.903   5.096  47.908  1.00  0.00    -0.068 C 
HETATM   24  C4  UNL     1      33.902   4.009  48.015  1.00  0.00     0.063 C 
HETATM   25  C3  UNL     1      33.344   2.649  47.972  1.00  0.00    -0.009 C 
HETATM   26  C2  UNL     1      32.795   2.328  46.797  1.00  0.00    -0.025 C 
HETATM   27  C1  UNL     1      32.193   0.980  46.615  1.00  0.00     0.056 C 
HETATM   28  S1  UNL     1      32.973   3.776  45.718  1.00  0.00    -0.107 SA
HETATM   29  C20 UNL     1      32.283   5.130  46.708  1.00  0.00     0.053 C 
ENDBRANCH  22  23
ENDBRANCH  21  22
ENDBRANCH  18  21
ENDBRANCH   1  17
TORSDOF 7
ENDMDL
MODEL 3
REMARK VINA RESULT:      -8.0      3.167      8.030
REMARK  7 active torsions:
REMARK  status: ('A' for Active; 'I' for Inactive)
REMARK    1  A    between atoms: C5_5  and  C6_6 
REMARK    2  A    between atoms: C6_6  and  C7_7 
REMARK    3  A    between atoms: C7_7  and  N1_8 
REMARK       I    between atoms: N1_8  and  C8_9 
REMARK    4  A    between atoms: C8_9  and  C9_11 
REMARK    5  A    between atoms: C10_12  and  N2_13 
REMARK    6  A    between atoms: N2_13  and  C11_14 
REMARK    7  A    between atoms: C14_18  and  C15_19 
ROOT
HETATM    1  C9  UNL     1      27.117   5.194  48.855  1.00  0.00     0.091 C 
HETATM    2  C10 UNL     1      27.173   6.440  48.450  1.00  0.00     0.112 C 
ENDROOT
BRANCH   2   3
HETATM    3  N2  UNL     1      28.233   6.901  47.625  1.00  0.00    -0.198 N 
HETATM    4  H14 UNL     1      28.007   7.100  46.631  1.00  0.00     0.183 HD
BRANCH   3   5
HETATM    5  C11 UNL     1      29.552   7.086  48.125  1.00  0.00     0.726 A 
HETATM    6  N3  UNL     1      29.873   8.215  48.777  1.00  0.00    -0.075 NA
HETATM    7  C12 UNL     1      31.128   8.422  49.267  1.00  0.00     0.139 A 
HETATM    8  C13 UNL     1      32.024   7.398  49.046  1.00  0.00     0.053 A 
HETATM    9  C14 UNL     1      31.732   6.226  48.383  1.00  0.00     0.089 A 
HETATM   10  N5  UNL     1      30.467   6.135  47.945  1.00  0.00    -0.062 NA
BRANCH   9  11
HETATM   11  C15 UNL     1      32.701   5.161  48.165  1.00  0.00     0.011 A 
HETATM   12  C16 UNL     1      32.407   3.913  47.658  1.00  0.00     0.017 A 
HETATM   13  C17 UNL     1      33.392   2.963  47.484  1.00  0.00     0.020 A 
HETATM   14  C18 UNL     1      34.710   3.268  47.826  1.00  0.00     0.116 A 
HETATM   15  N4  UNL     1      34.997   4.493  48.323  1.00  0.00    -0.272 NA
HETATM   16  C19 UNL     1      34.014   5.398  48.481  1.00  0.00     0.130 A 
ENDBRANCH   9  11
ENDBRANCH   3   5
ENDBRANCH   2   3
BRANCH   1  17
HETATM   17  C8  UNL     1      26.057   4.622  49.711  1.00  0.00     0.242 C 
HETATM   18  N1  UNL     1      26.262   3.654  50.760  1.00  0.00    -0.357 N 
HETATM   19  H11 UNL     1      27.300   3.431  50.794  1.00  0.00     0.162 HD
HETATM   20  O1  UNL     1      24.898   5.071  49.437  1.00  0.00    -0.269 OA
BRANCH  18  21
HETATM   21  C7  UNL     1      25.123   3.184  51.519  1.00  0.00     0.127 C 
BRANCH  21  22
HETATM   22  C6  UNL     1      24.983   1.700  51.580  1.00  0.00     0.054 C 
BRANCH  22  23
HETATM   23  C5  UNL     1      25.729   1.054  52.693  1.00  0.00    -0.068 C 
HETATM   24  C4  UNL     1      25.901  -0.416  52.700  1.00  0.00     0.063 C 
HETATM   25  C3  UNL     1      27.289  -0.878  52.551  1.00  0.00    -0.009 C 
HETATM   26  C2  UNL     1      28.077  -0.558  53.582  1.00  0.00    -0.025 C 
HETATM   27  C1  UNL     1      29.508  -0.965  53.564  1.00  0.00     0.056 C 
HETATM   28  S1  UNL     1      27.051   0.355  54.768  1.00  0.00    -0.107 SA
HETATM   29  C20 UNL     1      26.297   1.660  53.759  1.00  0.00     0.053 C 
ENDBRANCH  22  23
ENDBRANCH  21  22
ENDBRANCH  18  21
ENDBRANCH   1  17
TORSDOF 7
ENDMDL
MODEL 4
REMARK VINA RESULT:      -7.7      4.198      9.735
REMARK  7 active torsions:
REMARK  status: ('A' for Active; 'I' for Inactive)
REMARK    1  A    between atoms: C5_5  and  C6_6 
REMARK    2  A    between atoms: C6_6  and  C7_7 
REMARK    3  A    between atoms: C7_7  and  N1_8 
REMARK       I    between atoms: N1_8  and  C8_9 
REMARK    4  A    between atoms: C8_9  and  C9_11 
REMARK    5  A    between atoms: C10_12  and  N2_13 
REMARK    6  A    between atoms: N2_13  and  C11_14 
REMARK    7  A    between atoms: C14_18  and  C15_19 
ROOT
HETATM    1  C9  UNL     1      26.816   4.145  49.204  1.00  0.00     0.091 C 
HETATM    2  C10 UNL     1      27.311   5.278  48.764  1.00  0.00     0.112 C 
ENDROOT
BRANCH   2   3
HETATM    3  N2  UNL     1      28.583   5.331  48.135  1.00  0.00    -0.198 N 
HETATM    4  H14 UNL     1      28.752   4.668  47.353  1.00  0.00     0.183 HD
BRANCH   3   5
HETATM    5  C11 UNL     1      29.590   6.248  48.545  1.00  0.00     0.726 A 
HETATM    6  N3  UNL     1      30.808   5.800  48.889  1.00  0.00    -0.075 NA
HETATM    7  C12 UNL     1      31.794   6.654  49.286  1.00  0.00     0.139 A 
HETATM    8  C13 UNL     1      31.447   7.988  49.305  1.00  0.00     0.053 A 
HETATM    9  C14 UNL     1      30.210   8.484  48.959  1.00  0.00     0.089 A 
HETATM   10  N5  UNL     1      29.320   7.552  48.585  1.00  0.00    -0.062 NA
BRANCH   9  11
HETATM   11  C15 UNL     1      29.873   9.901  48.989  1.00  0.00     0.011 A 
HETATM   12  C16 UNL     1      30.787  10.934  48.981  1.00  0.00     0.017 A 
HETATM   13  C17 UNL     1      30.375  12.250  49.011  1.00  0.00     0.020 A 
HETATM   14  C18 UNL     1      29.012  12.544  49.051  1.00  0.00     0.116 A 
HETATM   15  N4  UNL     1      28.117  11.530  49.059  1.00  0.00    -0.272 NA
HETATM   16  C19 UNL     1      28.550  10.256  49.028  1.00  0.00     0.130 A 
ENDBRANCH   9  11
ENDBRANCH   3   5
ENDBRANCH   2   3
BRANCH   1  17
HETATM   17  C8  UNL     1      25.506   3.988  49.870  1.00  0.00     0.242 C 
HETATM   18  N1  UNL     1      25.065   4.722  51.030  1.00  0.00    -0.357 N 
HETATM   19  H11 UNL     1      25.850   5.381  51.312  1.00  0.00     0.162 HD
HETATM   20  O1  UNL     1      24.765   3.115  49.314  1.00  0.00    -0.269 OA
BRANCH  18  21
HETATM   21  C7  UNL     1      23.750   4.460  51.572  1.00  0.00     0.127 C 
BRANCH  21  22
HETATM   22  C6  UNL     1      23.727   3.510  52.722  1.00  0.00     0.054 C 
BRANCH  22  23
HETATM   23  C5  UNL     1      23.052   2.215  52.440  1.00  0.00    -0.068 C 
HETATM   24  C4  UNL     1      23.852   0.970  52.389  1.00  0.00     0.063 C 
HETATM   25  C3  UNL     1      23.550  -0.004  53.448  1.00  0.00    -0.009 C 
HETATM   26  C2  UNL     1      22.323  -0.527  53.365  1.00  0.00    -0.025 C 
HETATM   27  C1  UNL     1      21.886  -1.529  54.373  1.00  0.00     0.056 C 
HETATM   28  S1  UNL     1      21.522   0.231  51.924  1.00  0.00    -0.107 SA
HETATM   29  C20 UNL     1      21.737   2.010  52.207  1.00  0.00     0.053 C 
ENDBRANCH  22  23
ENDBRANCH  21  22
ENDBRANCH  18  21
ENDBRANCH   1  17
TORSDOF 7
ENDMDL
MODEL 5
REMARK VINA RESULT:      -7.7      2.016      2.622
REMARK  7 active torsions:
REMARK  status: ('A' for Active; 'I' for Inactive)
REMARK    1  A    between atoms: C5_5  and  C6_6 
REMARK    2  A    between atoms: C6_6  and  C7_7 
REMARK    3  A    between atoms: C7_7  and  N1_8 
REMARK       I    between atoms: N1_8  and  C8_9 
REMARK    4  A    between atoms: C8_9  and  C9_11 
REMARK    5  A    between atoms: C10_12  and  N2_13 
REMARK    6  A    between atoms: N2_13  and  C11_14 
REMARK    7  A    between atoms: C14_18  and  C15_19 
ROOT
HETATM    1  C9  UNL     1      27.187   4.237  48.970  1.00  0.00     0.091 C 
HETATM    2  C10 UNL     1      26.128   4.219  49.743  1.00  0.00     0.112 C 
ENDROOT
BRANCH   2   3
HETATM    3  N2  UNL     1      25.394   3.023  49.961  1.00  0.00    -0.198 N 
HETATM    4  H14 UNL     1      24.862   2.641  49.155  1.00  0.00     0.183 HD
BRANCH   3   5
HETATM    5  C11 UNL     1      25.380   2.365  51.222  1.00  0.00     0.726 A 
HETATM    6  N3  UNL     1      24.470   2.704  52.149  1.00  0.00    -0.075 NA
HETATM    7  C12 UNL     1      24.432   2.091  53.366  1.00  0.00     0.139 A 
HETATM    8  C13 UNL     1      25.383   1.114  53.565  1.00  0.00     0.053 A 
HETATM    9  C14 UNL     1      26.330   0.737  52.639  1.00  0.00     0.089 A 
HETATM   10  N5  UNL     1      26.273   1.409  51.479  1.00  0.00    -0.062 NA
BRANCH   9  11
HETATM   11  C15 UNL     1      27.323  -0.301  52.879  1.00  0.00     0.011 A 
HETATM   12  C16 UNL     1      28.620  -0.078  53.291  1.00  0.00     0.017 A 
HETATM   13  C17 UNL     1      29.494  -1.126  53.494  1.00  0.00     0.020 A 
HETATM   14  C18 UNL     1      29.062  -2.434  53.277  1.00  0.00     0.116 A 
HETATM   15  N4  UNL     1      27.789  -2.652  52.872  1.00  0.00    -0.272 NA
HETATM   16  C19 UNL     1      26.960  -1.609  52.684  1.00  0.00     0.130 A 
ENDBRANCH   9  11
ENDBRANCH   3   5
ENDBRANCH   2   3
BRANCH   1  17
HETATM   17  C8  UNL     1      28.013   5.428  48.682  1.00  0.00     0.242 C 
HETATM   18  N1  UNL     1      27.627   6.794  48.936  1.00  0.00    -0.357 N 
HETATM   19  H11 UNL     1      26.651   6.779  49.355  1.00  0.00     0.162 HD
HETATM   20  O1  UNL     1      29.143   5.140  48.171  1.00  0.00    -0.269 OA
BRANCH  18  21
HETATM   21  C7  UNL     1      28.546   7.860  48.602  1.00  0.00     0.127 C 
BRANCH  21  22
HETATM   22  C6  UNL     1      28.180   9.196  49.156  1.00  0.00     0.054 C 
BRANCH  22  23
HETATM   23  C5  UNL     1      29.258  10.216  49.074  1.00  0.00    -0.068 C 
HETATM   24  C4  UNL     1      30.662   9.817  49.325  1.00  0.00     0.063 C 
HETATM   25  C3  UNL     1      31.554   9.925  48.161  1.00  0.00    -0.009 C 
HETATM   26  C2  UNL     1      31.752  11.181  47.749  1.00  0.00    -0.025 C 
HETATM   27  C1  UNL     1      32.635  11.436  46.579  1.00  0.00     0.056 C 
HETATM   28  S1  UNL     1      30.785  12.256  48.845  1.00  0.00    -0.107 SA
HETATM   29  C20 UNL     1      29.122  11.530  48.792  1.00  0.00     0.053 C 
ENDBRANCH  22  23
ENDBRANCH  21  22
ENDBRANCH  18  21
ENDBRANCH   1  17
TORSDOF 7
ENDMDL
MODEL 6
REMARK VINA RESULT:      -7.7      2.288      3.682
REMARK  7 active torsions:
REMARK  status: ('A' for Active; 'I' for Inactive)
REMARK    1  A    between atoms: C5_5  and  C6_6 
REMARK    2  A    between atoms: C6_6  and  C7_7 
REMARK    3  A    between atoms: C7_7  and  N1_8 
REMARK       I    between atoms: N1_8  and  C8_9 
REMARK    4  A    between atoms: C8_9  and  C9_11 
REMARK    5  A    between atoms: C10_12  and  N2_13 
REMARK    6  A    between atoms: N2_13  and  C11_14 
REMARK    7  A    between atoms: C14_18  and  C15_19 
ROOT
HETATM    1  C9  UNL     1      23.856   4.488  51.299  1.00  0.00     0.091 C 
HETATM    2  C10 UNL     1      23.366   3.312  50.988  1.00  0.00     0.112 C 
ENDROOT
BRANCH   2   3
HETATM    3  N2  UNL     1      22.454   2.643  51.847  1.00  0.00    -0.198 N 
HETATM    4  H14 UNL     1      21.491   3.028  51.906  1.00  0.00     0.183 HD
BRANCH   3   5
HETATM    5  C11 UNL     1      22.829   1.495  52.598  1.00  0.00     0.726 A 
HETATM    6  N3  UNL     1      21.886   0.683  53.103  1.00  0.00    -0.075 NA
HETATM    7  C12 UNL     1      22.214  -0.424  53.828  1.00  0.00     0.139 A 
HETATM    8  C13 UNL     1      23.565  -0.641  53.996  1.00  0.00     0.053 A 
HETATM    9  C14 UNL     1      24.560   0.167  53.492  1.00  0.00     0.089 A 
HETATM   10  N5  UNL     1      24.119   1.227  52.797  1.00  0.00    -0.062 NA
BRANCH   9  11
HETATM   11  C15 UNL     1      25.981  -0.088  53.686  1.00  0.00     0.011 A 
HETATM   12  C16 UNL     1      26.754  -0.910  52.895  1.00  0.00     0.017 A 
HETATM   13  C17 UNL     1      28.097  -1.093  53.154  1.00  0.00     0.020 A 
HETATM   14  C18 UNL     1      28.685  -0.436  54.236  1.00  0.00     0.116 A 
HETATM   15  N4  UNL     1      27.925   0.370  55.011  1.00  0.00    -0.272 NA
HETATM   16  C19 UNL     1      26.618   0.529  54.733  1.00  0.00     0.130 A 
ENDBRANCH   9  11
ENDBRANCH   3   5
ENDBRANCH   2   3
BRANCH   1  17
HETATM   17  C8  UNL     1      24.807   5.261  50.473  1.00  0.00     0.242 C 
HETATM   18  N1  UNL     1      25.616   4.725  49.406  1.00  0.00    -0.357 N 
HETATM   19  H11 UNL     1      25.405   3.685  49.334  1.00  0.00     0.162 HD
HETATM   20  O1  UNL     1      24.859   6.493  50.792  1.00  0.00    -0.269 OA
BRANCH  18  21
HETATM   21  C7  UNL     1      26.504   5.607  48.682  1.00  0.00     0.127 C 
BRANCH  21  22
HETATM   22  C6  UNL     1      27.903   5.107  48.541  1.00  0.00     0.054 C 
BRANCH  22  23
HETATM   23  C5  UNL     1      28.890   6.138  48.126  1.00  0.00    -0.068 C 
HETATM   24  C4  UNL     1      28.414   7.472  47.693  1.00  0.00     0.063 C 
HETATM   25  C3  UNL     1      28.805   8.584  48.572  1.00  0.00    -0.009 C 
HETATM   26  C2  UNL     1      30.120   8.816  48.595  1.00  0.00    -0.025 C 
HETATM   27  C1  UNL     1      30.654   9.915  49.443  1.00  0.00     0.056 C 
HETATM   28  S1  UNL     1      30.891   7.600  47.492  1.00  0.00    -0.107 SA
HETATM   29  C20 UNL     1      30.235   6.015  48.083  1.00  0.00     0.053 C 
ENDBRANCH  22  23
ENDBRANCH  21  22
ENDBRANCH  18  21
ENDBRANCH   1  17
TORSDOF 7
ENDMDL
MODEL 7
REMARK VINA RESULT:      -7.5      1.690      2.108
REMARK  7 active torsions:
REMARK  status: ('A' for Active; 'I' for Inactive)
REMARK    1  A    between atoms: C5_5  and  C6_6 
REMARK    2  A    between atoms: C6_6  and  C7_7 
REMARK    3  A    between atoms: C7_7  and  N1_8 
REMARK       I    between atoms: N1_8  and  C8_9 
REMARK    4  A    between atoms: C8_9  and  C9_11 
REMARK    5  A    between atoms: C10_12  and  N2_13 
REMARK    6  A    between atoms: N2_13  and  C11_14 
REMARK    7  A    between atoms: C14_18  and  C15_19 
ROOT
HETATM    1  C9  UNL     1      26.987   5.203  48.627  1.00  0.00     0.091 C 
HETATM    2  C10 UNL     1      25.989   5.178  49.478  1.00  0.00     0.112 C 
ENDROOT
BRANCH   2   3
HETATM    3  N2  UNL     1      25.122   4.057  49.565  1.00  0.00    -0.198 N 
HETATM    4  H14 UNL     1      24.700   3.716  48.679  1.00  0.00     0.183 HD
BRANCH   3   5
HETATM    5  C11 UNL     1      24.836   3.418  50.804  1.00  0.00     0.726 A 
HETATM    6  N3  UNL     1      23.578   3.390  51.272  1.00  0.00    -0.075 NA
HETATM    7  C12 UNL     1      23.273   2.786  52.455  1.00  0.00     0.139 A 
HETATM    8  C13 UNL     1      24.338   2.215  53.119  1.00  0.00     0.053 A 
HETATM    9  C14 UNL     1      25.640   2.222  52.669  1.00  0.00     0.089 A 
HETATM   10  N5  UNL     1      25.821   2.846  51.495  1.00  0.00    -0.062 NA
BRANCH   9  11
HETATM   11  C15 UNL     1      26.746   1.610  53.393  1.00  0.00     0.011 A 
HETATM   12  C16 UNL     1      28.051   2.051  53.368  1.00  0.00     0.017 A 
HETATM   13  C17 UNL     1      29.037   1.408  54.088  1.00  0.00     0.020 A 
HETATM   14  C18 UNL     1      28.709   0.289  54.854  1.00  0.00     0.116 A 
HETATM   15  N4  UNL     1      27.427  -0.143  54.878  1.00  0.00    -0.272 NA
HETATM   16  C19 UNL     1      26.489   0.506  54.166  1.00  0.00     0.130 A 
ENDBRANCH   9  11
ENDBRANCH   3   5
ENDBRANCH   2   3
BRANCH   1  17
HETATM   17  C8  UNL     1      27.940   6.320  48.463  1.00  0.00     0.242 C 
HETATM   18  N1  UNL     1      29.353   6.261  48.746  1.00  0.00    -0.357 N 
HETATM   19  H11 UNL     1      29.571   5.281  49.094  1.00  0.00     0.162 HD
HETATM   20  O1  UNL     1      27.392   7.386  48.034  1.00  0.00    -0.269 OA
BRANCH  18  21
HETATM   21  C7  UNL     1      30.165   7.440  48.535  1.00  0.00     0.127 C 
BRANCH  21  22
HETATM   22  C6  UNL     1      30.757   7.554  47.170  1.00  0.00     0.054 C 
BRANCH  22  23
HETATM   23  C5  UNL     1      32.069   6.875  47.006  1.00  0.00    -0.068 C 
HETATM   24  C4  UNL     1      33.319   7.651  47.168  1.00  0.00     0.063 C 
HETATM   25  C3  UNL     1      34.148   7.258  48.317  1.00  0.00    -0.009 C 
HETATM   26  C2  UNL     1      34.664   6.029  48.213  1.00  0.00    -0.025 C 
HETATM   27  C1  UNL     1      35.525   5.503  49.306  1.00  0.00     0.056 C 
HETATM   28  S1  UNL     1      34.084   5.344  46.636  1.00  0.00    -0.107 SA
HETATM   29  C20 UNL     1      32.286   5.575  46.708  1.00  0.00     0.053 C 
ENDBRANCH  22  23
ENDBRANCH  21  22
ENDBRANCH  18  21
ENDBRANCH   1  17
TORSDOF 7
ENDMDL
MODEL 8
REMARK VINA RESULT:      -7.5      2.948      4.215
REMARK  7 active torsions:
REMARK  status: ('A' for Active; 'I' for Inactive)
REMARK    1  A    between atoms: C5_5  and  C6_6 
REMARK    2  A    between atoms: C6_6  and  C7_7 
REMARK    3  A    between atoms: C7_7  and  N1_8 
REMARK       I    between atoms: N1_8  and  C8_9 
REMARK    4  A    between atoms: C8_9  and  C9_11 
REMARK    5  A    between atoms: C10_12  and  N2_13 
REMARK    6  A    between atoms: N2_13  and  C11_14 
REMARK    7  A    between atoms: C14_18  and  C15_19 
ROOT
HETATM    1  C9  UNL     1      26.715   3.437  49.714  1.00  0.00     0.091 C 
HETATM    2  C10 UNL     1      26.513   2.901  50.893  1.00  0.00     0.112 C 
ENDROOT
BRANCH   2   3
HETATM    3  N2  UNL     1      26.683   1.508  51.109  1.00  0.00    -0.198 N 
HETATM    4  H14 UNL     1      27.092   0.955  50.330  1.00  0.00     0.183 HD
BRANCH   3   5
HETATM    5  C11 UNL     1      26.316   0.883  52.333  1.00  0.00     0.726 A 
HETATM    6  N3  UNL     1      27.233   0.692  53.294  1.00  0.00    -0.075 NA
HETATM    7  C12 UNL     1      26.911   0.095  54.476  1.00  0.00     0.139 A 
HETATM    8  C13 UNL     1      25.593  -0.287  54.605  1.00  0.00     0.053 A 
HETATM    9  C14 UNL     1      24.624  -0.107  53.643  1.00  0.00     0.089 A 
HETATM   10  N5  UNL     1      25.057   0.489  52.521  1.00  0.00    -0.062 NA
BRANCH   9  11
HETATM   11  C15 UNL     1      23.237  -0.522  53.808  1.00  0.00     0.011 A 
HETATM   12  C16 UNL     1      22.198  -0.163  52.977  1.00  0.00     0.017 A 
HETATM   13  C17 UNL     1      20.912  -0.605  53.210  1.00  0.00     0.020 A 
HETATM   14  C18 UNL     1      20.657  -1.429  54.306  1.00  0.00     0.116 A 
HETATM   15  N4  UNL     1      21.677  -1.781  55.121  1.00  0.00    -0.272 NA
HETATM   16  C19 UNL     1      22.921  -1.334  54.866  1.00  0.00     0.130 A 
ENDBRANCH   9  11
ENDBRANCH   3   5
ENDBRANCH   2   3
BRANCH   1  17
HETATM   17  C8  UNL     1      26.564   4.872  49.391  1.00  0.00     0.242 C 
HETATM   18  N1  UNL     1      27.614   5.734  48.909  1.00  0.00    -0.357 N 
HETATM   19  H11 UNL     1      28.500   5.153  48.836  1.00  0.00     0.162 HD
HETATM   20  O1  UNL     1      25.382   5.305  49.582  1.00  0.00    -0.269 OA
BRANCH  18  21
HETATM   21  C7  UNL     1      27.315   7.123  48.634  1.00  0.00     0.127 C 
BRANCH  21  22
HETATM   22  C6  UNL     1      27.909   7.651  47.371  1.00  0.00     0.054 C 
BRANCH  22  23
HETATM   23  C5  UNL     1      29.161   8.431  47.555  1.00  0.00    -0.068 C 
HETATM   24  C4  UNL     1      29.715   8.614  48.917  1.00  0.00     0.063 C 
HETATM   25  C3  UNL     1      31.015   7.967  49.148  1.00  0.00    -0.009 C 
HETATM   26  C2  UNL     1      32.013   8.493  48.432  1.00  0.00    -0.025 C 
HETATM   27  C1  UNL     1      33.385   7.934  48.570  1.00  0.00     0.056 C 
HETATM   28  S1  UNL     1      31.300   9.828  47.432  1.00  0.00    -0.107 SA
HETATM   29  C20 UNL     1      29.900   9.032  46.597  1.00  0.00     0.053 C 
ENDBRANCH  22  23
ENDBRANCH  21  22
ENDBRANCH  18  21
ENDBRANCH   1  17
TORSDOF 7
ENDMDL
MODEL 9
REMARK VINA RESULT:      -7.4      2.571      3.889
REMARK  7 active torsions:
REMARK  status: ('A' for Active; 'I' for Inactive)
REMARK    1  A    between atoms: C5_5  and  C6_6 
REMARK    2  A    between atoms: C6_6  and  C7_7 
REMARK    3  A    between atoms: C7_7  and  N1_8 
REMARK       I    between atoms: N1_8  and  C8_9 
REMARK    4  A    between atoms: C8_9  and  C9_11 
REMARK    5  A    between atoms: C10_12  and  N2_13 
REMARK    6  A    between atoms: N2_13  and  C11_14 
REMARK    7  A    between atoms: C14_18  and  C15_19 
ROOT
HETATM    1  C9  UNL     1      26.462   5.234  49.286  1.00  0.00     0.091 C 
HETATM    2  C10 UNL     1      26.307   3.934  49.375  1.00  0.00     0.112 C 
ENDROOT
BRANCH   2   3
HETATM    3  N2  UNL     1      25.220   3.370  50.094  1.00  0.00    -0.198 N 
HETATM    4  H14 UNL     1      24.275   3.757  49.904  1.00  0.00     0.183 HD
BRANCH   3   5
HETATM    5  C11 UNL     1      25.403   2.319  51.036  1.00  0.00     0.726 A 
HETATM    6  N3  UNL     1      26.630   1.830  51.271  1.00  0.00    -0.075 NA
HETATM    7  C12 UNL     1      26.836   0.824  52.168  1.00  0.00     0.139 A 
HETATM    8  C13 UNL     1      25.705   0.359  52.803  1.00  0.00     0.053 A 
HETATM    9  C14 UNL     1      24.431   0.836  52.590  1.00  0.00     0.089 A 
HETATM   10  N5  UNL     1      24.350   1.824  51.686  1.00  0.00    -0.062 NA
BRANCH   9  11
HETATM   11  C15 UNL     1      23.253   0.324  53.278  1.00  0.00     0.011 A 
HETATM   12  C16 UNL     1      21.979   0.837  53.158  1.00  0.00     0.017 A 
HETATM   13  C17 UNL     1      20.920   0.286  53.849  1.00  0.00     0.020 A 
HETATM   14  C18 UNL     1      21.140  -0.808  54.685  1.00  0.00     0.116 A 
HETATM   15  N4  UNL     1      22.390  -1.311  54.802  1.00  0.00    -0.272 NA
HETATM   16  C19 UNL     1      23.403  -0.752  54.114  1.00  0.00     0.130 A 
ENDBRANCH   9  11
ENDBRANCH   3   5
ENDBRANCH   2   3
BRANCH   1  17
HETATM   17  C8  UNL     1      27.556   5.914  48.562  1.00  0.00     0.242 C 
HETATM   18  N1  UNL     1      28.958   5.597  48.677  1.00  0.00    -0.357 N 
HETATM   19  H11 UNL     1      29.051   4.799  49.373  1.00  0.00     0.162 HD
HETATM   20  O1  UNL     1      27.145   6.844  47.796  1.00  0.00    -0.269 OA
BRANCH  18  21
HETATM   21  C7  UNL     1      29.918   6.352  47.902  1.00  0.00     0.127 C 
BRANCH  21  22
HETATM   22  C6  UNL     1      31.127   6.789  48.660  1.00  0.00     0.054 C 
BRANCH  22  23
HETATM   23  C5  UNL     1      32.350   5.990  48.387  1.00  0.00    -0.068 C 
HETATM   24  C4  UNL     1      32.221   4.585  47.938  1.00  0.00     0.063 C 
HETATM   25  C3  UNL     1      32.700   4.324  46.573  1.00  0.00    -0.009 C 
HETATM   26  C2  UNL     1      34.018   4.482  46.425  1.00  0.00    -0.025 C 
HETATM   27  C1  UNL     1      34.638   4.249  45.094  1.00  0.00     0.056 C 
HETATM   28  S1  UNL     1      34.675   4.980  48.042  1.00  0.00    -0.107 SA
HETATM   29  C20 UNL     1      33.635   6.393  48.505  1.00  0.00     0.053 C 
ENDBRANCH  22  23
ENDBRANCH  21  22
ENDBRANCH  18  21
ENDBRANCH   1  17
TORSDOF 7
ENDMDL
