MODEL 1
REMARK VINA RESULT:      -8.1      0.000      0.000
REMARK  7 active torsions:
REMARK  status: ('A' for Active; 'I' for Inactive)
REMARK    1  A    between atoms: C2_2  and  C3_3 
REMARK    2  A    between atoms: C3_3  and  C4_4 
REMARK    3  A    between atoms: C4_4  and  C5_5 
REMARK    4  A    between atoms: C7_7  and  N1_8 
REMARK    5  A    between atoms: C8_9  and  C9_10 
REMARK    6  A    between atoms: C15_16  and  O1_17 
REMARK    7  A    between atoms: C17_20  and  N2_21 
ROOT
HETATM    1  N1  UNL     1      24.280   0.517  53.336  1.00  0.00    -0.323 N 
HETATM    2  C8  UNL     1      24.214   1.536  52.421  1.00  0.00     0.082 A 
HETATM    3  C15 UNL     1      25.444   2.175  52.323  1.00  0.00     0.129 A 
HETATM    4  C16 UNL     1      26.233   1.489  53.217  1.00  0.00     0.087 A 
HETATM    5  C17 UNL     1      27.544   1.794  53.441  1.00  0.00     0.119 A 
HETATM    6  N3  UNL     1      28.211   1.049  54.338  1.00  0.00    -0.229 NA
HETATM    7  C18 UNL     1      27.563   0.037  54.978  1.00  0.00     0.237 A 
HETATM    8  N4  UNL     1      26.278  -0.225  54.729  1.00  0.00    -0.223 NA
HETATM    9  C19 UNL     1      25.546   0.475  53.846  1.00  0.00     0.148 A 
ENDROOT
BRANCH   1  10
HETATM   10  C7  UNL     1      23.372  -0.465  53.868  1.00  0.00     0.092 C 
HETATM   11  C6  UNL     1      22.163   0.027  54.578  1.00  0.00     0.030 C 
HETATM   12  C5  UNL     1      21.331  -0.933  53.752  1.00  0.00    -0.011 C 
HETATM   13  C20 UNL     1      22.452  -0.981  52.752  1.00  0.00     0.030 C 
BRANCH  12  14
HETATM   14  C4  UNL     1      20.025  -0.412  53.235  1.00  0.00     0.005 C 
BRANCH  14  15
HETATM   15  C3  UNL     1      18.985  -1.481  53.566  1.00  0.00     0.000 C 
BRANCH  15  16
HETATM   16  C2  UNL     1      17.717  -1.282  52.775  1.00  0.00    -0.005 C 
HETATM   17  C1  UNL     1      18.049  -0.267  51.687  1.00  0.00     0.005 C 
ENDBRANCH  15  16
ENDBRANCH  14  15
ENDBRANCH  12  14
ENDBRANCH   1  10
BRANCH   2  18
HETATM   18  C9  UNL     1      22.914   1.770  51.748  1.00  0.00    -0.006 A 
HETATM   19  C10 UNL     1      22.077   2.661  52.429  1.00  0.00     0.014 A 
HETATM   20  C11 UNL     1      20.831   3.036  51.981  1.00  0.00     0.001 A 
HETATM   21  C12 UNL     1      20.381   2.504  50.792  1.00  0.00     0.000 A 
HETATM   22  C13 UNL     1      21.204   1.628  50.123  1.00  0.00     0.001 A 
HETATM   23  C14 UNL     1      22.452   1.250  50.566  1.00  0.00     0.014 A 
ENDBRANCH   2  18
BRANCH   3  24
HETATM   24  O1  UNL     1      25.406   3.187  51.426  1.00  0.00    -0.267 OA
HETATM   25 BR1  UNL     1      26.228   3.232  49.797  1.00  0.00     0.106 Br
ENDBRANCH   3  24
BRANCH   5  26
HETATM   26  N2  UNL     1      28.280   2.821  52.818  1.00  0.00    -0.286 NA
HETATM   27  H19 UNL     1      28.455   2.624  51.811  1.00  0.00     0.125 HD
HETATM   28  H20 UNL     1      28.481   2.669  51.805  1.00  0.00     0.125 HD
ENDBRANCH   5  26
TORSDOF 7
ENDMDL
MODEL 2
REMARK VINA RESULT:      -7.6      2.802      5.889
REMARK  7 active torsions:
REMARK  status: ('A' for Active; 'I' for Inactive)
REMARK    1  A    between atoms: C2_2  and  C3_3 
REMARK    2  A    between atoms: C3_3  and  C4_4 
REMARK    3  A    between atoms: C4_4  and  C5_5 
REMARK    4  A    between atoms: C7_7  and  N1_8 
REMARK    5  A    between atoms: C8_9  and  C9_10 
REMARK    6  A    between atoms: C15_16  and  O1_17 
REMARK    7  A    between atoms: C17_20  and  N2_21 
ROOT
HETATM    1  N1  UNL     1      23.557   1.051  52.463  1.00  0.00    -0.323 N 
HETATM    2  C8  UNL     1      22.461   1.581  51.834  1.00  0.00     0.082 A 
HETATM    3  C15 UNL     1      21.295   1.025  52.348  1.00  0.00     0.129 A 
HETATM    4  C16 UNL     1      21.753   0.149  53.304  1.00  0.00     0.087 A 
HETATM    5  C17 UNL     1      20.926  -0.622  54.068  1.00  0.00     0.119 A 
HETATM    6  N3  UNL     1      21.494  -1.438  54.971  1.00  0.00    -0.229 NA
HETATM    7  C18 UNL     1      22.851  -1.465  55.085  1.00  0.00     0.237 A 
HETATM    8  N4  UNL     1      23.623  -0.694  54.316  1.00  0.00    -0.223 NA
HETATM    9  C19 UNL     1      23.128   0.146  53.392  1.00  0.00     0.148 A 
ENDROOT
BRANCH   1  10
HETATM   10  C7  UNL     1      24.985   1.206  52.373  1.00  0.00     0.092 C 
HETATM   11  C6  UNL     1      25.680   1.867  53.507  1.00  0.00     0.030 C 
HETATM   12  C5  UNL     1      26.684   0.732  53.509  1.00  0.00    -0.011 C 
HETATM   13  C20 UNL     1      25.676  -0.107  52.774  1.00  0.00     0.030 C 
BRANCH  12  14
HETATM   14  C4  UNL     1      27.104   0.211  54.850  1.00  0.00     0.005 C 
BRANCH  14  15
HETATM   15  C3  UNL     1      28.626   0.327  54.888  1.00  0.00     0.000 C 
BRANCH  15  16
HETATM   16  C2  UNL     1      29.229   0.155  53.518  1.00  0.00    -0.005 C 
HETATM   17  C1  UNL     1      29.814  -1.252  53.485  1.00  0.00     0.005 C 
ENDBRANCH  15  16
ENDBRANCH  14  15
ENDBRANCH  12  14
ENDBRANCH   1  10
BRANCH   2  18
HETATM   18  C9  UNL     1      22.699   2.584  50.769  1.00  0.00    -0.006 A 
HETATM   19  C10 UNL     1      22.797   3.898  51.242  1.00  0.00     0.014 A 
HETATM   20  C11 UNL     1      23.031   4.988  50.435  1.00  0.00     0.001 A 
HETATM   21  C12 UNL     1      23.178   4.773  49.081  1.00  0.00     0.000 A 
HETATM   22  C13 UNL     1      23.083   3.482  48.617  1.00  0.00     0.001 A 
HETATM   23  C14 UNL     1      22.849   2.388  49.420  1.00  0.00     0.014 A 
ENDBRANCH   2  18
BRANCH   3  24
HETATM   24  O1  UNL     1      20.196   1.531  51.743  1.00  0.00    -0.267 OA
HETATM   25 BR1  UNL     1      19.195   0.723  50.447  1.00  0.00     0.106 Br
ENDBRANCH   3  24
BRANCH   5  26
HETATM   26  N2  UNL     1      19.519  -0.647  54.007  1.00  0.00    -0.286 NA
HETATM   27  H19 UNL     1      19.170  -0.774  53.034  1.00  0.00     0.125 HD
HETATM   28  H20 UNL     1      19.120  -0.772  53.050  1.00  0.00     0.125 HD
ENDBRANCH   5  26
TORSDOF 7
ENDMDL
MODEL 3
REMARK VINA RESULT:      -7.5      2.177      3.835
REMARK  7 active torsions:
REMARK  status: ('A' for Active; 'I' for Inactive)
REMARK    1  A    between atoms: C2_2  and  C3_3 
REMARK    2  A    between atoms: C3_3  and  C4_4 
REMARK    3  A    between atoms: C4_4  and  C5_5 
REMARK    4  A    between atoms: C7_7  and  N1_8 
REMARK    5  A    between atoms: C8_9  and  C9_10 
REMARK    6  A    between atoms: C15_16  and  O1_17 
REMARK    7  A    between atoms: C17_20  and  N2_21 
ROOT
HETATM    1  N1  UNL     1      23.121   1.708  51.097  1.00  0.00    -0.323 N 
HETATM    2  C8  UNL     1      23.659   1.072  52.186  1.00  0.00     0.082 A 
HETATM    3  C15 UNL     1      24.986   1.449  52.355  1.00  0.00     0.129 A 
HETATM    4  C16 UNL     1      25.204   2.330  51.322  1.00  0.00     0.087 A 
HETATM    5  C17 UNL     1      26.399   2.952  51.110  1.00  0.00     0.119 A 
HETATM    6  N3  UNL     1      26.487   3.794  50.068  1.00  0.00    -0.229 NA
HETATM    7  C18 UNL     1      25.397   3.990  49.276  1.00  0.00     0.237 A 
HETATM    8  N4  UNL     1      24.246   3.360  49.519  1.00  0.00    -0.223 NA
HETATM    9  C19 UNL     1      24.082   2.504  50.541  1.00  0.00     0.148 A 
ENDROOT
BRANCH   1  10
HETATM   10  C7  UNL     1      21.848   1.726  50.426  1.00  0.00     0.092 C 
HETATM   11  C6  UNL     1      21.185   0.421  50.168  1.00  0.00     0.030 C 
HETATM   12  C5  UNL     1      19.905   1.000  50.737  1.00  0.00    -0.011 C 
HETATM   13  C20 UNL     1      20.733   2.042  51.435  1.00  0.00     0.030 C 
BRANCH  12  14
HETATM   14  C4  UNL     1      19.106   0.103  51.634  1.00  0.00     0.005 C 
BRANCH  14  15
HETATM   15  C3  UNL     1      17.717   0.011  51.007  1.00  0.00     0.000 C 
BRANCH  15  16
HETATM   16  C2  UNL     1      16.788  -0.833  51.843  1.00  0.00    -0.005 C 
HETATM   17  C1  UNL     1      17.599  -1.287  53.051  1.00  0.00     0.005 C 
ENDBRANCH  15  16
ENDBRANCH  14  15
ENDBRANCH  12  14
ENDBRANCH   1  10
BRANCH   2  18
HETATM   18  C9  UNL     1      22.785   0.141  52.937  1.00  0.00    -0.006 A 
HETATM   19  C10 UNL     1      21.991   0.767  53.905  1.00  0.00     0.014 A 
HETATM   20  C11 UNL     1      21.095   0.101  54.709  1.00  0.00     0.001 A 
HETATM   21  C12 UNL     1      20.971  -1.263  54.553  1.00  0.00     0.000 A 
HETATM   22  C13 UNL     1      21.752  -1.878  53.601  1.00  0.00     0.001 A 
HETATM   23  C14 UNL     1      22.649  -1.217  52.793  1.00  0.00     0.014 A 
ENDBRANCH   2  18
BRANCH   3  24
HETATM   24  O1  UNL     1      25.543   0.834  53.424  1.00  0.00    -0.267 OA
HETATM   25 BR1  UNL     1      26.599  -0.654  53.399  1.00  0.00     0.106 Br
ENDBRANCH   3  24
BRANCH   5  26
HETATM   26  N2  UNL     1      27.567   2.800  51.885  1.00  0.00    -0.286 NA
HETATM   27  H19 UNL     1      27.379   2.317  52.788  1.00  0.00     0.125 HD
HETATM   28  H20 UNL     1      27.429   2.320  52.802  1.00  0.00     0.125 HD
ENDBRANCH   5  26
TORSDOF 7
ENDMDL
MODEL 4
REMARK VINA RESULT:      -7.1      2.850      4.838
REMARK  7 active torsions:
REMARK  status: ('A' for Active; 'I' for Inactive)
REMARK    1  A    between atoms: C2_2  and  C3_3 
REMARK    2  A    between atoms: C3_3  and  C4_4 
REMARK    3  A    between atoms: C4_4  and  C5_5 
REMARK    4  A    between atoms: C7_7  and  N1_8 
REMARK    5  A    between atoms: C8_9  and  C9_10 
REMARK    6  A    between atoms: C15_16  and  O1_17 
REMARK    7  A    between atoms: C17_20  and  N2_21 
ROOT
HETATM    1  N1  UNL     1      24.494   2.069  51.750  1.00  0.00    -0.323 N 
HETATM    2  C8  UNL     1      23.414   1.257  51.980  1.00  0.00     0.082 A 
HETATM    3  C15 UNL     1      23.709   0.334  52.976  1.00  0.00     0.129 A 
HETATM    4  C16 UNL     1      25.006   0.638  53.320  1.00  0.00     0.087 A 
HETATM    5  C17 UNL     1      25.700  -0.037  54.281  1.00  0.00     0.119 A 
HETATM    6  N3  UNL     1      26.961   0.356  54.529  1.00  0.00    -0.229 NA
HETATM    7  C18 UNL     1      27.486   1.395  53.822  1.00  0.00     0.237 A 
HETATM    8  N4  UNL     1      26.771   2.027  52.890  1.00  0.00    -0.223 NA
HETATM    9  C19 UNL     1      25.505   1.691  52.587  1.00  0.00     0.148 A 
ENDROOT
BRANCH   1  10
HETATM   10  C7  UNL     1      24.804   3.165  50.870  1.00  0.00     0.092 C 
HETATM   11  C6  UNL     1      24.398   3.043  49.447  1.00  0.00     0.030 C 
HETATM   12  C5  UNL     1      23.799   4.432  49.536  1.00  0.00    -0.011 C 
HETATM   13  C20 UNL     1      23.752   4.273  51.030  1.00  0.00     0.030 C 
BRANCH  12  14
HETATM   14  C4  UNL     1      22.473   4.634  48.866  1.00  0.00     0.005 C 
BRANCH  14  15
HETATM   15  C3  UNL     1      22.750   5.497  47.636  1.00  0.00     0.000 C 
BRANCH  15  16
HETATM   16  C2  UNL     1      21.978   5.012  46.436  1.00  0.00    -0.005 C 
HETATM   17  C1  UNL     1      21.829   3.505  46.607  1.00  0.00     0.005 C 
ENDBRANCH  15  16
ENDBRANCH  14  15
ENDBRANCH  12  14
ENDBRANCH   1  10
BRANCH   2  18
HETATM   18  C9  UNL     1      22.198   1.486  51.164  1.00  0.00    -0.006 A 
HETATM   19  C10 UNL     1      21.281   2.367  51.749  1.00  0.00     0.014 A 
HETATM   20  C11 UNL     1      20.092   2.736  51.164  1.00  0.00     0.001 A 
HETATM   21  C12 UNL     1      19.785   2.208  49.928  1.00  0.00     0.000 A 
HETATM   22  C13 UNL     1      20.686   1.343  49.353  1.00  0.00     0.001 A 
HETATM   23  C14 UNL     1      21.878   0.970  49.934  1.00  0.00     0.014 A 
ENDBRANCH   2  18
BRANCH   3  24
HETATM   24  O1  UNL     1      22.658  -0.482  53.223  1.00  0.00    -0.267 OA
HETATM   25 BR1  UNL     1      21.457  -0.331  54.589  1.00  0.00     0.106 Br
ENDBRANCH   3  24
BRANCH   5  26
HETATM   26  N2  UNL     1      25.224  -1.117  55.051  1.00  0.00    -0.286 NA
HETATM   27  H19 UNL     1      25.191  -0.890  56.067  1.00  0.00     0.125 HD
HETATM   28  H20 UNL     1      25.173  -0.938  56.079  1.00  0.00     0.125 HD
ENDBRANCH   5  26
TORSDOF 7
ENDMDL
MODEL 5
REMARK VINA RESULT:      -7.1      3.366      7.007
REMARK  7 active torsions:
REMARK  status: ('A' for Active; 'I' for Inactive)
REMARK    1  A    between atoms: C2_2  and  C3_3 
REMARK    2  A    between atoms: C3_3  and  C4_4 
REMARK    3  A    between atoms: C4_4  and  C5_5 
REMARK    4  A    between atoms: C7_7  and  N1_8 
REMARK    5  A    between atoms: C8_9  and  C9_10 
REMARK    6  A    between atoms: C15_16  and  O1_17 
REMARK    7  A    between atoms: C17_20  and  N2_21 
ROOT
HETATM    1  N1  UNL     1      22.997   1.928  51.904  1.00  0.00    -0.323 N 
HETATM    2  C8  UNL     1      23.649   0.934  52.587  1.00  0.00     0.082 A 
HETATM    3  C15 UNL     1      22.732   0.036  53.121  1.00  0.00     0.129 A 
HETATM    4  C16 UNL     1      21.517   0.543  52.722  1.00  0.00     0.087 A 
HETATM    5  C17 UNL     1      20.326  -0.042  53.036  1.00  0.00     0.119 A 
HETATM    6  N3  UNL     1      19.206   0.548  52.586  1.00  0.00    -0.229 NA
HETATM    7  C18 UNL     1      19.303   1.688  51.847  1.00  0.00     0.237 A 
HETATM    8  N4  UNL     1      20.491   2.227  51.565  1.00  0.00    -0.223 NA
HETATM    9  C19 UNL     1      21.653   1.695  51.980  1.00  0.00     0.148 A 
ENDROOT
BRANCH   1  10
HETATM   10  C7  UNL     1      23.374   3.106  51.169  1.00  0.00     0.092 C 
HETATM   11  C6  UNL     1      24.642   3.780  51.550  1.00  0.00     0.030 C 
HETATM   12  C5  UNL     1      25.024   3.812  50.084  1.00  0.00    -0.011 C 
HETATM   13  C20 UNL     1      24.039   2.703  49.844  1.00  0.00     0.030 C 
BRANCH  12  14
HETATM   14  C4  UNL     1      26.451   3.491  49.757  1.00  0.00     0.005 C 
BRANCH  14  15
HETATM   15  C3  UNL     1      26.981   4.685  48.967  1.00  0.00     0.000 C 
BRANCH  15  16
HETATM   16  C2  UNL     1      26.142   5.916  49.196  1.00  0.00    -0.005 C 
HETATM   17  C1  UNL     1      26.513   6.896  48.089  1.00  0.00     0.005 C 
ENDBRANCH  15  16
ENDBRANCH  14  15
ENDBRANCH  12  14
ENDBRANCH   1  10
BRANCH   2  18
HETATM   18  C9  UNL     1      25.129   0.998  52.643  1.00  0.00    -0.006 A 
HETATM   19  C10 UNL     1      25.621   1.802  53.679  1.00  0.00     0.014 A 
HETATM   20  C11 UNL     1      26.960   1.994  53.929  1.00  0.00     0.001 A 
HETATM   21  C12 UNL     1      27.871   1.357  53.113  1.00  0.00     0.000 A 
HETATM   22  C13 UNL     1      27.387   0.567  52.096  1.00  0.00     0.001 A 
HETATM   23  C14 UNL     1      26.048   0.371  51.841  1.00  0.00     0.014 A 
ENDBRANCH   2  18
BRANCH   3  24
HETATM   24  O1  UNL     1      23.351  -0.956  53.803  1.00  0.00    -0.267 OA
HETATM   25 BR1  UNL     1      23.359  -1.193  55.613  1.00  0.00     0.106 Br
ENDBRANCH   3  24
BRANCH   5  26
HETATM   26  N2  UNL     1      20.147  -1.218  53.791  1.00  0.00    -0.286 NA
HETATM   27  H19 UNL     1      19.474  -1.874  53.343  1.00  0.00     0.125 HD
HETATM   28  H20 UNL     1      19.479  -1.908  53.382  1.00  0.00     0.125 HD
ENDBRANCH   5  26
TORSDOF 7
ENDMDL
MODEL 6
REMARK VINA RESULT:      -7.1      3.508      6.464
REMARK  7 active torsions:
REMARK  status: ('A' for Active; 'I' for Inactive)
REMARK    1  A    between atoms: C2_2  and  C3_3 
REMARK    2  A    between atoms: C3_3  and  C4_4 
REMARK    3  A    between atoms: C4_4  and  C5_5 
REMARK    4  A    between atoms: C7_7  and  N1_8 
REMARK    5  A    between atoms: C8_9  and  C9_10 
REMARK    6  A    between atoms: C15_16  and  O1_17 
REMARK    7  A    between atoms: C17_20  and  N2_21 
ROOT
HETATM    1  N1  UNL     1      22.758   2.335  50.976  1.00  0.00    -0.323 N 
HETATM    2  C8  UNL     1      21.736   1.434  51.127  1.00  0.00     0.082 A 
HETATM    3  C15 UNL     1      20.839   1.545  50.072  1.00  0.00     0.129 A 
HETATM    4  C16 UNL     1      21.376   2.546  49.297  1.00  0.00     0.087 A 
HETATM    5  C17 UNL     1      20.803   2.983  48.139  1.00  0.00     0.119 A 
HETATM    6  N3  UNL     1      21.426   3.966  47.469  1.00  0.00    -0.229 NA
HETATM    7  C18 UNL     1      22.585   4.481  47.965  1.00  0.00     0.237 A 
HETATM    8  N4  UNL     1      23.111   4.024  49.104  1.00  0.00    -0.223 NA
HETATM    9  C19 UNL     1      22.546   3.043  49.828  1.00  0.00     0.148 A 
ENDROOT
BRANCH   1  10
HETATM   10  C7  UNL     1      23.940   2.701  51.712  1.00  0.00     0.092 C 
HETATM   11  C6  UNL     1      23.945   2.454  53.177  1.00  0.00     0.030 C 
HETATM   12  C5  UNL     1      25.305   1.803  53.027  1.00  0.00    -0.011 C 
HETATM   13  C20 UNL     1      25.003   1.601  51.568  1.00  0.00     0.030 C 
BRANCH  12  14
HETATM   14  C4  UNL     1      25.539   0.551  53.817  1.00  0.00     0.005 C 
BRANCH  14  15
HETATM   15  C3  UNL     1      27.030   0.533  54.145  1.00  0.00     0.000 C 
BRANCH  15  16
HETATM   16  C2  UNL     1      27.778  -0.438  53.267  1.00  0.00    -0.005 C 
HETATM   17  C1  UNL     1      26.754  -1.467  52.804  1.00  0.00     0.005 C 
ENDBRANCH  15  16
ENDBRANCH  14  15
ENDBRANCH  12  14
ENDBRANCH   1  10
BRANCH   2  18
HETATM   18  C9  UNL     1      21.761   0.563  52.325  1.00  0.00    -0.006 A 
HETATM   19  C10 UNL     1      20.983   1.039  53.387  1.00  0.00     0.014 A 
HETATM   20  C11 UNL     1      20.847   0.386  54.591  1.00  0.00     0.001 A 
HETATM   21  C12 UNL     1      21.515  -0.809  54.761  1.00  0.00     0.000 A 
HETATM   22  C13 UNL     1      22.279  -1.276  53.717  1.00  0.00     0.001 A 
HETATM   23  C14 UNL     1      22.419  -0.627  52.510  1.00  0.00     0.014 A 
ENDBRANCH   2  18
BRANCH   3  24
HETATM   24  O1  UNL     1      19.817   0.666  50.196  1.00  0.00    -0.267 OA
HETATM   25 BR1  UNL     1      18.120   1.039  50.757  1.00  0.00     0.106 Br
ENDBRANCH   3  24
BRANCH   5  26
HETATM   26  N2  UNL     1      19.610   2.500  47.565  1.00  0.00    -0.286 NA
HETATM   27  H19 UNL     1      19.184   1.735  48.129  1.00  0.00     0.125 HD
HETATM   28  H20 UNL     1      19.144   1.730  48.095  1.00  0.00     0.125 HD
ENDBRANCH   5  26
TORSDOF 7
ENDMDL
MODEL 7
REMARK VINA RESULT:      -7.0      3.085      6.061
REMARK  7 active torsions:
REMARK  status: ('A' for Active; 'I' for Inactive)
REMARK    1  A    between atoms: C2_2  and  C3_3 
REMARK    2  A    between atoms: C3_3  and  C4_4 
REMARK    3  A    between atoms: C4_4  and  C5_5 
REMARK    4  A    between atoms: C7_7  and  N1_8 
REMARK    5  A    between atoms: C8_9  and  C9_10 
REMARK    6  A    between atoms: C15_16  and  O1_17 
REMARK    7  A    between atoms: C17_20  and  N2_21 
ROOT
HETATM    1  N1  UNL     1      24.681   2.580  50.968  1.00  0.00    -0.323 N 
HETATM    2  C8  UNL     1      23.376   2.935  50.745  1.00  0.00     0.082 A 
HETATM    3  C15 UNL     1      23.315   4.040  49.905  1.00  0.00     0.129 A 
HETATM    4  C16 UNL     1      24.637   4.319  49.645  1.00  0.00     0.087 A 
HETATM    5  C17 UNL     1      25.039   5.348  48.846  1.00  0.00     0.119 A 
HETATM    6  N3  UNL     1      26.360   5.516  48.666  1.00  0.00    -0.229 NA
HETATM    7  C18 UNL     1      27.230   4.668  49.281  1.00  0.00     0.237 A 
HETATM    8  N4  UNL     1      26.792   3.674  50.056  1.00  0.00    -0.223 NA
HETATM    9  C19 UNL     1      25.488   3.443  50.282  1.00  0.00     0.148 A 
ENDROOT
BRANCH   1  10
HETATM   10  C7  UNL     1      25.370   1.570  51.727  1.00  0.00     0.092 C 
HETATM   11  C6  UNL     1      26.817   1.371  51.456  1.00  0.00     0.030 C 
HETATM   12  C5  UNL     1      27.067   1.417  52.950  1.00  0.00    -0.011 C 
HETATM   13  C20 UNL     1      25.751   2.126  53.108  1.00  0.00     0.030 C 
BRANCH  12  14
HETATM   14  C4  UNL     1      28.272   2.185  53.403  1.00  0.00     0.005 C 
BRANCH  14  15
HETATM   15  C3  UNL     1      29.032   1.255  54.347  1.00  0.00     0.000 C 
BRANCH  15  16
HETATM   16  C2  UNL     1      28.679  -0.190  54.104  1.00  0.00    -0.005 C 
HETATM   17  C1  UNL     1      29.936  -0.846  53.546  1.00  0.00     0.005 C 
ENDBRANCH  15  16
ENDBRANCH  14  15
ENDBRANCH  12  14
ENDBRANCH   1  10
BRANCH   2  18
HETATM   18  C9  UNL     1      22.323   2.131  51.411  1.00  0.00    -0.006 A 
HETATM   19  C10 UNL     1      21.899   1.025  50.665  1.00  0.00     0.014 A 
HETATM   20  C11 UNL     1      20.943   0.133  51.092  1.00  0.00     0.001 A 
HETATM   21  C12 UNL     1      20.369   0.340  52.329  1.00  0.00     0.000 A 
HETATM   22  C13 UNL     1      20.787   1.427  53.062  1.00  0.00     0.001 A 
HETATM   23  C14 UNL     1      21.743   2.322  52.639  1.00  0.00     0.014 A 
ENDBRANCH   2  18
BRANCH   3  24
HETATM   24  O1  UNL     1      22.036   4.413  49.668  1.00  0.00    -0.267 OA
HETATM   25 BR1  UNL     1      21.135   5.785  50.466  1.00  0.00     0.106 Br
ENDBRANCH   3  24
BRANCH   5  26
HETATM   26  N2  UNL     1      24.201   6.263  48.178  1.00  0.00    -0.286 NA
HETATM   27  H19 UNL     1      23.192   6.066  48.347  1.00  0.00     0.125 HD
HETATM   28  H20 UNL     1      23.178   6.107  48.317  1.00  0.00     0.125 HD
ENDBRANCH   5  26
TORSDOF 7
ENDMDL
MODEL 8
REMARK VINA RESULT:      -6.9      3.869      6.098
REMARK  7 active torsions:
REMARK  status: ('A' for Active; 'I' for Inactive)
REMARK    1  A    between atoms: C2_2  and  C3_3 
REMARK    2  A    between atoms: C3_3  and  C4_4 
REMARK    3  A    between atoms: C4_4  and  C5_5 
REMARK    4  A    between atoms: C7_7  and  N1_8 
REMARK    5  A    between atoms: C8_9  and  C9_10 
REMARK    6  A    between atoms: C15_16  and  O1_17 
REMARK    7  A    between atoms: C17_20  and  N2_21 
ROOT
HETATM    1  N1  UNL     1      23.237   4.192  51.450  1.00  0.00    -0.323 N 
HETATM    2  C8  UNL     1      21.918   3.879  51.252  1.00  0.00     0.082 A 
HETATM    3  C15 UNL     1      21.214   5.002  50.835  1.00  0.00     0.129 A 
HETATM    4  C16 UNL     1      22.174   5.986  50.796  1.00  0.00     0.087 A 
HETATM    5  C17 UNL     1      21.909   7.273  50.430  1.00  0.00     0.119 A 
HETATM    6  N3  UNL     1      22.933   8.143  50.429  1.00  0.00    -0.229 NA
HETATM    7  C18 UNL     1      24.173   7.712  50.790  1.00  0.00     0.237 A 
HETATM    8  N4  UNL     1      24.387   6.443  51.143  1.00  0.00    -0.223 NA
HETATM    9  C19 UNL     1      23.415   5.517  51.167  1.00  0.00     0.148 A 
ENDROOT
BRANCH   1  10
HETATM   10  C7  UNL     1      24.421   3.493  51.876  1.00  0.00     0.092 C 
HETATM   11  C6  UNL     1      24.373   2.788  53.182  1.00  0.00     0.030 C 
HETATM   12  C5  UNL     1      24.958   1.566  52.503  1.00  0.00    -0.011 C 
HETATM   13  C20 UNL     1      24.489   2.121  51.188  1.00  0.00     0.030 C 
BRANCH  12  14
HETATM   14  C4  UNL     1      24.374   0.241  52.890  1.00  0.00     0.005 C 
BRANCH  14  15
HETATM   15  C3  UNL     1      25.551  -0.624  53.337  1.00  0.00     0.000 C 
BRANCH  15  16
HETATM   16  C2  UNL     1      26.657  -0.625  52.313  1.00  0.00    -0.005 C 
HETATM   17  C1  UNL     1      27.962  -0.678  53.098  1.00  0.00     0.005 C 
ENDBRANCH  15  16
ENDBRANCH  14  15
ENDBRANCH  12  14
ENDBRANCH   1  10
BRANCH   2  18
HETATM   18  C9  UNL     1      21.498   2.482  51.516  1.00  0.00    -0.006 A 
HETATM   19  C10 UNL     1      21.039   2.266  52.821  1.00  0.00     0.014 A 
HETATM   20  C11 UNL     1      20.585   1.052  53.282  1.00  0.00     0.001 A 
HETATM   21  C12 UNL     1      20.581  -0.015  52.409  1.00  0.00     0.000 A 
HETATM   22  C13 UNL     1      21.032   0.198  51.127  1.00  0.00     0.001 A 
HETATM   23  C14 UNL     1      21.487   1.411  50.659  1.00  0.00     0.014 A 
ENDBRANCH   2  18
BRANCH   3  24
HETATM   24  O1  UNL     1      19.906   4.720  50.633  1.00  0.00    -0.267 OA
HETATM   25 BR1  UNL     1      19.110   4.316  49.041  1.00  0.00     0.106 Br
ENDBRANCH   3  24
BRANCH   5  26
HETATM   26  N2  UNL     1      20.656   7.790  50.045  1.00  0.00    -0.286 NA
HETATM   27  H19 UNL     1      20.132   8.190  50.851  1.00  0.00     0.125 HD
HETATM   28  H20 UNL     1      20.091   8.203  50.821  1.00  0.00     0.125 HD
ENDBRANCH   5  26
TORSDOF 7
ENDMDL
MODEL 9
REMARK VINA RESULT:      -6.7      9.091     12.395
REMARK  7 active torsions:
REMARK  status: ('A' for Active; 'I' for Inactive)
REMARK    1  A    between atoms: C2_2  and  C3_3 
REMARK    2  A    between atoms: C3_3  and  C4_4 
REMARK    3  A    between atoms: C4_4  and  C5_5 
REMARK    4  A    between atoms: C7_7  and  N1_8 
REMARK    5  A    between atoms: C8_9  and  C9_10 
REMARK    6  A    between atoms: C15_16  and  O1_17 
REMARK    7  A    between atoms: C17_20  and  N2_21 
ROOT
HETATM    1  N1  UNL     1      30.318   7.379  47.847  1.00  0.00    -0.323 N 
HETATM    2  C8  UNL     1      30.977   8.473  48.346  1.00  0.00     0.082 A 
HETATM    3  C15 UNL     1      30.118   9.236  49.128  1.00  0.00     0.129 A 
HETATM    4  C16 UNL     1      28.930   8.546  49.068  1.00  0.00     0.087 A 
HETATM    5  C17 UNL     1      27.797   8.953  49.709  1.00  0.00     0.119 A 
HETATM    6  N3  UNL     1      26.699   8.191  49.576  1.00  0.00    -0.229 NA
HETATM    7  C18 UNL     1      26.760   7.062  48.817  1.00  0.00     0.237 A 
HETATM    8  N4  UNL     1      27.890   6.701  48.206  1.00  0.00    -0.223 NA
HETATM    9  C19 UNL     1      29.027   7.411  48.293  1.00  0.00     0.148 A 
ENDROOT
BRANCH   1  10
HETATM   10  C7  UNL     1      30.644   6.265  46.997  1.00  0.00     0.092 C 
HETATM   11  C6  UNL     1      31.973   6.271  46.332  1.00  0.00     0.030 C 
HETATM   12  C5  UNL     1      32.175   4.844  46.800  1.00  0.00    -0.011 C 
HETATM   13  C20 UNL     1      31.129   5.084  47.853  1.00  0.00     0.030 C 
BRANCH  12  14
HETATM   14  C4  UNL     1      33.539   4.495  47.313  1.00  0.00     0.005 C 
BRANCH  14  15
HETATM   15  C3  UNL     1      33.817   3.071  46.836  1.00  0.00     0.000 C 
BRANCH  15  16
HETATM   16  C2  UNL     1      33.195   2.050  47.754  1.00  0.00    -0.005 C 
HETATM   17  C1  UNL     1      32.350   1.141  46.869  1.00  0.00     0.005 C 
ENDBRANCH  15  16
ENDBRANCH  14  15
ENDBRANCH  12  14
ENDBRANCH   1  10
BRANCH   2  18
HETATM   18  C9  UNL     1      32.401   8.644  47.973  1.00  0.00    -0.006 A 
HETATM   19  C10 UNL     1      33.286   7.899  48.762  1.00  0.00     0.014 A 
HETATM   20  C11 UNL     1      34.650   7.893  48.585  1.00  0.00     0.001 A 
HETATM   21  C12 UNL     1      35.178   8.665  47.572  1.00  0.00     0.000 A 
HETATM   22  C13 UNL     1      34.308   9.397  46.797  1.00  0.00     0.001 A 
HETATM   23  C14 UNL     1      32.942   9.407  46.969  1.00  0.00     0.014 A 
ENDBRANCH   2  18
BRANCH   3  24
HETATM   24  O1  UNL     1      30.745  10.325  49.633  1.00  0.00    -0.267 OA
HETATM   25 BR1  UNL     1      30.674  12.026  48.975  1.00  0.00     0.106 Br
ENDBRANCH   3  24
BRANCH   5  26
HETATM   26  N2  UNL     1      27.660  10.105  50.509  1.00  0.00    -0.286 NA
HETATM   27  H19 UNL     1      28.377  10.826  50.285  1.00  0.00     0.125 HD
HETATM   28  H20 UNL     1      28.358  10.859  50.321  1.00  0.00     0.125 HD
ENDBRANCH   5  26
TORSDOF 7
ENDMDL
