MODEL 1
REMARK VINA RESULT:      -8.3      0.000      0.000
REMARK  1 active torsions:
REMARK  status: ('A' for Active; 'I' for Inactive)
REMARK    1  A    between atoms: O1_2  and  C2_3 
ROOT
HETATM    1  C2  UNL     1      27.185   0.419  53.692  1.00  0.00     0.096 A 
HETATM    2  C3  UNL     1      27.798   1.379  52.876  1.00  0.00     0.041 A 
HETATM    3  C4  UNL     1      27.067   2.158  52.005  1.00  0.00     0.035 A 
HETATM    4  C5  UNL     1      25.704   1.942  51.978  1.00  0.00     0.073 A 
HETATM    5  N1  UNL     1      25.074   2.762  51.084  1.00  0.00    -0.241 NA
HETATM    6  C6  UNL     1      23.755   2.712  50.906  1.00  0.00     0.234 A 
HETATM    7  N2  UNL     1      23.063   1.825  51.637  1.00  0.00    -0.240 NA
HETATM    8  C7  UNL     1      23.647   1.005  52.524  1.00  0.00     0.084 A 
HETATM    9  C8  UNL     1      25.011   1.023  52.741  1.00  0.00     0.052 A 
HETATM   10  C9  UNL     1      25.795   0.263  53.604  1.00  0.00     0.080 A 
HETATM   11  N3  UNL     1      25.597  -0.786  54.577  1.00  0.00    -0.363 N 
HETATM   12  C10 UNL     1      24.453  -1.245  55.315  1.00  0.00     0.090 C 
HETATM   13  C11 UNL     1      23.136  -1.219  55.194  1.00  0.00     0.035 C 
HETATM   14  C12 UNL     1      22.299  -0.648  54.149  1.00  0.00     0.006 A 
HETATM   15  S1  UNL     1      20.807  -1.272  54.396  1.00  0.00    -0.172 SA
HETATM   16  C13 UNL     1      19.571  -0.692  53.191  1.00  0.00     0.036 A 
HETATM   17  C14 UNL     1      20.073   0.147  52.299  1.00  0.00     0.007 A 
HETATM   18  C15 UNL     1      21.439   0.586  52.242  1.00  0.00     0.015 A 
HETATM   19  C16 UNL     1      22.453   0.279  53.013  1.00  0.00     0.010 A 
HETATM   20  H7  UNL     1      26.456  -1.335  54.801  1.00  0.00     0.165 HD
HETATM   21  H10 UNL     1      20.465  -1.800  55.657  1.00  0.00     0.100 HD
ENDROOT
BRANCH   1  22
HETATM   22  O1  UNL     1      27.940  -0.355  54.563  1.00  0.00    -0.354 OA
HETATM   23  C1  UNL     1      29.296  -0.581  54.233  1.00  0.00     0.210 C 
ENDBRANCH   1  22
TORSDOF 1
ENDMDL
MODEL 2
REMARK VINA RESULT:      -8.1      2.897      6.511
REMARK  1 active torsions:
REMARK  status: ('A' for Active; 'I' for Inactive)
REMARK    1  A    between atoms: O1_2  and  C2_3 
ROOT
HETATM    1  C2  UNL     1      20.194   0.486  51.599  1.00  0.00     0.096 A 
HETATM    2  C3  UNL     1      19.337  -0.222  52.451  1.00  0.00     0.041 A 
HETATM    3  C4  UNL     1      19.807  -0.870  53.573  1.00  0.00     0.035 A 
HETATM    4  C5  UNL     1      21.163  -0.784  53.813  1.00  0.00     0.073 A 
HETATM    5  N1  UNL     1      21.526  -1.457  54.946  1.00  0.00    -0.241 NA
HETATM    6  C6  UNL     1      22.794  -1.497  55.354  1.00  0.00     0.234 A 
HETATM    7  N2  UNL     1      23.706  -0.850  54.612  1.00  0.00    -0.240 NA
HETATM    8  C7  UNL     1      23.386  -0.179  53.495  1.00  0.00     0.084 A 
HETATM    9  C8  UNL     1      22.085  -0.111  53.035  1.00  0.00     0.052 A 
HETATM   10  C9  UNL     1      21.559   0.525  51.915  1.00  0.00     0.080 A 
HETATM   11  N3  UNL     1      22.048   1.328  50.819  1.00  0.00    -0.363 N 
HETATM   12  C10 UNL     1      23.243   2.101  50.617  1.00  0.00     0.090 C 
HETATM   13  C11 UNL     1      24.479   2.130  51.084  1.00  0.00     0.035 C 
HETATM   14  C12 UNL     1      25.128   1.289  52.081  1.00  0.00     0.006 A 
HETATM   15  S1  UNL     1      26.729   1.591  51.931  1.00  0.00    -0.172 SA
HETATM   16  C13 UNL     1      27.757   0.640  53.093  1.00  0.00     0.036 A 
HETATM   17  C14 UNL     1      27.048  -0.152  53.882  1.00  0.00     0.007 A 
HETATM   18  C15 UNL     1      25.619  -0.284  53.865  1.00  0.00     0.015 A 
HETATM   19  C16 UNL     1      24.729   0.312  53.108  1.00  0.00     0.010 A 
HETATM   20  H7  UNL     1      21.412   1.365  49.992  1.00  0.00     0.165 HD
HETATM   21  H10 UNL     1      27.166   2.779  51.309  1.00  0.00     0.100 HD
ENDROOT
BRANCH   1  22
HETATM   22  O1  UNL     1      19.699   1.131  50.474  1.00  0.00    -0.354 OA
HETATM   23  C1  UNL     1      18.301   1.108  50.267  1.00  0.00     0.210 C 
ENDBRANCH   1  22
TORSDOF 1
ENDMDL
MODEL 3
REMARK VINA RESULT:      -7.9      3.022      6.177
REMARK  1 active torsions:
REMARK  status: ('A' for Active; 'I' for Inactive)
REMARK    1  A    between atoms: O1_2  and  C2_3 
ROOT
HETATM    1  C2  UNL     1      20.517  -0.453  53.323  1.00  0.00     0.096 A 
HETATM    2  C3  UNL     1      20.828  -1.315  54.382  1.00  0.00     0.041 A 
HETATM    3  C4  UNL     1      22.120  -1.463  54.836  1.00  0.00     0.035 A 
HETATM    4  C5  UNL     1      23.090  -0.720  54.195  1.00  0.00     0.073 A 
HETATM    5  N1  UNL     1      24.333  -0.939  54.719  1.00  0.00    -0.241 NA
HETATM    6  C6  UNL     1      25.409  -0.316  54.240  1.00  0.00     0.234 A 
HETATM    7  N2  UNL     1      25.228   0.538  53.220  1.00  0.00    -0.240 NA
HETATM    8  C7  UNL     1      24.023   0.778  52.680  1.00  0.00     0.084 A 
HETATM    9  C8  UNL     1      22.882   0.154  53.146  1.00  0.00     0.052 A 
HETATM   10  C9  UNL     1      21.560   0.268  52.727  1.00  0.00     0.080 A 
HETATM   11  N3  UNL     1      20.820   1.000  51.725  1.00  0.00    -0.363 N 
HETATM   12  C10 UNL     1      21.095   2.188  50.966  1.00  0.00     0.090 C 
HETATM   13  C11 UNL     1      22.156   2.867  50.562  1.00  0.00     0.035 C 
HETATM   14  C12 UNL     1      23.574   2.611  50.776  1.00  0.00     0.006 A 
HETATM   15  S1  UNL     1      24.357   3.587  49.722  1.00  0.00    -0.172 SA
HETATM   16  C13 UNL     1      26.169   3.439  49.808  1.00  0.00     0.036 A 
HETATM   17  C14 UNL     1      26.575   2.561  50.713  1.00  0.00     0.007 A 
HETATM   18  C15 UNL     1      25.718   1.783  51.562  1.00  0.00     0.015 A 
HETATM   19  C16 UNL     1      24.409   1.757  51.639  1.00  0.00     0.010 A 
HETATM   20  H7  UNL     1      19.888   0.592  51.493  1.00  0.00     0.165 HD
HETATM   21  H10 UNL     1      23.700   4.712  49.184  1.00  0.00     0.100 HD
ENDROOT
BRANCH   1  22
HETATM   22  O1  UNL     1      19.207  -0.318  52.882  1.00  0.00    -0.354 OA
HETATM   23  C1  UNL     1      18.280  -1.313  53.267  1.00  0.00     0.210 C 
ENDBRANCH   1  22
TORSDOF 1
ENDMDL
MODEL 4
REMARK VINA RESULT:      -7.8      2.741      5.522
REMARK  1 active torsions:
REMARK  status: ('A' for Active; 'I' for Inactive)
REMARK    1  A    between atoms: O1_2  and  C2_3 
ROOT
HETATM    1  C2  UNL     1      22.244   1.387  51.005  1.00  0.00     0.096 A 
HETATM    2  C3  UNL     1      22.088   2.210  49.882  1.00  0.00     0.041 A 
HETATM    3  C4  UNL     1      23.133   2.959  49.386  1.00  0.00     0.035 A 
HETATM    4  C5  UNL     1      24.337   2.857  50.051  1.00  0.00     0.073 A 
HETATM    5  N1  UNL     1      25.305   3.637  49.481  1.00  0.00    -0.241 NA
HETATM    6  C6  UNL     1      26.542   3.680  49.974  1.00  0.00     0.234 A 
HETATM    7  N2  UNL     1      26.806   2.928  51.054  1.00  0.00    -0.240 NA
HETATM    8  C7  UNL     1      25.882   2.151  51.639  1.00  0.00     0.084 A 
HETATM    9  C8  UNL     1      24.588   2.076  51.161  1.00  0.00     0.052 A 
HETATM   10  C9  UNL     1      23.501   1.339  51.622  1.00  0.00     0.080 A 
HETATM   11  N3  UNL     1      23.222   0.407  52.690  1.00  0.00    -0.363 N 
HETATM   12  C10 UNL     1      24.052  -0.421  53.520  1.00  0.00     0.090 C 
HETATM   13  C11 UNL     1      25.306  -0.439  53.941  1.00  0.00     0.035 C 
HETATM   14  C12 UNL     1      26.401   0.484  53.674  1.00  0.00     0.006 A 
HETATM   15  S1  UNL     1      27.558   0.117  54.771  1.00  0.00    -0.172 SA
HETATM   16  C13 UNL     1      29.046   1.155  54.629  1.00  0.00     0.036 A 
HETATM   17  C14 UNL     1      28.961   2.050  53.657  1.00  0.00     0.007 A 
HETATM   18  C15 UNL     1      27.839   2.224  52.779  1.00  0.00     0.015 A 
HETATM   19  C16 UNL     1      26.699   1.579  52.734  1.00  0.00     0.010 A 
HETATM   20  H7  UNL     1      22.209   0.302  52.917  1.00  0.00     0.165 HD
HETATM   21  H10 UNL     1      27.555  -1.144  55.401  1.00  0.00     0.100 HD
ENDROOT
BRANCH   1  22
HETATM   22  O1  UNL     1      21.178   0.640  51.488  1.00  0.00    -0.354 OA
HETATM   23  C1  UNL     1      19.902   1.248  51.496  1.00  0.00     0.210 C 
ENDBRANCH   1  22
TORSDOF 1
ENDMDL
MODEL 5
REMARK VINA RESULT:      -7.8      2.451      4.261
REMARK  1 active torsions:
REMARK  status: ('A' for Active; 'I' for Inactive)
REMARK    1  A    between atoms: O1_2  and  C2_3 
ROOT
HETATM    1  C2  UNL     1      27.313   1.524  53.212  1.00  0.00     0.096 A 
HETATM    2  C3  UNL     1      27.169   0.511  54.169  1.00  0.00     0.041 A 
HETATM    3  C4  UNL     1      25.981  -0.170  54.326  1.00  0.00     0.035 A 
HETATM    4  C5  UNL     1      24.944   0.197  53.493  1.00  0.00     0.073 A 
HETATM    5  N1  UNL     1      23.814  -0.535  53.728  1.00  0.00    -0.241 NA
HETATM    6  C6  UNL     1      22.698  -0.336  53.029  1.00  0.00     0.234 A 
HETATM    7  N2  UNL     1      22.721   0.614  52.081  1.00  0.00    -0.240 NA
HETATM    8  C7  UNL     1      23.812   1.352  51.821  1.00  0.00     0.084 A 
HETATM    9  C8  UNL     1      24.990   1.179  52.522  1.00  0.00     0.052 A 
HETATM   10  C9  UNL     1      26.211   1.834  52.404  1.00  0.00     0.080 A 
HETATM   11  N3  UNL     1      26.780   2.887  51.595  1.00  0.00    -0.363 N 
HETATM   12  C10 UNL     1      26.423   3.462  50.327  1.00  0.00     0.090 C 
HETATM   13  C11 UNL     1      25.338   3.584  49.581  1.00  0.00     0.035 C 
HETATM   14  C12 UNL     1      23.977   3.124  49.816  1.00  0.00     0.006 A 
HETATM   15  S1  UNL     1      23.055   3.908  48.715  1.00  0.00    -0.172 SA
HETATM   16  C13 UNL     1      21.287   3.486  48.819  1.00  0.00     0.036 A 
HETATM   17  C14 UNL     1      21.020   2.607  49.773  1.00  0.00     0.007 A 
HETATM   18  C15 UNL     1      21.985   2.019  50.659  1.00  0.00     0.015 A 
HETATM   19  C16 UNL     1      23.281   2.201  50.730  1.00  0.00     0.010 A 
HETATM   20  H7  UNL     1      27.631   3.334  52.003  1.00  0.00     0.165 HD
HETATM   21  H10 UNL     1      23.650   4.455  47.560  1.00  0.00     0.100 HD
ENDROOT
BRANCH   1  22
HETATM   22  O1  UNL     1      28.519   2.196  53.070  1.00  0.00    -0.354 OA
HETATM   23  C1  UNL     1      29.403   2.198  54.174  1.00  0.00     0.210 C 
ENDBRANCH   1  22
TORSDOF 1
ENDMDL
MODEL 6
REMARK VINA RESULT:      -7.7      1.978      3.848
REMARK  1 active torsions:
REMARK  status: ('A' for Active; 'I' for Inactive)
REMARK    1  A    between atoms: O1_2  and  C2_3 
ROOT
HETATM    1  C2  UNL     1      25.757   2.778  51.128  1.00  0.00     0.096 A 
HETATM    2  C3  UNL     1      26.991   2.482  51.722  1.00  0.00     0.041 A 
HETATM    3  C4  UNL     1      27.109   1.512  52.694  1.00  0.00     0.035 A 
HETATM    4  C5  UNL     1      25.952   0.851  53.052  1.00  0.00     0.073 A 
HETATM    5  N1  UNL     1      26.176  -0.086  54.021  1.00  0.00    -0.241 NA
HETATM    6  C6  UNL     1      25.187  -0.835  54.505  1.00  0.00     0.234 A 
HETATM    7  N2  UNL     1      23.956  -0.636  54.007  1.00  0.00    -0.240 NA
HETATM    8  C7  UNL     1      23.698   0.275  53.056  1.00  0.00     0.084 A 
HETATM    9  C8  UNL     1      24.694   1.072  52.525  1.00  0.00     0.052 A 
HETATM   10  C9  UNL     1      24.629   2.059  51.547  1.00  0.00     0.080 A 
HETATM   11  N3  UNL     1      23.620   2.663  50.709  1.00  0.00    -0.363 N 
HETATM   12  C10 UNL     1      22.310   2.249  50.285  1.00  0.00     0.090 C 
HETATM   13  C11 UNL     1      21.358   1.436  50.709  1.00  0.00     0.035 C 
HETATM   14  C12 UNL     1      21.305   0.582  51.888  1.00  0.00     0.006 A 
HETATM   15  S1  UNL     1      19.738   0.135  52.033  1.00  0.00    -0.172 SA
HETATM   16  C13 UNL     1      19.424  -0.953  53.458  1.00  0.00     0.036 A 
HETATM   17  C14 UNL     1      20.516  -1.214  54.160  1.00  0.00     0.007 A 
HETATM   18  C15 UNL     1      21.832  -0.718  53.870  1.00  0.00     0.015 A 
HETATM   19  C16 UNL     1      22.241   0.065  52.902  1.00  0.00     0.010 A 
HETATM   20  H7  UNL     1      23.881   3.596  50.321  1.00  0.00     0.165 HD
HETATM   21  H10 UNL     1      18.878   0.212  50.918  1.00  0.00     0.100 HD
ENDROOT
BRANCH   1  22
HETATM   22  O1  UNL     1      25.660   3.758  50.149  1.00  0.00    -0.354 OA
HETATM   23  C1  UNL     1      26.793   3.982  49.332  1.00  0.00     0.210 C 
ENDBRANCH   1  22
TORSDOF 1
ENDMDL
MODEL 7
REMARK VINA RESULT:      -7.6      3.011      6.079
REMARK  1 active torsions:
REMARK  status: ('A' for Active; 'I' for Inactive)
REMARK    1  A    between atoms: O1_2  and  C2_3 
ROOT
HETATM    1  C2  UNL     1      18.623  -0.246  52.337  1.00  0.00     0.096 A 
HETATM    2  C3  UNL     1      18.112   0.325  51.164  1.00  0.00     0.041 A 
HETATM    3  C4  UNL     1      18.928   0.975  50.264  1.00  0.00     0.035 A 
HETATM    4  C5  UNL     1      20.271   1.035  50.577  1.00  0.00     0.073 A 
HETATM    5  N1  UNL     1      20.990   1.699  49.623  1.00  0.00    -0.241 NA
HETATM    6  C6  UNL     1      22.307   1.866  49.737  1.00  0.00     0.234 A 
HETATM    7  N2  UNL     1      22.905   1.358  50.825  1.00  0.00    -0.240 NA
HETATM    8  C7  UNL     1      22.232   0.700  51.782  1.00  0.00     0.084 A 
HETATM    9  C8  UNL     1      20.866   0.504  51.704  1.00  0.00     0.052 A 
HETATM   10  C9  UNL     1      20.000  -0.143  52.579  1.00  0.00     0.080 A 
HETATM   11  N3  UNL     1      20.086  -0.840  53.842  1.00  0.00    -0.363 N 
HETATM   12  C10 UNL     1      21.167  -1.463  54.554  1.00  0.00     0.090 C 
HETATM   13  C11 UNL     1      22.485  -1.370  54.608  1.00  0.00     0.035 C 
HETATM   14  C12 UNL     1      23.397  -0.502  53.876  1.00  0.00     0.006 A 
HETATM   15  S1  UNL     1      24.829  -0.613  54.660  1.00  0.00    -0.172 SA
HETATM   16  C13 UNL     1      26.143   0.402  53.914  1.00  0.00     0.036 A 
HETATM   17  C14 UNL     1      25.736   1.075  52.850  1.00  0.00     0.007 A 
HETATM   18  C15 UNL     1      24.410   1.044  52.300  1.00  0.00     0.015 A 
HETATM   19  C16 UNL     1      23.351   0.382  52.697  1.00  0.00     0.010 A 
HETATM   20  H7  UNL     1      19.181  -0.915  54.356  1.00  0.00     0.165 HD
HETATM   21  H10 UNL     1      25.088  -1.717  55.497  1.00  0.00     0.100 HD
ENDROOT
BRANCH   1  22
HETATM   22  O1  UNL     1      17.784  -0.898  53.230  1.00  0.00    -0.354 OA
HETATM   23  C1  UNL     1      16.599  -1.473  52.716  1.00  0.00     0.210 C 
ENDBRANCH   1  22
TORSDOF 1
ENDMDL
MODEL 8
REMARK VINA RESULT:      -7.5      2.489      4.230
REMARK  1 active torsions:
REMARK  status: ('A' for Active; 'I' for Inactive)
REMARK    1  A    between atoms: O1_2  and  C2_3 
ROOT
HETATM    1  C2  UNL     1      25.879   3.844  49.724  1.00  0.00     0.096 A 
HETATM    2  C3  UNL     1      24.985   4.714  49.088  1.00  0.00     0.041 A 
HETATM    3  C4  UNL     1      23.640   4.712  49.388  1.00  0.00     0.035 A 
HETATM    4  C5  UNL     1      23.221   3.810  50.345  1.00  0.00     0.073 A 
HETATM    5  N1  UNL     1      21.875   3.887  50.568  1.00  0.00    -0.241 NA
HETATM    6  C6  UNL     1      21.271   3.099  51.456  1.00  0.00     0.234 A 
HETATM    7  N2  UNL     1      22.034   2.222  52.128  1.00  0.00    -0.240 NA
HETATM    8  C7  UNL     1      23.358   2.118  51.935  1.00  0.00     0.084 A 
HETATM    9  C8  UNL     1      24.024   2.915  51.025  1.00  0.00     0.052 A 
HETATM   10  C9  UNL     1      25.373   2.959  50.686  1.00  0.00     0.080 A 
HETATM   11  N3  UNL     1      26.590   2.280  51.069  1.00  0.00    -0.363 N 
HETATM   12  C10 UNL     1      26.971   1.510  52.220  1.00  0.00     0.090 C 
HETATM   13  C11 UNL     1      26.373   0.800  53.163  1.00  0.00     0.035 C 
HETATM   14  C12 UNL     1      24.959   0.526  53.381  1.00  0.00     0.006 A 
HETATM   15  S1  UNL     1      24.914  -0.696  54.467  1.00  0.00    -0.172 SA
HETATM   16  C13 UNL     1      23.225  -1.218  54.900  1.00  0.00     0.036 A 
HETATM   17  C14 UNL     1      22.291  -0.525  54.267  1.00  0.00     0.007 A 
HETATM   18  C15 UNL     1      22.531   0.535  53.329  1.00  0.00     0.015 A 
HETATM   19  C16 UNL     1      23.664   1.038  52.901  1.00  0.00     0.010 A 
HETATM   20  H7  UNL     1      27.364   2.356  50.373  1.00  0.00     0.165 HD
HETATM   21  H10 UNL     1      26.034  -0.953  55.284  1.00  0.00     0.100 HD
ENDROOT
BRANCH   1  22
HETATM   22  O1  UNL     1      27.231   3.864  49.408  1.00  0.00    -0.354 OA
HETATM   23  C1  UNL     1      27.702   4.932  48.610  1.00  0.00     0.210 C 
ENDBRANCH   1  22
TORSDOF 1
ENDMDL
MODEL 9
REMARK VINA RESULT:      -7.5      2.077      3.970
REMARK  1 active torsions:
REMARK  status: ('A' for Active; 'I' for Inactive)
REMARK    1  A    between atoms: O1_2  and  C2_3 
ROOT
HETATM    1  C2  UNL     1      25.503   0.702  53.702  1.00  0.00     0.096 A 
HETATM    2  C3  UNL     1      25.673  -0.158  54.795  1.00  0.00     0.041 A 
HETATM    3  C4  UNL     1      24.647  -0.961  55.246  1.00  0.00     0.035 A 
HETATM    4  C5  UNL     1      23.449  -0.873  54.568  1.00  0.00     0.073 A 
HETATM    5  N1  UNL     1      22.501  -1.706  55.093  1.00  0.00    -0.241 NA
HETATM    6  C6  UNL     1      21.273  -1.772  54.581  1.00  0.00     0.234 A 
HETATM    7  N2  UNL     1      20.997  -0.988  53.527  1.00  0.00    -0.240 NA
HETATM    8  C7  UNL     1      21.902  -0.158  52.985  1.00  0.00     0.084 A 
HETATM    9  C8  UNL     1      23.187  -0.059  53.484  1.00  0.00     0.052 A 
HETATM   10  C9  UNL     1      24.254   0.730  53.067  1.00  0.00     0.080 A 
HETATM   11  N3  UNL     1      24.516   1.711  52.039  1.00  0.00    -0.363 N 
HETATM   12  C10 UNL     1      23.880   2.026  50.790  1.00  0.00     0.090 C 
HETATM   13  C11 UNL     1      22.688   1.882  50.236  1.00  0.00     0.035 C 
HETATM   14  C12 UNL     1      21.470   1.284  50.766  1.00  0.00     0.006 A 
HETATM   15  S1  UNL     1      20.276   1.753  49.752  1.00  0.00    -0.172 SA
HETATM   16  C13 UNL     1      18.636   1.116  50.220  1.00  0.00     0.036 A 
HETATM   17  C14 UNL     1      18.664   0.370  51.313  1.00  0.00     0.007 A 
HETATM   18  C15 UNL     1      19.835   0.064  52.084  1.00  0.00     0.015 A 
HETATM   19  C16 UNL     1      21.081   0.429  51.902  1.00  0.00     0.010 A 
HETATM   20  H7  UNL     1      25.337   2.327  52.229  1.00  0.00     0.165 HD
HETATM   21  H10 UNL     1      20.591   2.188  48.448  1.00  0.00     0.100 HD
ENDROOT
BRANCH   1  22
HETATM   22  O1  UNL     1      26.550   1.502  53.263  1.00  0.00    -0.354 OA
HETATM   23  C1  UNL     1      27.854   0.957  53.307  1.00  0.00     0.210 C 
ENDBRANCH   1  22
TORSDOF 1
ENDMDL
