MODEL 1
REMARK VINA RESULT:      -6.6      0.000      0.000
REMARK  3 active torsions:
REMARK  status: ('A' for Active; 'I' for Inactive)
REMARK    1  A    between atoms: C2_3  and  O1_4 
REMARK    2  A    between atoms: O1_4  and  C3_5 
REMARK    3  A    between atoms: C3_5  and  C4_6 
ROOT
HETATM    1  N1  UNL     1      28.251   0.904  54.950  1.00  0.00    -0.195 NA
HETATM    2  C1  UNL     1      27.898   0.198  54.113  1.00  0.00     0.085 C 
HETATM    3  C2  UNL     1      27.441  -0.693  53.051  1.00  0.00     0.291 C 
ENDROOT
BRANCH   3   4
HETATM    4  O1  UNL     1      26.095  -0.463  52.793  1.00  0.00    -0.376 OA
BRANCH   4   5
HETATM    5  C3  UNL     1      26.012   0.726  52.087  1.00  0.00     0.182 C 
BRANCH   5   6
HETATM    6  C4  UNL     1      24.896   1.565  52.565  1.00  0.00     0.066 C 
HETATM    7  C5  UNL     1      23.829   0.734  53.229  1.00  0.00     0.001 C 
HETATM    8  C6  UNL     1      22.531   0.664  52.833  1.00  0.00    -0.000 C 
HETATM    9  C7  UNL     1      21.936  -0.478  53.578  1.00  0.00     0.194 C 
HETATM   10  S1  UNL     1      21.596   1.636  51.694  1.00  0.00    -0.107 SA
HETATM   11  N2  UNL     1      20.522  -0.541  53.597  1.00  0.00    -0.296 NA
HETATM   12  C8  UNL     1      19.845   0.017  52.656  1.00  0.00     0.118 C 
HETATM   13  C9  UNL     1      20.258   0.772  51.459  1.00  0.00     0.070 C 
HETATM   14  N3  UNL     1      21.132   2.977  52.285  1.00  0.00    -0.267 NA
HETATM   15  C15 UNL     1      22.404   1.765  50.138  1.00  0.00     0.112 C 
HETATM   16  C10 UNL     1      21.495   4.384  52.176  1.00  0.00     0.184 C 
HETATM   17  C11 UNL     1      22.950   4.420  52.596  1.00  0.00    -0.004 C 
HETATM   18  C12 UNL     1      24.001   3.585  52.412  1.00  0.00     0.005 C 
HETATM   19  C13 UNL     1      24.204   2.410  51.514  1.00  0.00    -0.052 C 
HETATM   20  C14 UNL     1      23.838   2.212  50.257  1.00  0.00    -0.008 C 
ENDBRANCH   5   6
ENDBRANCH   4   5
ENDBRANCH   3   4
TORSDOF 3
ENDMDL
MODEL 2
REMARK VINA RESULT:      -6.3      2.615      4.486
REMARK  3 active torsions:
REMARK  status: ('A' for Active; 'I' for Inactive)
REMARK    1  A    between atoms: C2_3  and  O1_4 
REMARK    2  A    between atoms: O1_4  and  C3_5 
REMARK    3  A    between atoms: C3_5  and  C4_6 
ROOT
HETATM    1  N1  UNL     1      30.023  -0.261  53.694  1.00  0.00    -0.195 NA
HETATM    2  C1  UNL     1      28.939  -0.493  53.388  1.00  0.00     0.085 C 
HETATM    3  C2  UNL     1      27.559  -0.780  53.004  1.00  0.00     0.291 C 
ENDROOT
BRANCH   3   4
HETATM    4  O1  UNL     1      26.705   0.131  53.612  1.00  0.00    -0.376 OA
BRANCH   4   5
HETATM    5  C3  UNL     1      26.867   1.342  52.957  1.00  0.00     0.182 C 
BRANCH   5   6
HETATM    6  C4  UNL     1      25.836   1.539  51.919  1.00  0.00     0.066 C 
HETATM    7  C5  UNL     1      26.340   2.419  50.804  1.00  0.00     0.001 C 
HETATM    8  C6  UNL     1      25.783   3.598  50.425  1.00  0.00    -0.000 C 
HETATM    9  C7  UNL     1      26.765   4.241  49.511  1.00  0.00     0.194 C 
HETATM   10  S1  UNL     1      24.242   4.356  50.834  1.00  0.00    -0.107 SA
HETATM   11  N2  UNL     1      26.277   5.309  48.721  1.00  0.00    -0.296 NA
HETATM   12  C8  UNL     1      25.255   5.982  49.119  1.00  0.00     0.118 C 
HETATM   13  C9  UNL     1      24.410   5.873  50.323  1.00  0.00     0.070 C 
HETATM   14  N3  UNL     1      23.057   3.775  50.045  1.00  0.00    -0.267 NA
HETATM   15  C15 UNL     1      23.996   4.425  52.573  1.00  0.00     0.112 C 
HETATM   16  C10 UNL     1      21.934   2.880  50.292  1.00  0.00     0.184 C 
HETATM   17  C11 UNL     1      22.589   1.588  50.738  1.00  0.00    -0.004 C 
HETATM   18  C12 UNL     1      23.676   1.299  51.495  1.00  0.00     0.005 C 
HETATM   19  C13 UNL     1      24.525   2.136  52.392  1.00  0.00    -0.052 C 
HETATM   20  C14 UNL     1      24.196   3.092  53.248  1.00  0.00    -0.008 C 
ENDBRANCH   5   6
ENDBRANCH   4   5
ENDBRANCH   3   4
TORSDOF 3
ENDMDL
MODEL 3
REMARK VINA RESULT:      -6.2      2.061      2.741
REMARK  3 active torsions:
REMARK  status: ('A' for Active; 'I' for Inactive)
REMARK    1  A    between atoms: C2_3  and  O1_4 
REMARK    2  A    between atoms: O1_4  and  C3_5 
REMARK    3  A    between atoms: C3_5  and  C4_6 
ROOT
HETATM    1  N1  UNL     1      28.763   0.507  55.100  1.00  0.00    -0.195 NA
HETATM    2  C1  UNL     1      27.847   0.180  54.484  1.00  0.00     0.085 C 
HETATM    3  C2  UNL     1      26.681  -0.225  53.706  1.00  0.00     0.291 C 
ENDROOT
BRANCH   3   4
HETATM    4  O1  UNL     1      25.736   0.792  53.714  1.00  0.00    -0.376 OA
BRANCH   4   5
HETATM    5  C3  UNL     1      24.800   0.488  52.737  1.00  0.00     0.182 C 
BRANCH   5   6
HETATM    6  C4  UNL     1      23.876   1.614  52.501  1.00  0.00     0.066 C 
HETATM    7  C5  UNL     1      22.740   1.213  51.596  1.00  0.00     0.001 C 
HETATM    8  C6  UNL     1      22.449   1.791  50.402  1.00  0.00    -0.000 C 
HETATM    9  C7  UNL     1      21.459   0.896  49.744  1.00  0.00     0.194 C 
HETATM   10  S1  UNL     1      23.029   3.274  49.641  1.00  0.00    -0.107 SA
HETATM   11  N2  UNL     1      20.750   1.448  48.649  1.00  0.00    -0.296 NA
HETATM   12  C8  UNL     1      21.265   2.417  47.978  1.00  0.00     0.118 C 
HETATM   13  C9  UNL     1      22.544   3.139  48.113  1.00  0.00     0.070 C 
HETATM   14  N3  UNL     1      22.347   4.538  50.189  1.00  0.00    -0.267 NA
HETATM   15  C15 UNL     1      24.785   3.346  49.618  1.00  0.00     0.112 C 
HETATM   16  C10 UNL     1      22.681   5.642  51.080  1.00  0.00     0.184 C 
HETATM   17  C11 UNL     1      23.026   4.962  52.390  1.00  0.00    -0.004 C 
HETATM   18  C12 UNL     1      23.662   3.808  52.709  1.00  0.00     0.005 C 
HETATM   19  C13 UNL     1      24.492   2.864  51.905  1.00  0.00    -0.052 C 
HETATM   20  C14 UNL     1      25.401   3.095  50.970  1.00  0.00    -0.008 C 
ENDBRANCH   5   6
ENDBRANCH   4   5
ENDBRANCH   3   4
TORSDOF 3
ENDMDL
MODEL 4
REMARK VINA RESULT:      -6.1      2.507      3.325
REMARK  3 active torsions:
REMARK  status: ('A' for Active; 'I' for Inactive)
REMARK    1  A    between atoms: C2_3  and  O1_4 
REMARK    2  A    between atoms: O1_4  and  C3_5 
REMARK    3  A    between atoms: C3_5  and  C4_6 
ROOT
HETATM    1  N1  UNL     1      26.192   6.406  48.820  1.00  0.00    -0.195 NA
HETATM    2  C1  UNL     1      26.543   5.318  48.954  1.00  0.00     0.085 C 
HETATM    3  C2  UNL     1      26.988   3.940  49.136  1.00  0.00     0.291 C 
ENDROOT
BRANCH   3   4
HETATM    4  O1  UNL     1      27.068   3.648  50.491  1.00  0.00    -0.376 OA
BRANCH   4   5
HETATM    5  C3  UNL     1      26.286   2.525  50.714  1.00  0.00     0.182 C 
BRANCH   5   6
HETATM    6  C4  UNL     1      25.097   2.845  51.527  1.00  0.00     0.066 C 
HETATM    7  C5  UNL     1      24.805   1.756  52.526  1.00  0.00     0.001 C 
HETATM    8  C6  UNL     1      23.650   1.044  52.594  1.00  0.00    -0.000 C 
HETATM    9  C7  UNL     1      23.922  -0.091  53.515  1.00  0.00     0.194 C 
HETATM   10  S1  UNL     1      22.079   1.276  51.822  1.00  0.00    -0.107 SA
HETATM   11  N2  UNL     1      22.787  -0.777  54.012  1.00  0.00    -0.296 NA
HETATM   12  C8  UNL     1      21.686  -0.758  53.346  1.00  0.00     0.118 C 
HETATM   13  C9  UNL     1      21.320  -0.122  52.067  1.00  0.00     0.070 C 
HETATM   14  N3  UNL     1      21.221   2.348  52.511  1.00  0.00    -0.267 NA
HETATM   15  C15 UNL     1      22.237   1.475  50.082  1.00  0.00     0.112 C 
HETATM   16  C10 UNL     1      20.812   3.724  52.262  1.00  0.00     0.184 C 
HETATM   17  C11 UNL     1      22.121   4.482  52.165  1.00  0.00    -0.004 C 
HETATM   18  C12 UNL     1      23.340   4.188  51.650  1.00  0.00     0.005 C 
HETATM   19  C13 UNL     1      23.814   3.091  50.757  1.00  0.00    -0.052 C 
HETATM   20  C14 UNL     1      23.244   2.530  49.701  1.00  0.00    -0.008 C 
ENDBRANCH   5   6
ENDBRANCH   4   5
ENDBRANCH   3   4
TORSDOF 3
ENDMDL
MODEL 5
REMARK VINA RESULT:      -5.9      2.402      4.277
REMARK  3 active torsions:
REMARK  status: ('A' for Active; 'I' for Inactive)
REMARK    1  A    between atoms: C2_3  and  O1_4 
REMARK    2  A    between atoms: O1_4  and  C3_5 
REMARK    3  A    between atoms: C3_5  and  C4_6 
ROOT
HETATM    1  N1  UNL     1      26.944   0.869  54.960  1.00  0.00    -0.195 NA
HETATM    2  C1  UNL     1      26.214   0.252  54.318  1.00  0.00     0.085 C 
HETATM    3  C2  UNL     1      25.282  -0.526  53.507  1.00  0.00     0.291 C 
ENDROOT
BRANCH   3   4
HETATM    4  O1  UNL     1      24.012   0.031  53.591  1.00  0.00    -0.376 OA
BRANCH   4   5
HETATM    5  C3  UNL     1      24.099   1.322  53.093  1.00  0.00     0.182 C 
BRANCH   5   6
HETATM    6  C4  UNL     1      23.577   1.410  51.716  1.00  0.00     0.066 C 
HETATM    7  C5  UNL     1      24.375   2.382  50.886  1.00  0.00     0.001 C 
HETATM    8  C6  UNL     1      23.873   3.486  50.275  1.00  0.00    -0.000 C 
HETATM    9  C7  UNL     1      25.050   4.281  49.833  1.00  0.00     0.194 C 
HETATM   10  S1  UNL     1      22.215   4.018  49.984  1.00  0.00    -0.107 SA
HETATM   11  N2  UNL     1      24.796   5.297  48.880  1.00  0.00    -0.296 NA
HETATM   12  C8  UNL     1      23.621   5.815  48.798  1.00  0.00     0.118 C 
HETATM   13  C9  UNL     1      22.375   5.558  49.546  1.00  0.00     0.070 C 
HETATM   14  N3  UNL     1      21.554   3.308  48.793  1.00  0.00    -0.267 NA
HETATM   15  C15 UNL     1      21.262   4.003  51.462  1.00  0.00     0.112 C 
HETATM   16  C10 UNL     1      20.562   2.263  48.577  1.00  0.00     0.184 C 
HETATM   17  C11 UNL     1      21.138   1.058  49.293  1.00  0.00    -0.004 C 
HETATM   18  C12 UNL     1      21.841   0.895  50.440  1.00  0.00     0.005 C 
HETATM   19  C13 UNL     1      22.120   1.812  51.584  1.00  0.00    -0.052 C 
HETATM   20  C14 UNL     1      21.341   2.689  52.198  1.00  0.00    -0.008 C 
ENDBRANCH   5   6
ENDBRANCH   4   5
ENDBRANCH   3   4
TORSDOF 3
ENDMDL
MODEL 6
REMARK VINA RESULT:      -5.8      2.257      5.373
REMARK  3 active torsions:
REMARK  status: ('A' for Active; 'I' for Inactive)
REMARK    1  A    between atoms: C2_3  and  O1_4 
REMARK    2  A    between atoms: O1_4  and  C3_5 
REMARK    3  A    between atoms: C3_5  and  C4_6 
ROOT
HETATM    1  N1  UNL     1      18.130  -1.022  52.871  1.00  0.00    -0.195 NA
HETATM    2  C1  UNL     1      19.105  -0.571  53.284  1.00  0.00     0.085 C 
HETATM    3  C2  UNL     1      20.347  -0.001  53.798  1.00  0.00     0.291 C 
ENDROOT
BRANCH   3   4
HETATM    4  O1  UNL     1      21.351  -0.129  52.847  1.00  0.00    -0.376 OA
BRANCH   4   5
HETATM    5  C3  UNL     1      21.350   1.034  52.093  1.00  0.00     0.182 C 
BRANCH   5   6
HETATM    6  C4  UNL     1      22.655   1.261  51.443  1.00  0.00     0.066 C 
HETATM    7  C5  UNL     1      23.702   0.313  51.966  1.00  0.00     0.001 C 
HETATM    8  C6  UNL     1      24.860   0.681  52.573  1.00  0.00    -0.000 C 
HETATM    9  C7  UNL     1      25.422  -0.559  53.172  1.00  0.00     0.194 C 
HETATM   10  S1  UNL     1      25.666   2.245  52.716  1.00  0.00    -0.107 SA
HETATM   11  N2  UNL     1      26.782  -0.503  53.562  1.00  0.00    -0.296 NA
HETATM   12  C8  UNL     1      27.319   0.631  53.847  1.00  0.00     0.118 C 
HETATM   13  C9  UNL     1      26.777   2.004  53.855  1.00  0.00     0.070 C 
HETATM   14  N3  UNL     1      26.441   2.643  51.450  1.00  0.00    -0.267 NA
HETATM   15  C15 UNL     1      24.573   3.483  53.321  1.00  0.00     0.112 C 
HETATM   16  C10 UNL     1      26.278   3.565  50.334  1.00  0.00     0.184 C 
HETATM   17  C11 UNL     1      24.969   3.145  49.699  1.00  0.00    -0.004 C 
HETATM   18  C12 UNL     1      23.789   2.693  50.191  1.00  0.00     0.005 C 
HETATM   19  C13 UNL     1      23.225   2.660  51.573  1.00  0.00    -0.052 C 
HETATM   20  C14 UNL     1      23.281   3.553  52.549  1.00  0.00    -0.008 C 
ENDBRANCH   5   6
ENDBRANCH   4   5
ENDBRANCH   3   4
TORSDOF 3
ENDMDL
MODEL 7
REMARK VINA RESULT:      -5.8      1.289      1.483
REMARK  3 active torsions:
REMARK  status: ('A' for Active; 'I' for Inactive)
REMARK    1  A    between atoms: C2_3  and  O1_4 
REMARK    2  A    between atoms: O1_4  and  C3_5 
REMARK    3  A    between atoms: C3_5  and  C4_6 
ROOT
HETATM    1  N1  UNL     1      28.458  -0.601  53.217  1.00  0.00    -0.195 NA
HETATM    2  C1  UNL     1      27.314  -0.701  53.303  1.00  0.00     0.085 C 
HETATM    3  C2  UNL     1      25.863  -0.819  53.404  1.00  0.00     0.291 C 
ENDROOT
BRANCH   3   4
HETATM    4  O1  UNL     1      25.257   0.093  52.549  1.00  0.00    -0.376 OA
BRANCH   4   5
HETATM    5  C3  UNL     1      25.482   1.356  53.074  1.00  0.00     0.182 C 
BRANCH   5   6
HETATM    6  C4  UNL     1      24.271   2.197  53.002  1.00  0.00     0.066 C 
HETATM    7  C5  UNL     1      23.020   1.358  52.982  1.00  0.00     0.001 C 
HETATM    8  C6  UNL     1      22.090   1.362  51.992  1.00  0.00    -0.000 C 
HETATM    9  C7  UNL     1      21.210   0.192  52.251  1.00  0.00     0.194 C 
HETATM   10  S1  UNL     1      21.839   2.444  50.620  1.00  0.00    -0.107 SA
HETATM   11  N2  UNL     1      19.973   0.176  51.562  1.00  0.00    -0.296 NA
HETATM   12  C8  UNL     1      19.849   0.823  50.457  1.00  0.00     0.118 C 
HETATM   13  C9  UNL     1      20.799   1.647  49.685  1.00  0.00     0.070 C 
HETATM   14  N3  UNL     1      21.136   3.755  51.007  1.00  0.00    -0.267 NA
HETATM   15  C15 UNL     1      23.311   2.655  49.683  1.00  0.00     0.112 C 
HETATM   16  C10 UNL     1      21.498   5.153  51.203  1.00  0.00     0.184 C 
HETATM   17  C11 UNL     1      22.552   5.109  52.290  1.00  0.00    -0.004 C 
HETATM   18  C12 UNL     1      23.561   4.252  52.586  1.00  0.00     0.005 C 
HETATM   19  C13 UNL     1      24.189   3.138  51.816  1.00  0.00    -0.052 C 
HETATM   20  C14 UNL     1      24.496   3.042  50.532  1.00  0.00    -0.008 C 
ENDBRANCH   5   6
ENDBRANCH   4   5
ENDBRANCH   3   4
TORSDOF 3
ENDMDL
MODEL 8
REMARK VINA RESULT:      -5.8      3.760      6.110
REMARK  3 active torsions:
REMARK  status: ('A' for Active; 'I' for Inactive)
REMARK    1  A    between atoms: C2_3  and  O1_4 
REMARK    2  A    between atoms: O1_4  and  C3_5 
REMARK    3  A    between atoms: C3_5  and  C4_6 
ROOT
HETATM    1  N1  UNL     1      21.210   3.639  44.277  1.00  0.00    -0.195 NA
HETATM    2  C1  UNL     1      21.576   4.381  45.077  1.00  0.00     0.085 C 
HETATM    3  C2  UNL     1      22.038   5.316  46.099  1.00  0.00     0.291 C 
ENDROOT
BRANCH   3   4
HETATM    4  O1  UNL     1      21.841   4.767  47.359  1.00  0.00    -0.376 OA
BRANCH   4   5
HETATM    5  C3  UNL     1      22.858   5.239  48.174  1.00  0.00     0.182 C 
BRANCH   5   6
HETATM    6  C4  UNL     1      23.690   4.139  48.697  1.00  0.00     0.066 C 
HETATM    7  C5  UNL     1      22.878   2.888  48.909  1.00  0.00     0.001 C 
HETATM    8  C6  UNL     1      22.724   2.245  50.096  1.00  0.00    -0.000 C 
HETATM    9  C7  UNL     1      21.627   1.262  49.891  1.00  0.00     0.194 C 
HETATM   10  S1  UNL     1      23.558   2.417  51.642  1.00  0.00    -0.107 SA
HETATM   11  N2  UNL     1      21.511   0.244  50.869  1.00  0.00    -0.296 NA
HETATM   12  C8  UNL     1      21.959   0.446  52.057  1.00  0.00     0.118 C 
HETATM   13  C9  UNL     1      22.626   1.608  52.675  1.00  0.00     0.070 C 
HETATM   14  N3  UNL     1      24.926   1.716  51.671  1.00  0.00    -0.267 NA
HETATM   15  C15 UNL     1      23.586   4.091  52.180  1.00  0.00     0.112 C 
HETATM   16  C10 UNL     1      26.332   2.095  51.616  1.00  0.00     0.184 C 
HETATM   17  C11 UNL     1      26.460   2.831  50.297  1.00  0.00    -0.004 C 
HETATM   18  C12 UNL     1      25.653   3.679  49.613  1.00  0.00     0.005 C 
HETATM   19  C13 UNL     1      24.416   4.417  49.999  1.00  0.00    -0.052 C 
HETATM   20  C14 UNL     1      24.097   5.038  51.124  1.00  0.00    -0.008 C 
ENDBRANCH   5   6
ENDBRANCH   4   5
ENDBRANCH   3   4
TORSDOF 3
ENDMDL
MODEL 9
REMARK VINA RESULT:      -5.6      2.168      2.765
REMARK  3 active torsions:
REMARK  status: ('A' for Active; 'I' for Inactive)
REMARK    1  A    between atoms: C2_3  and  O1_4 
REMARK    2  A    between atoms: O1_4  and  C3_5 
REMARK    3  A    between atoms: C3_5  and  C4_6 
ROOT
HETATM    1  N1  UNL     1      26.868  -1.649  53.217  1.00  0.00    -0.195 NA
HETATM    2  C1  UNL     1      26.524  -0.551  53.166  1.00  0.00     0.085 C 
HETATM    3  C2  UNL     1      26.085   0.839  53.092  1.00  0.00     0.291 C 
ENDROOT
BRANCH   3   4
HETATM    4  O1  UNL     1      25.529   1.088  51.844  1.00  0.00    -0.376 OA
BRANCH   4   5
HETATM    5  C3  UNL     1      24.153   1.108  52.007  1.00  0.00     0.182 C 
BRANCH   5   6
HETATM    6  C4  UNL     1      23.642   2.486  52.141  1.00  0.00     0.066 C 
HETATM    7  C5  UNL     1      22.177   2.497  52.495  1.00  0.00     0.001 C 
HETATM    8  C6  UNL     1      21.197   3.077  51.755  1.00  0.00    -0.000 C 
HETATM    9  C7  UNL     1      19.912   2.590  52.323  1.00  0.00     0.194 C 
HETATM   10  S1  UNL     1      21.260   4.187  50.383  1.00  0.00    -0.107 SA
HETATM   11  N2  UNL     1      18.751   3.310  51.948  1.00  0.00    -0.296 NA
HETATM   12  C8  UNL     1      18.739   3.974  50.847  1.00  0.00     0.118 C 
HETATM   13  C9  UNL     1      19.761   4.164  49.799  1.00  0.00     0.070 C 
HETATM   14  N3  UNL     1      21.527   5.643  50.798  1.00  0.00    -0.267 NA
HETATM   15  C15 UNL     1      22.315   3.586  49.112  1.00  0.00     0.112 C 
HETATM   16  C10 UNL     1      22.640   6.583  50.770  1.00  0.00     0.184 C 
HETATM   17  C11 UNL     1      23.721   5.895  51.579  1.00  0.00    -0.004 C 
HETATM   18  C12 UNL     1      24.118   4.605  51.709  1.00  0.00     0.005 C 
HETATM   19  C13 UNL     1      23.807   3.375  50.924  1.00  0.00    -0.052 C 
HETATM   20  C14 UNL     1      23.680   3.194  49.618  1.00  0.00    -0.008 C 
ENDBRANCH   5   6
ENDBRANCH   4   5
ENDBRANCH   3   4
TORSDOF 3
ENDMDL
