MODEL 1
REMARK VINA RESULT:      -7.4      0.000      0.000
REMARK  8 active torsions:
REMARK  status: ('A' for Active; 'I' for Inactive)
REMARK    1  A    between atoms: O1_2  and  C2_3 
REMARK    2  A    between atoms: N1_6  and  C5_7 
REMARK    3  A    between atoms: C5_7  and  C6_8 
REMARK    4  A    between atoms: C6_8  and  N2_9 
REMARK    5  A    between atoms: N3_10  and  C7_11 
REMARK    6  A    between atoms: C8_12  and  C9_14 
REMARK    7  A    between atoms: C9_14  and  N4_15 
REMARK    8  A    between atoms: C17_25  and  O3_26 
ROOT
HETATM    1  C5  UNL     1      24.961   3.305  51.164  1.00  0.00     0.130 C 
HETATM    2  N3  UNL     1      25.673   3.965  50.304  1.00  0.00    -0.243 NA
ENDROOT
BRANCH   1   3
HETATM    3  N1  UNL     1      25.162   1.946  51.589  1.00  0.00    -0.361 N 
HETATM    4  C4  UNL     1      26.510   1.496  51.395  1.00  0.00     0.154 C 
HETATM    5  C3  UNL     1      27.132   1.302  52.731  1.00  0.00     0.032 C 
HETATM    6  C2  UNL     1      26.633   0.667  53.770  1.00  0.00     0.099 C 
HETATM    7  C17 UNL     1      25.344  -0.012  53.886  1.00  0.00     0.099 C 
HETATM    8  C16 UNL     1      24.269   0.295  53.164  1.00  0.00     0.032 C 
HETATM    9  C15 UNL     1      24.007   1.294  52.121  1.00  0.00     0.154 C 
BRANCH   6  10
HETATM   10  O1  UNL     1      27.416   0.619  54.926  1.00  0.00    -0.353 OA
HETATM   11  C1  UNL     1      28.762   0.222  54.955  1.00  0.00     0.210 C 
ENDBRANCH   6  10
BRANCH   7  12
HETATM   12  O3  UNL     1      25.277  -1.045  54.827  1.00  0.00    -0.353 OA
HETATM   13  C18 UNL     1      24.008  -1.256  55.421  1.00  0.00     0.210 C 
ENDBRANCH   7  12
ENDBRANCH   1   3
BRANCH   1  14
HETATM   14  C6  UNL     1      23.780   3.859  51.878  1.00  0.00     0.344 C 
BRANCH  14  15
HETATM   15  N2  UNL     1      24.200   4.483  53.119  1.00  0.00     0.085 N 
HETATM   16  H9  UNL     1      23.980   3.884  53.926  1.00  0.00     0.313 HD
HETATM   17  H10 UNL     1      23.681   5.410  53.182  1.00  0.00     0.313 HD
ENDBRANCH  14  15
ENDBRANCH   1  14
BRANCH   2  18
HETATM   18  C7  UNL     1      25.262   5.321  50.049  1.00  0.00     0.158 C 
HETATM   19  C8  UNL     1      26.137   5.692  49.126  1.00  0.00     0.131 C 
HETATM   20  F1  UNL     1      26.971   4.663  48.870  1.00  0.00    -0.207 F 
BRANCH  19  21
HETATM   21  C9  UNL     1      26.469   6.905  48.295  1.00  0.00     0.222 C 
BRANCH  21  22
HETATM   22  N4  UNL     1      27.509   7.613  48.973  1.00  0.00    -0.268 NA
HETATM   23  C10 UNL     1      28.729   7.667  48.556  1.00  0.00     0.118 C 
HETATM   24  C11 UNL     1      29.227   7.009  47.323  1.00  0.00     0.246 C 
HETATM   25  N5  UNL     1      29.685   8.406  49.317  1.00  0.00    -0.374 N 
HETATM   26  O2  UNL     1      30.578   6.679  47.423  1.00  0.00    -0.377 OA
HETATM   27  C12 UNL     1      30.962   6.520  48.732  1.00  0.00     0.135 C 
HETATM   28  C13 UNL     1      32.175   5.688  48.960  1.00  0.00     0.041 C 
HETATM   29  C14 UNL     1      31.081   7.937  49.307  1.00  0.00     0.152 C 
HETATM   30  H22 UNL     1      29.388   9.264  49.870  1.00  0.00     0.161 HD
ENDBRANCH  21  22
ENDBRANCH  19  21
ENDBRANCH   2  18
TORSDOF 8
ENDMDL
MODEL 2
REMARK VINA RESULT:      -7.4      1.717      2.160
REMARK  8 active torsions:
REMARK  status: ('A' for Active; 'I' for Inactive)
REMARK    1  A    between atoms: O1_2  and  C2_3 
REMARK    2  A    between atoms: N1_6  and  C5_7 
REMARK    3  A    between atoms: C5_7  and  C6_8 
REMARK    4  A    between atoms: C6_8  and  N2_9 
REMARK    5  A    between atoms: N3_10  and  C7_11 
REMARK    6  A    between atoms: C8_12  and  C9_14 
REMARK    7  A    between atoms: C9_14  and  N4_15 
REMARK    8  A    between atoms: C17_25  and  O3_26 
ROOT
HETATM    1  C5  UNL     1      24.866   3.246  51.127  1.00  0.00     0.130 C 
HETATM    2  N3  UNL     1      25.507   3.885  50.198  1.00  0.00    -0.243 NA
ENDROOT
BRANCH   1   3
HETATM    3  N1  UNL     1      25.104   1.900  51.572  1.00  0.00    -0.361 N 
HETATM    4  C4  UNL     1      26.463   1.483  51.378  1.00  0.00     0.154 C 
HETATM    5  C3  UNL     1      27.097   1.326  52.713  1.00  0.00     0.032 C 
HETATM    6  C2  UNL     1      26.620   0.694  53.764  1.00  0.00     0.099 C 
HETATM    7  C17 UNL     1      25.349  -0.017  53.897  1.00  0.00     0.099 C 
HETATM    8  C16 UNL     1      24.264   0.250  53.176  1.00  0.00     0.032 C 
HETATM    9  C15 UNL     1      23.969   1.225  52.120  1.00  0.00     0.154 C 
BRANCH   6  10
HETATM   10  O1  UNL     1      27.408   0.685  54.917  1.00  0.00    -0.353 OA
HETATM   11  C1  UNL     1      28.709   0.160  54.982  1.00  0.00     0.210 C 
ENDBRANCH   6  10
BRANCH   7  12
HETATM   12  O3  UNL     1      25.315  -1.037  54.855  1.00  0.00    -0.353 OA
HETATM   13  C18 UNL     1      24.049  -1.292  55.437  1.00  0.00     0.210 C 
ENDBRANCH   7  12
ENDBRANCH   1   3
BRANCH   1  14
HETATM   14  C6  UNL     1      23.740   3.816  51.914  1.00  0.00     0.344 C 
BRANCH  14  15
HETATM   15  N2  UNL     1      24.237   4.371  53.159  1.00  0.00     0.085 N 
HETATM   16  H9  UNL     1      25.263   4.322  53.200  1.00  0.00     0.313 HD
HETATM   17  H10 UNL     1      23.797   3.800  53.942  1.00  0.00     0.313 HD
ENDBRANCH  14  15
ENDBRANCH   1  14
BRANCH   2  18
HETATM   18  C7  UNL     1      25.071   5.232  49.939  1.00  0.00     0.158 C 
HETATM   19  C8  UNL     1      25.976   5.637  49.060  1.00  0.00     0.131 C 
HETATM   20  F1  UNL     1      26.847   4.634  48.830  1.00  0.00    -0.207 F 
BRANCH  19  21
HETATM   21  C9  UNL     1      26.311   6.868  48.257  1.00  0.00     0.222 C 
BRANCH  21  22
HETATM   22  N4  UNL     1      27.660   7.222  48.568  1.00  0.00    -0.268 NA
HETATM   23  C10 UNL     1      27.995   8.320  49.158  1.00  0.00     0.118 C 
HETATM   24  C11 UNL     1      27.039   9.367  49.595  1.00  0.00     0.246 C 
HETATM   25  N5  UNL     1      29.378   8.568  49.417  1.00  0.00    -0.374 N 
HETATM   26  O2  UNL     1      27.625  10.632  49.600  1.00  0.00    -0.377 OA
HETATM   27  C12 UNL     1      28.678  10.703  48.723  1.00  0.00     0.135 C 
HETATM   28  C13 UNL     1      29.043  12.066  48.249  1.00  0.00     0.041 C 
HETATM   29  C14 UNL     1      29.839   9.966  49.404  1.00  0.00     0.152 C 
HETATM   30  H22 UNL     1      30.044   7.762  49.612  1.00  0.00     0.161 HD
ENDBRANCH  21  22
ENDBRANCH  19  21
ENDBRANCH   2  18
TORSDOF 8
ENDMDL
MODEL 3
REMARK VINA RESULT:      -6.9      3.009      8.363
REMARK  8 active torsions:
REMARK  status: ('A' for Active; 'I' for Inactive)
REMARK    1  A    between atoms: O1_2  and  C2_3 
REMARK    2  A    between atoms: N1_6  and  C5_7 
REMARK    3  A    between atoms: C5_7  and  C6_8 
REMARK    4  A    between atoms: C6_8  and  N2_9 
REMARK    5  A    between atoms: N3_10  and  C7_11 
REMARK    6  A    between atoms: C8_12  and  C9_14 
REMARK    7  A    between atoms: C9_14  and  N4_15 
REMARK    8  A    between atoms: C17_25  and  O3_26 
ROOT
HETATM    1  C5  UNL     1      24.675   4.126  50.416  1.00  0.00     0.130 C 
HETATM    2  N3  UNL     1      24.250   3.490  51.462  1.00  0.00    -0.243 NA
ENDROOT
BRANCH   1   3
HETATM    3  N1  UNL     1      24.245   5.419  49.957  1.00  0.00    -0.361 N 
HETATM    4  C4  UNL     1      24.394   6.441  50.953  1.00  0.00     0.154 C 
HETATM    5  C3  UNL     1      25.458   7.376  50.503  1.00  0.00     0.032 C 
HETATM    6  C2  UNL     1      25.596   7.933  49.319  1.00  0.00     0.099 C 
HETATM    7  C17 UNL     1      24.745   7.783  48.140  1.00  0.00     0.099 C 
HETATM    8  C16 UNL     1      23.988   6.717  47.895  1.00  0.00     0.032 C 
HETATM    9  C15 UNL     1      23.752   5.460  48.615  1.00  0.00     0.154 C 
BRANCH   6  10
HETATM   10  O1  UNL     1      26.688   8.785  49.137  1.00  0.00    -0.353 OA
HETATM   11  C1  UNL     1      27.459   9.319  50.181  1.00  0.00     0.210 C 
ENDBRANCH   6  10
BRANCH   7  12
HETATM   12  O3  UNL     1      24.756   8.851  47.235  1.00  0.00    -0.353 OA
HETATM   13  C18 UNL     1      23.757   9.836  47.433  1.00  0.00     0.210 C 
ENDBRANCH   7  12
ENDBRANCH   1   3
BRANCH   1  14
HETATM   14  C6  UNL     1      25.714   3.611  49.484  1.00  0.00     0.344 C 
BRANCH  14  15
HETATM   15  N2  UNL     1      26.987   4.252  49.758  1.00  0.00     0.085 N 
HETATM   16  H9  UNL     1      26.875   5.270  49.846  1.00  0.00     0.313 HD
HETATM   17  H10 UNL     1      27.629   4.009  48.944  1.00  0.00     0.313 HD
ENDBRANCH  14  15
ENDBRANCH   1  14
BRANCH   2  18
HETATM   18  C7  UNL     1      24.845   2.202  51.705  1.00  0.00     0.158 C 
HETATM   19  C8  UNL     1      24.043   1.713  52.640  1.00  0.00     0.131 C 
HETATM   20  F1  UNL     1      23.082   2.620  52.914  1.00  0.00    -0.207 F 
BRANCH  19  21
HETATM   21  C9  UNL     1      23.892   0.465  53.472  1.00  0.00     0.222 C 
BRANCH  21  22
HETATM   22  N4  UNL     1      24.842  -0.486  52.985  1.00  0.00    -0.268 NA
HETATM   23  C10 UNL     1      25.943  -0.775  53.593  1.00  0.00     0.118 C 
HETATM   24  C11 UNL     1      26.383  -0.167  54.873  1.00  0.00     0.246 C 
HETATM   25  N5  UNL     1      26.817  -1.743  53.011  1.00  0.00    -0.374 N 
HETATM   26  O2  UNL     1      27.772  -0.139  54.981  1.00  0.00    -0.377 OA
HETATM   27  C12 UNL     1      28.374  -0.142  53.747  1.00  0.00     0.135 C 
HETATM   28  C13 UNL     1      29.760   0.398  53.695  1.00  0.00     0.041 C 
HETATM   29  C14 UNL     1      28.264  -1.583  53.232  1.00  0.00     0.152 C 
HETATM   30  H22 UNL     1      26.425  -2.549  52.438  1.00  0.00     0.161 HD
ENDBRANCH  21  22
ENDBRANCH  19  21
ENDBRANCH   2  18
TORSDOF 8
ENDMDL
MODEL 4
REMARK VINA RESULT:      -6.9      2.912      8.520
REMARK  8 active torsions:
REMARK  status: ('A' for Active; 'I' for Inactive)
REMARK    1  A    between atoms: O1_2  and  C2_3 
REMARK    2  A    between atoms: N1_6  and  C5_7 
REMARK    3  A    between atoms: C5_7  and  C6_8 
REMARK    4  A    between atoms: C6_8  and  N2_9 
REMARK    5  A    between atoms: N3_10  and  C7_11 
REMARK    6  A    between atoms: C8_12  and  C9_14 
REMARK    7  A    between atoms: C9_14  and  N4_15 
REMARK    8  A    between atoms: C17_25  and  O3_26 
ROOT
HETATM    1  C5  UNL     1      24.473   4.541  50.700  1.00  0.00     0.130 C 
HETATM    2  N3  UNL     1      24.846   3.393  51.172  1.00  0.00    -0.243 NA
ENDROOT
BRANCH   1   3
HETATM    3  N1  UNL     1      24.811   5.099  49.418  1.00  0.00    -0.361 N 
HETATM    4  C4  UNL     1      23.678   5.213  48.545  1.00  0.00     0.154 C 
HETATM    5  C3  UNL     1      23.386   6.658  48.350  1.00  0.00     0.032 C 
HETATM    6  C2  UNL     1      24.232   7.620  48.053  1.00  0.00     0.099 C 
HETATM    7  C17 UNL     1      25.675   7.526  47.836  1.00  0.00     0.099 C 
HETATM    8  C16 UNL     1      26.450   6.582  48.363  1.00  0.00     0.032 C 
HETATM    9  C15 UNL     1      26.189   5.436  49.241  1.00  0.00     0.154 C 
BRANCH   6  10
HETATM   10  O1  UNL     1      23.713   8.910  47.920  1.00  0.00    -0.353 OA
HETATM   11  C1  UNL     1      22.565   9.373  48.582  1.00  0.00     0.210 C 
ENDBRANCH   6  10
BRANCH   7  12
HETATM   12  O3  UNL     1      26.237   8.510  47.015  1.00  0.00    -0.353 OA
HETATM   13  C18 UNL     1      27.276   9.278  47.597  1.00  0.00     0.210 C 
ENDBRANCH   7  12
ENDBRANCH   1   3
BRANCH   1  14
HETATM   14  C6  UNL     1      23.603   5.506  51.425  1.00  0.00     0.344 C 
BRANCH  14  15
HETATM   15  N2  UNL     1      24.401   6.605  51.936  1.00  0.00     0.085 N 
HETATM   16  H9  UNL     1      23.847   7.203  52.562  1.00  0.00     0.313 HD
HETATM   17  H10 UNL     1      24.740   7.152  51.089  1.00  0.00     0.313 HD
ENDBRANCH  14  15
ENDBRANCH   1  14
BRANCH   2  18
HETATM   18  C7  UNL     1      24.368   3.065  52.490  1.00  0.00     0.158 C 
HETATM   19  C8  UNL     1      24.475   1.744  52.487  1.00  0.00     0.131 C 
HETATM   20  F1  UNL     1      24.963   1.344  51.295  1.00  0.00    -0.207 F 
BRANCH  19  21
HETATM   21  C9  UNL     1      24.216   0.580  53.409  1.00  0.00     0.222 C 
BRANCH  21  22
HETATM   22  N4  UNL     1      25.064  -0.491  52.988  1.00  0.00    -0.268 NA
HETATM   23  C10 UNL     1      26.151  -0.826  53.598  1.00  0.00     0.118 C 
HETATM   24  C11 UNL     1      26.677  -0.155  54.812  1.00  0.00     0.246 C 
HETATM   25  N5  UNL     1      26.920  -1.915  53.085  1.00  0.00    -0.374 N 
HETATM   26  O2  UNL     1      28.066  -0.244  54.891  1.00  0.00    -0.377 OA
HETATM   27  C12 UNL     1      28.632  -0.405  53.651  1.00  0.00     0.135 C 
HETATM   28  C13 UNL     1      30.058   0.001  53.526  1.00  0.00     0.041 C 
HETATM   29  C14 UNL     1      28.381  -1.868  53.265  1.00  0.00     0.152 C 
HETATM   30  H22 UNL     1      26.444  -2.728  52.592  1.00  0.00     0.161 HD
ENDBRANCH  21  22
ENDBRANCH  19  21
ENDBRANCH   2  18
TORSDOF 8
ENDMDL
MODEL 5
REMARK VINA RESULT:      -6.9      1.935      2.275
REMARK  8 active torsions:
REMARK  status: ('A' for Active; 'I' for Inactive)
REMARK    1  A    between atoms: O1_2  and  C2_3 
REMARK    2  A    between atoms: N1_6  and  C5_7 
REMARK    3  A    between atoms: C5_7  and  C6_8 
REMARK    4  A    between atoms: C6_8  and  N2_9 
REMARK    5  A    between atoms: N3_10  and  C7_11 
REMARK    6  A    between atoms: C8_12  and  C9_14 
REMARK    7  A    between atoms: C9_14  and  N4_15 
REMARK    8  A    between atoms: C17_25  and  O3_26 
ROOT
HETATM    1  C5  UNL     1      24.015   4.921  51.290  1.00  0.00     0.130 C 
HETATM    2  N3  UNL     1      24.708   5.793  50.627  1.00  0.00    -0.243 NA
ENDROOT
BRANCH   1   3
HETATM    3  N1  UNL     1      24.302   3.519  51.434  1.00  0.00    -0.361 N 
HETATM    4  C4  UNL     1      25.172   3.021  50.408  1.00  0.00     0.154 C 
HETATM    5  C3  UNL     1      26.474   2.669  51.033  1.00  0.00     0.032 C 
HETATM    6  C2  UNL     1      26.682   1.965  52.124  1.00  0.00     0.099 C 
HETATM    7  C17 UNL     1      25.695   1.344  53.006  1.00  0.00     0.099 C 
HETATM    8  C16 UNL     1      24.443   1.773  53.147  1.00  0.00     0.032 C 
HETATM    9  C15 UNL     1      23.683   2.879  52.552  1.00  0.00     0.154 C 
BRANCH   6  10
HETATM   10  O1  UNL     1      28.008   1.767  52.514  1.00  0.00    -0.353 OA
HETATM   11  C1  UNL     1      28.630   2.443  53.576  1.00  0.00     0.210 C 
ENDBRANCH   6  10
BRANCH   7  12
HETATM   12  O3  UNL     1      26.134   0.231  53.731  1.00  0.00    -0.353 OA
HETATM   13  C18 UNL     1      26.044  -1.015  53.062  1.00  0.00     0.210 C 
ENDBRANCH   7  12
ENDBRANCH   1   3
BRANCH   1  14
HETATM   14  C6  UNL     1      22.767   5.231  52.039  1.00  0.00     0.344 C 
BRANCH  14  15
HETATM   15  N2  UNL     1      21.620   5.118  51.158  1.00  0.00     0.085 N 
HETATM   16  H9  UNL     1      20.792   4.792  51.672  1.00  0.00     0.313 HD
HETATM   17  H10 UNL     1      21.891   4.426  50.396  1.00  0.00     0.313 HD
ENDBRANCH  14  15
ENDBRANCH   1  14
BRANCH   2  18
HETATM   18  C7  UNL     1      24.204   7.142  50.638  1.00  0.00     0.158 C 
HETATM   19  C8  UNL     1      25.267   7.823  50.235  1.00  0.00     0.131 C 
HETATM   20  F1  UNL     1      26.283   6.964  50.013  1.00  0.00    -0.207 F 
BRANCH  19  21
HETATM   21  C9  UNL     1      25.667   9.250  49.958  1.00  0.00     0.222 C 
BRANCH  21  22
HETATM   22  N4  UNL     1      27.029   9.395  50.364  1.00  0.00    -0.268 NA
HETATM   23  C10 UNL     1      28.022   9.437  49.540  1.00  0.00     0.118 C 
HETATM   24  C11 UNL     1      27.896   9.340  48.065  1.00  0.00     0.246 C 
HETATM   25  N5  UNL     1      29.343   9.585  50.061  1.00  0.00    -0.374 N 
HETATM   26  O2  UNL     1      29.037   8.789  47.484  1.00  0.00    -0.377 OA
HETATM   27  C12 UNL     1      29.720   7.994  48.371  1.00  0.00     0.135 C 
HETATM   28  C13 UNL     1      30.615   6.966  47.772  1.00  0.00     0.041 C 
HETATM   29  C14 UNL     1      30.448   8.956  49.319  1.00  0.00     0.152 C 
HETATM   30  H22 UNL     1      29.513  10.133  50.956  1.00  0.00     0.161 HD
ENDBRANCH  21  22
ENDBRANCH  19  21
ENDBRANCH   2  18
TORSDOF 8
ENDMDL
MODEL 6
REMARK VINA RESULT:      -6.8      1.820      8.343
REMARK  8 active torsions:
REMARK  status: ('A' for Active; 'I' for Inactive)
REMARK    1  A    between atoms: O1_2  and  C2_3 
REMARK    2  A    between atoms: N1_6  and  C5_7 
REMARK    3  A    between atoms: C5_7  and  C6_8 
REMARK    4  A    between atoms: C6_8  and  N2_9 
REMARK    5  A    between atoms: N3_10  and  C7_11 
REMARK    6  A    between atoms: C8_12  and  C9_14 
REMARK    7  A    between atoms: C9_14  and  N4_15 
REMARK    8  A    between atoms: C17_25  and  O3_26 
ROOT
HETATM    1  C5  UNL     1      26.524   6.003  49.003  1.00  0.00     0.130 C 
HETATM    2  N3  UNL     1      26.134   4.787  49.227  1.00  0.00    -0.243 NA
ENDROOT
BRANCH   1   3
HETATM    3  N1  UNL     1      27.711   6.415  48.304  1.00  0.00    -0.361 N 
HETATM    4  C4  UNL     1      27.603   7.736  47.755  1.00  0.00     0.154 C 
HETATM    5  C3  UNL     1      28.536   8.625  48.495  1.00  0.00     0.032 C 
HETATM    6  C2  UNL     1      29.799   8.404  48.788  1.00  0.00     0.099 C 
HETATM    7  C17 UNL     1      30.616   7.235  48.466  1.00  0.00     0.099 C 
HETATM    8  C16 UNL     1      30.127   6.015  48.261  1.00  0.00     0.032 C 
HETATM    9  C15 UNL     1      28.771   5.456  48.279  1.00  0.00     0.154 C 
BRANCH   6  10
HETATM   10  O1  UNL     1      30.474   9.400  49.498  1.00  0.00    -0.353 OA
HETATM   11  C1  UNL     1      30.691  10.703  49.023  1.00  0.00     0.210 C 
ENDBRANCH   6  10
BRANCH   7  12
HETATM   12  O3  UNL     1      31.995   7.456  48.375  1.00  0.00    -0.353 OA
HETATM   13  C18 UNL     1      32.491   7.735  47.078  1.00  0.00     0.210 C 
ENDBRANCH   7  12
ENDBRANCH   1   3
BRANCH   1  14
HETATM   14  C6  UNL     1      25.785   7.217  49.444  1.00  0.00     0.344 C 
BRANCH  14  15
HETATM   15  N2  UNL     1      26.080   7.498  50.836  1.00  0.00     0.085 N 
HETATM   16  H9  UNL     1      26.522   8.421  50.940  1.00  0.00     0.313 HD
HETATM   17  H10 UNL     1      26.733   6.725  51.169  1.00  0.00     0.313 HD
ENDBRANCH  14  15
ENDBRANCH   1  14
BRANCH   2  18
HETATM   18  C7  UNL     1      24.900   4.641  49.955  1.00  0.00     0.158 C 
HETATM   19  C8  UNL     1      25.064   3.451  50.514  1.00  0.00     0.131 C 
HETATM   20  F1  UNL     1      26.265   2.955  50.152  1.00  0.00    -0.207 F 
BRANCH  19  21
HETATM   21  C9  UNL     1      24.316   2.507  51.420  1.00  0.00     0.222 C 
BRANCH  21  22
HETATM   22  N4  UNL     1      25.074   1.298  51.492  1.00  0.00    -0.268 NA
HETATM   23  C10 UNL     1      25.695   0.904  52.552  1.00  0.00     0.118 C 
HETATM   24  C11 UNL     1      25.715   1.641  53.840  1.00  0.00     0.246 C 
HETATM   25  N5  UNL     1      26.423  -0.324  52.507  1.00  0.00    -0.374 N 
HETATM   26  O2  UNL     1      26.882   1.390  54.561  1.00  0.00    -0.377 OA
HETATM   27  C12 UNL     1      27.914   1.017  53.735  1.00  0.00     0.135 C 
HETATM   28  C13 UNL     1      29.287   1.225  54.271  1.00  0.00     0.041 C 
HETATM   29  C14 UNL     1      27.629  -0.439  53.344  1.00  0.00     0.152 C 
HETATM   30  H22 UNL     1      26.096  -1.123  51.886  1.00  0.00     0.161 HD
ENDBRANCH  21  22
ENDBRANCH  19  21
ENDBRANCH   2  18
TORSDOF 8
ENDMDL
MODEL 7
REMARK VINA RESULT:      -6.6      2.460      3.691
REMARK  8 active torsions:
REMARK  status: ('A' for Active; 'I' for Inactive)
REMARK    1  A    between atoms: O1_2  and  C2_3 
REMARK    2  A    between atoms: N1_6  and  C5_7 
REMARK    3  A    between atoms: C5_7  and  C6_8 
REMARK    4  A    between atoms: C6_8  and  N2_9 
REMARK    5  A    between atoms: N3_10  and  C7_11 
REMARK    6  A    between atoms: C8_12  and  C9_14 
REMARK    7  A    between atoms: C9_14  and  N4_15 
REMARK    8  A    between atoms: C17_25  and  O3_26 
ROOT
HETATM    1  C5  UNL     1      23.982   4.162  51.165  1.00  0.00     0.130 C 
HETATM    2  N3  UNL     1      24.860   3.802  50.280  1.00  0.00    -0.243 NA
ENDROOT
BRANCH   1   3
HETATM    3  N1  UNL     1      23.331   3.316  52.128  1.00  0.00    -0.361 N 
HETATM    4  C4  UNL     1      21.925   3.580  52.239  1.00  0.00     0.154 C 
HETATM    5  C3  UNL     1      21.189   2.405  51.704  1.00  0.00     0.032 C 
HETATM    6  C2  UNL     1      21.390   1.134  51.975  1.00  0.00     0.099 C 
HETATM    7  C17 UNL     1      22.385   0.542  52.868  1.00  0.00     0.099 C 
HETATM    8  C16 UNL     1      23.545   1.113  53.178  1.00  0.00     0.032 C 
HETATM    9  C15 UNL     1      24.181   2.379  52.795  1.00  0.00     0.154 C 
BRANCH   6  10
HETATM   10  O1  UNL     1      20.561   0.206  51.341  1.00  0.00    -0.353 OA
HETATM   11  C1  UNL     1      19.165   0.159  51.491  1.00  0.00     0.210 C 
ENDBRANCH   6  10
BRANCH   7  12
HETATM   12  O3  UNL     1      22.057  -0.706  53.411  1.00  0.00    -0.353 OA
HETATM   13  C18 UNL     1      21.419  -0.679  54.675  1.00  0.00     0.210 C 
ENDBRANCH   7  12
ENDBRANCH   1   3
BRANCH   1  14
HETATM   14  C6  UNL     1      23.485   5.553  51.339  1.00  0.00     0.344 C 
BRANCH  14  15
HETATM   15  N2  UNL     1      24.281   6.243  52.336  1.00  0.00     0.085 N 
HETATM   16  H9  UNL     1      25.079   5.666  52.634  1.00  0.00     0.313 HD
HETATM   17  H10 UNL     1      23.632   6.444  53.155  1.00  0.00     0.313 HD
ENDBRANCH  14  15
ENDBRANCH   1  14
BRANCH   2  18
HETATM   18  C7  UNL     1      25.362   4.847  49.427  1.00  0.00     0.158 C 
HETATM   19  C8  UNL     1      26.624   4.473  49.269  1.00  0.00     0.131 C 
HETATM   20  F1  UNL     1      26.835   3.332  49.957  1.00  0.00    -0.207 F 
BRANCH  19  21
HETATM   21  C9  UNL     1      27.869   4.940  48.560  1.00  0.00     0.222 C 
BRANCH  21  22
HETATM   22  N4  UNL     1      27.621   6.271  48.101  1.00  0.00    -0.268 NA
HETATM   23  C10 UNL     1      28.554   7.118  47.821  1.00  0.00     0.118 C 
HETATM   24  C11 UNL     1      30.007   6.839  47.935  1.00  0.00     0.246 C 
HETATM   25  N5  UNL     1      28.187   8.422  47.370  1.00  0.00    -0.374 N 
HETATM   26  O2  UNL     1      30.736   7.998  48.199  1.00  0.00    -0.377 OA
HETATM   27  C12 UNL     1      29.963   8.950  48.817  1.00  0.00     0.135 C 
HETATM   28  C13 UNL     1      30.698   9.980  49.601  1.00  0.00     0.041 C 
HETATM   29  C14 UNL     1      29.074   9.545  47.716  1.00  0.00     0.152 C 
HETATM   30  H22 UNL     1      27.299   8.567  46.802  1.00  0.00     0.161 HD
ENDBRANCH  21  22
ENDBRANCH  19  21
ENDBRANCH   2  18
TORSDOF 8
ENDMDL
MODEL 8
REMARK VINA RESULT:      -6.6      2.594      3.945
REMARK  8 active torsions:
REMARK  status: ('A' for Active; 'I' for Inactive)
REMARK    1  A    between atoms: O1_2  and  C2_3 
REMARK    2  A    between atoms: N1_6  and  C5_7 
REMARK    3  A    between atoms: C5_7  and  C6_8 
REMARK    4  A    between atoms: C6_8  and  N2_9 
REMARK    5  A    between atoms: N3_10  and  C7_11 
REMARK    6  A    between atoms: C8_12  and  C9_14 
REMARK    7  A    between atoms: C9_14  and  N4_15 
REMARK    8  A    between atoms: C17_25  and  O3_26 
ROOT
HETATM    1  C5  UNL     1      24.683   5.116  50.591  1.00  0.00     0.130 C 
HETATM    2  N3  UNL     1      25.700   4.881  49.822  1.00  0.00    -0.243 NA
ENDROOT
BRANCH   1   3
HETATM    3  N1  UNL     1      23.966   4.160  51.392  1.00  0.00    -0.361 N 
HETATM    4  C4  UNL     1      22.556   4.420  51.436  1.00  0.00     0.154 C 
HETATM    5  C3  UNL     1      21.860   3.329  50.706  1.00  0.00     0.032 C 
HETATM    6  C2  UNL     1      22.042   2.031  50.825  1.00  0.00     0.099 C 
HETATM    7  C17 UNL     1      22.972   1.322  51.704  1.00  0.00     0.099 C 
HETATM    8  C16 UNL     1      24.107   1.840  52.164  1.00  0.00     0.032 C 
HETATM    9  C15 UNL     1      24.767   3.139  51.991  1.00  0.00     0.154 C 
BRANCH   6  10
HETATM   10  O1  UNL     1      21.260   1.198  50.022  1.00  0.00    -0.353 OA
HETATM   11  C1  UNL     1      21.435   1.041  48.638  1.00  0.00     0.210 C 
ENDBRANCH   6  10
BRANCH   7  12
HETATM   12  O3  UNL     1      22.608   0.019  52.058  1.00  0.00    -0.353 OA
HETATM   13  C18 UNL     1      22.638  -0.274  53.444  1.00  0.00     0.210 C 
ENDBRANCH   7  12
ENDBRANCH   1   3
BRANCH   1  14
HETATM   14  C6  UNL     1      24.067   6.456  50.784  1.00  0.00     0.344 C 
BRANCH  14  15
HETATM   15  N2  UNL     1      24.470   7.008  52.064  1.00  0.00     0.085 N 
HETATM   16  H9  UNL     1      25.162   6.402  52.525  1.00  0.00     0.313 HD
HETATM   17  H10 UNL     1      23.586   7.088  52.650  1.00  0.00     0.313 HD
ENDBRANCH  14  15
ENDBRANCH   1  14
BRANCH   2  18
HETATM   18  C7  UNL     1      26.241   6.017  49.123  1.00  0.00     0.158 C 
HETATM   19  C8  UNL     1      27.407   5.541  48.710  1.00  0.00     0.131 C 
HETATM   20  F1  UNL     1      27.533   4.264  49.124  1.00  0.00    -0.207 F 
BRANCH  19  21
HETATM   21  C9  UNL     1      28.611   6.000  47.928  1.00  0.00     0.222 C 
BRANCH  21  22
HETATM   22  N4  UNL     1      29.758   5.377  48.510  1.00  0.00    -0.268 NA
HETATM   23  C10 UNL     1      30.968   5.596  48.120  1.00  0.00     0.118 C 
HETATM   24  C11 UNL     1      31.344   6.517  47.020  1.00  0.00     0.246 C 
HETATM   25  N5  UNL     1      32.037   4.914  48.777  1.00  0.00    -0.374 N 
HETATM   26  O2  UNL     1      32.527   6.121  46.396  1.00  0.00    -0.377 OA
HETATM   27  C12 UNL     1      32.745   4.774  46.539  1.00  0.00     0.135 C 
HETATM   28  C13 UNL     1      33.639   4.146  45.528  1.00  0.00     0.041 C 
HETATM   29  C14 UNL     1      33.231   4.581  47.982  1.00  0.00     0.152 C 
HETATM   30  H22 UNL     1      31.963   4.660  49.807  1.00  0.00     0.161 HD
ENDBRANCH  21  22
ENDBRANCH  19  21
ENDBRANCH   2  18
TORSDOF 8
ENDMDL
MODEL 9
REMARK VINA RESULT:      -6.5      4.582      7.116
REMARK  8 active torsions:
REMARK  status: ('A' for Active; 'I' for Inactive)
REMARK    1  A    between atoms: O1_2  and  C2_3 
REMARK    2  A    between atoms: N1_6  and  C5_7 
REMARK    3  A    between atoms: C5_7  and  C6_8 
REMARK    4  A    between atoms: C6_8  and  N2_9 
REMARK    5  A    between atoms: N3_10  and  C7_11 
REMARK    6  A    between atoms: C8_12  and  C9_14 
REMARK    7  A    between atoms: C9_14  and  N4_15 
REMARK    8  A    between atoms: C17_25  and  O3_26 
ROOT
HETATM    1  C5  UNL     1      29.096   8.877  49.015  1.00  0.00     0.130 C 
HETATM    2  N3  UNL     1      30.113   8.077  49.100  1.00  0.00    -0.243 NA
ENDROOT
BRANCH   1   3
HETATM    3  N1  UNL     1      27.716   8.506  48.863  1.00  0.00    -0.361 N 
HETATM    4  C4  UNL     1      27.516   7.510  47.850  1.00  0.00     0.154 C 
HETATM    5  C3  UNL     1      27.088   6.251  48.513  1.00  0.00     0.032 C 
HETATM    6  C2  UNL     1      26.157   6.096  49.429  1.00  0.00     0.099 C 
HETATM    7  C17 UNL     1      25.300   7.115  50.033  1.00  0.00     0.099 C 
HETATM    8  C16 UNL     1      25.623   8.401  50.133  1.00  0.00     0.032 C 
HETATM    9  C15 UNL     1      26.801   9.179  49.731  1.00  0.00     0.154 C 
BRANCH   6  10
HETATM   10  O1  UNL     1      25.935   4.801  49.904  1.00  0.00    -0.353 OA
HETATM   11  C1  UNL     1      26.681   3.677  49.515  1.00  0.00     0.210 C 
ENDBRANCH   6  10
BRANCH   7  12
HETATM   12  O3  UNL     1      24.068   6.667  50.526  1.00  0.00    -0.353 OA
HETATM   13  C18 UNL     1      23.026   7.626  50.542  1.00  0.00     0.210 C 
ENDBRANCH   7  12
ENDBRANCH   1   3
BRANCH   1  14
HETATM   14  C6  UNL     1      29.188  10.361  49.064  1.00  0.00     0.344 C 
BRANCH  14  15
HETATM   15  N2  UNL     1      29.167  10.903  47.718  1.00  0.00     0.085 N 
HETATM   16  H9  UNL     1      29.767  10.352  47.090  1.00  0.00     0.313 HD
HETATM   17  H10 UNL     1      29.512  11.906  47.791  1.00  0.00     0.313 HD
ENDBRANCH  14  15
ENDBRANCH   1  14
BRANCH   2  18
HETATM   18  C7  UNL     1      31.401   8.703  49.248  1.00  0.00     0.158 C 
HETATM   19  C8  UNL     1      32.149   7.959  48.447  1.00  0.00     0.131 C 
HETATM   20  F1  UNL     1      31.381   7.001  47.890  1.00  0.00    -0.207 F 
BRANCH  19  21
HETATM   21  C9  UNL     1      33.581   7.872  47.984  1.00  0.00     0.222 C 
BRANCH  21  22
HETATM   22  N4  UNL     1      34.142   6.691  48.561  1.00  0.00    -0.268 NA
HETATM   23  C10 UNL     1      34.391   5.615  47.893  1.00  0.00     0.118 C 
HETATM   24  C11 UNL     1      34.133   5.447  46.441  1.00  0.00     0.246 C 
HETATM   25  N5  UNL     1      34.953   4.494  48.576  1.00  0.00    -0.374 N 
HETATM   26  O2  UNL     1      33.879   4.116  46.113  1.00  0.00    -0.377 OA
HETATM   27  C12 UNL     1      33.391   3.416  47.188  1.00  0.00     0.135 C 
HETATM   28  C13 UNL     1      32.611   2.189  46.870  1.00  0.00     0.041 C 
HETATM   29  C14 UNL     1      34.600   3.148  48.095  1.00  0.00     0.152 C 
HETATM   30  H22 UNL     1      35.603   4.638  49.405  1.00  0.00     0.161 HD
ENDBRANCH  21  22
ENDBRANCH  19  21
ENDBRANCH   2  18
TORSDOF 8
ENDMDL
