MODEL 1
REMARK VINA RESULT:      -7.9      0.000      0.000
REMARK  4 active torsions:
REMARK  status: ('A' for Active; 'I' for Inactive)
REMARK    1  A    between atoms: C2_2  and  C3_3 
REMARK    2  A    between atoms: C3_3  and  C4_4 
REMARK    3  A    between atoms: N1_11  and  N2_12 
REMARK    4  A    between atoms: N2_12  and  C11_13 
ROOT
HETATM    1  C4  UNL     1      18.988  -0.435  52.696  1.00  0.00    -0.052 C 
HETATM    2  C5  UNL     1      20.020  -0.631  53.503  1.00  0.00     0.014 C 
HETATM    3  C6  UNL     1      21.346   0.010  53.816  1.00  0.00    -0.064 C 
HETATM    4  C7  UNL     1      22.166  -0.763  54.820  1.00  0.00     0.048 C 
HETATM    5  C8  UNL     1      21.932   1.133  53.366  1.00  0.00     0.001 C 
HETATM    6  C9  UNL     1      21.716   2.288  52.444  1.00  0.00     0.099 C 
HETATM    7  C10 UNL     1      20.335   2.854  52.491  1.00  0.00     0.032 C 
HETATM    8  N1  UNL     1      22.099   1.787  51.118  1.00  0.00    -0.220 NA
HETATM    9  C17 UNL     1      21.413   0.551  50.913  1.00  0.00     0.142 C 
HETATM   10  C18 UNL     1      19.970   0.579  50.707  1.00  0.00    -0.003 C 
HETATM   11  C19 UNL     1      18.845   0.200  51.339  1.00  0.00    -0.058 C 
HETATM   12  C20 UNL     1      17.599   0.444  50.603  1.00  0.00     0.048 C 
ENDROOT
BRANCH   8  13
HETATM   13  N2  UNL     1      23.461   1.477  51.209  1.00  0.00    -0.321 N 
HETATM   14  H15 UNL     1      23.856   0.682  51.760  1.00  0.00     0.180 HD
BRANCH  13  15
HETATM   15  C11 UNL     1      24.319   2.341  50.479  1.00  0.00     0.042 C 
HETATM   16  C12 UNL     1      25.602   2.402  50.837  1.00  0.00     0.039 C 
HETATM   17 CL1  UNL     1      26.218   1.443  52.176  1.00  0.00    -0.087 Cl
HETATM   18  C13 UNL     1      26.387   3.353  49.981  1.00  0.00     0.080 C 
HETATM   19  C14 UNL     1      25.699   4.691  49.963  1.00  0.00    -0.025 C 
HETATM   20  C15 UNL     1      24.413   4.572  49.627  1.00  0.00    -0.024 C 
HETATM   21  C16 UNL     1      23.911   3.191  49.339  1.00  0.00     0.086 C 
ENDBRANCH  13  15
ENDBRANCH   8  13
BRANCH   1  22
HETATM   22  C3  UNL     1      17.787  -1.322  52.731  1.00  0.00     0.039 C 
BRANCH  22  23
HETATM   23  C2  UNL     1      17.911  -2.457  53.680  1.00  0.00    -0.024 C 
HETATM   24  C1  UNL     1      17.174  -3.601  53.527  1.00  0.00     0.029 C 
ENDBRANCH  22  23
ENDBRANCH   1  22
TORSDOF 4
ENDMDL
MODEL 2
REMARK VINA RESULT:      -7.7      1.901      7.654
REMARK  4 active torsions:
REMARK  status: ('A' for Active; 'I' for Inactive)
REMARK    1  A    between atoms: C2_2  and  C3_3 
REMARK    2  A    between atoms: C3_3  and  C4_4 
REMARK    3  A    between atoms: N1_11  and  N2_12 
REMARK    4  A    between atoms: N2_12  and  C11_13 
ROOT
HETATM    1  C4  UNL     1      25.946   4.757  49.218  1.00  0.00    -0.052 C 
HETATM    2  C5  UNL     1      26.310   3.745  49.993  1.00  0.00     0.014 C 
HETATM    3  C6  UNL     1      25.672   2.582  50.705  1.00  0.00    -0.064 C 
HETATM    4  C7  UNL     1      26.641   1.785  51.545  1.00  0.00     0.048 C 
HETATM    5  C8  UNL     1      24.406   2.130  50.736  1.00  0.00     0.001 C 
HETATM    6  C9  UNL     1      23.042   2.401  50.191  1.00  0.00     0.099 C 
HETATM    7  C10 UNL     1      23.029   2.772  48.743  1.00  0.00     0.032 C 
HETATM    8  N1  UNL     1      22.488   3.441  51.067  1.00  0.00    -0.220 NA
HETATM    9  C17 UNL     1      23.459   4.485  51.160  1.00  0.00     0.142 C 
HETATM   10  C18 UNL     1      23.702   5.319  49.990  1.00  0.00    -0.003 C 
HETATM   11  C19 UNL     1      24.677   5.556  49.095  1.00  0.00    -0.058 C 
HETATM   12  C20 UNL     1      24.380   6.596  48.103  1.00  0.00     0.048 C 
ENDROOT
BRANCH   8  13
HETATM   13  N2  UNL     1      22.403   2.859  52.337  1.00  0.00    -0.321 N 
HETATM   14  H15 UNL     1      23.105   2.989  53.101  1.00  0.00     0.180 HD
BRANCH  13  15
HETATM   15  C11 UNL     1      21.259   2.045  52.545  1.00  0.00     0.042 C 
HETATM   16  C12 UNL     1      21.437   0.832  53.068  1.00  0.00     0.039 C 
HETATM   17 CL1  UNL     1      23.043   0.252  53.490  1.00  0.00    -0.087 Cl
HETATM   18  C13 UNL     1      20.145   0.087  53.230  1.00  0.00     0.080 C 
HETATM   19  C14 UNL     1      19.408   0.078  51.918  1.00  0.00    -0.025 C 
HETATM   20  C15 UNL     1      19.280   1.310  51.424  1.00  0.00    -0.024 C 
HETATM   21  C16 UNL     1      19.866   2.429  52.229  1.00  0.00     0.086 C 
ENDBRANCH  13  15
ENDBRANCH   8  13
BRANCH   1  22
HETATM   22  C3  UNL     1      26.948   5.709  48.653  1.00  0.00     0.039 C 
BRANCH  22  23
HETATM   23  C2  UNL     1      28.294   5.114  48.456  1.00  0.00    -0.024 C 
HETATM   24  C1  UNL     1      29.363   5.876  48.070  1.00  0.00     0.029 C 
ENDBRANCH  22  23
ENDBRANCH   1  22
TORSDOF 4
ENDMDL
MODEL 3
REMARK VINA RESULT:      -7.6      2.599      3.930
REMARK  4 active torsions:
REMARK  status: ('A' for Active; 'I' for Inactive)
REMARK    1  A    between atoms: C2_2  and  C3_3 
REMARK    2  A    between atoms: C3_3  and  C4_4 
REMARK    3  A    between atoms: N1_11  and  N2_12 
REMARK    4  A    between atoms: N2_12  and  C11_13 
ROOT
HETATM    1  C4  UNL     1      22.618   0.842  52.253  1.00  0.00    -0.052 C 
HETATM    2  C5  UNL     1      23.709   1.155  52.936  1.00  0.00     0.014 C 
HETATM    3  C6  UNL     1      24.579   2.358  53.185  1.00  0.00    -0.064 C 
HETATM    4  C7  UNL     1      25.794   2.059  54.029  1.00  0.00     0.048 C 
HETATM    5  C8  UNL     1      24.477   3.640  52.792  1.00  0.00     0.001 C 
HETATM    6  C9  UNL     1      23.606   4.569  52.010  1.00  0.00     0.099 C 
HETATM    7  C10 UNL     1      22.144   4.370  52.240  1.00  0.00     0.032 C 
HETATM    8  N1  UNL     1      24.011   4.374  50.611  1.00  0.00    -0.220 NA
HETATM    9  C17 UNL     1      23.997   2.969  50.354  1.00  0.00     0.142 C 
HETATM   10  C18 UNL     1      22.712   2.284  50.288  1.00  0.00    -0.003 C 
HETATM   11  C19 UNL     1      22.009   1.372  50.982  1.00  0.00    -0.058 C 
HETATM   12  C20 UNL     1      20.720   0.991  50.394  1.00  0.00     0.048 C 
ENDROOT
BRANCH   8  13
HETATM   13  N2  UNL     1      25.349   4.780  50.545  1.00  0.00    -0.321 N 
HETATM   14  H15 UNL     1      26.147   4.278  50.995  1.00  0.00     0.180 HD
BRANCH  13  15
HETATM   15  C11 UNL     1      25.576   5.964  49.797  1.00  0.00     0.042 C 
HETATM   16  C12 UNL     1      26.571   5.966  48.910  1.00  0.00     0.039 C 
HETATM   17 CL1  UNL     1      27.577   4.544  48.670  1.00  0.00    -0.087 Cl
HETATM   18  C13 UNL     1      26.694   7.280  48.195  1.00  0.00     0.080 C 
HETATM   19  C14 UNL     1      26.783   8.390  49.208  1.00  0.00    -0.025 C 
HETATM   20  C15 UNL     1      25.782   8.328  50.087  1.00  0.00    -0.024 C 
HETATM   21  C16 UNL     1      24.795   7.215  49.915  1.00  0.00     0.086 C 
ENDBRANCH  13  15
ENDBRANCH   8  13
BRANCH   1  22
HETATM   22  C3  UNL     1      22.022  -0.525  52.314  1.00  0.00     0.039 C 
BRANCH  22  23
HETATM   23  C2  UNL     1      22.275  -1.231  53.596  1.00  0.00    -0.024 C 
HETATM   24  C1  UNL     1      21.316  -1.313  54.570  1.00  0.00     0.029 C 
ENDBRANCH  22  23
ENDBRANCH   1  22
TORSDOF 4
ENDMDL
MODEL 4
REMARK VINA RESULT:      -7.6      3.153      6.151
REMARK  4 active torsions:
REMARK  status: ('A' for Active; 'I' for Inactive)
REMARK    1  A    between atoms: C2_2  and  C3_3 
REMARK    2  A    between atoms: C3_3  and  C4_4 
REMARK    3  A    between atoms: N1_11  and  N2_12 
REMARK    4  A    between atoms: N2_12  and  C11_13 
ROOT
HETATM    1  C4  UNL     1      23.034   3.736  49.270  1.00  0.00    -0.052 C 
HETATM    2  C5  UNL     1      22.509   2.603  49.713  1.00  0.00     0.014 C 
HETATM    3  C6  UNL     1      22.586   1.725  50.934  1.00  0.00    -0.064 C 
HETATM    4  C7  UNL     1      21.781   0.454  50.813  1.00  0.00     0.048 C 
HETATM    5  C8  UNL     1      23.240   1.861  52.101  1.00  0.00     0.001 C 
HETATM    6  C9  UNL     1      24.145   2.787  52.846  1.00  0.00     0.099 C 
HETATM    7  C10 UNL     1      23.779   4.230  52.716  1.00  0.00     0.032 C 
HETATM    8  N1  UNL     1      25.492   2.476  52.349  1.00  0.00    -0.220 NA
HETATM    9  C17 UNL     1      25.437   2.500  50.922  1.00  0.00     0.142 C 
HETATM   10  C18 UNL     1      25.267   3.782  50.250  1.00  0.00    -0.003 C 
HETATM   11  C19 UNL     1      24.346   4.432  49.518  1.00  0.00    -0.058 C 
HETATM   12  C20 UNL     1      24.750   5.756  49.030  1.00  0.00     0.048 C 
ENDROOT
BRANCH   8  13
HETATM   13  N2  UNL     1      25.734   1.148  52.719  1.00  0.00    -0.321 N 
HETATM   14  H15 UNL     1      24.996   0.418  52.838  1.00  0.00     0.180 HD
BRANCH  13  15
HETATM   15  C11 UNL     1      27.100   0.829  52.931  1.00  0.00     0.042 C 
HETATM   16  C12 UNL     1      27.453  -0.457  52.929  1.00  0.00     0.039 C 
HETATM   17 CL1  UNL     1      26.262  -1.724  52.671  1.00  0.00    -0.087 Cl
HETATM   18  C13 UNL     1      28.923  -0.645  53.166  1.00  0.00     0.080 C 
HETATM   19  C14 UNL     1      29.323   0.090  54.416  1.00  0.00    -0.025 C 
HETATM   20  C15 UNL     1      28.924   1.363  54.381  1.00  0.00    -0.024 C 
HETATM   21  C16 UNL     1      28.185   1.809  53.158  1.00  0.00     0.086 C 
ENDBRANCH  13  15
ENDBRANCH   8  13
BRANCH   1  22
HETATM   22  C3  UNL     1      22.638   4.319  47.954  1.00  0.00     0.039 C 
BRANCH  22  23
HETATM   23  C2  UNL     1      22.061   3.329  47.010  1.00  0.00    -0.024 C 
HETATM   24  C1  UNL     1      21.917   3.609  45.678  1.00  0.00     0.029 C 
ENDBRANCH  22  23
ENDBRANCH   1  22
TORSDOF 4
ENDMDL
MODEL 5
REMARK VINA RESULT:      -7.4      3.454      6.604
REMARK  4 active torsions:
REMARK  status: ('A' for Active; 'I' for Inactive)
REMARK    1  A    between atoms: C2_2  and  C3_3 
REMARK    2  A    between atoms: C3_3  and  C4_4 
REMARK    3  A    between atoms: N1_11  and  N2_12 
REMARK    4  A    between atoms: N2_12  and  C11_13 
ROOT
HETATM    1  C4  UNL     1      26.331   0.730  52.339  1.00  0.00    -0.052 C 
HETATM    2  C5  UNL     1      26.557   1.563  51.332  1.00  0.00     0.014 C 
HETATM    3  C6  UNL     1      25.937   2.792  50.724  1.00  0.00    -0.064 C 
HETATM    4  C7  UNL     1      26.637   3.262  49.472  1.00  0.00     0.048 C 
HETATM    5  C8  UNL     1      24.879   3.540  51.084  1.00  0.00     0.001 C 
HETATM    6  C9  UNL     1      23.814   3.653  52.125  1.00  0.00     0.099 C 
HETATM    7  C10 UNL     1      24.296   3.403  53.517  1.00  0.00     0.032 C 
HETATM    8  N1  UNL     1      22.764   2.723  51.692  1.00  0.00    -0.220 NA
HETATM    9  C17 UNL     1      23.390   1.467  51.421  1.00  0.00     0.142 C 
HETATM   10  C18 UNL     1      23.901   0.686  52.541  1.00  0.00    -0.003 C 
HETATM   11  C19 UNL     1      25.080   0.280  53.044  1.00  0.00    -0.058 C 
HETATM   12  C20 UNL     1      24.995  -0.580  54.230  1.00  0.00     0.048 C 
ENDROOT
BRANCH   8  13
HETATM   13  N2  UNL     1      22.307   3.214  50.464  1.00  0.00    -0.321 N 
HETATM   14  H15 UNL     1      22.920   3.587  49.705  1.00  0.00     0.180 HD
BRANCH  13  15
HETATM   15  C11 UNL     1      20.898   3.176  50.294  1.00  0.00     0.042 C 
HETATM   16  C12 UNL     1      20.396   2.336  49.390  1.00  0.00     0.039 C 
HETATM   17 CL1  UNL     1      21.446   1.301  48.431  1.00  0.00    -0.087 Cl
HETATM   18  C13 UNL     1      18.899   2.403  49.319  1.00  0.00     0.080 C 
HETATM   19  C14 UNL     1      18.474   3.833  49.117  1.00  0.00    -0.025 C 
HETATM   20  C15 UNL     1      19.024   4.636  50.030  1.00  0.00    -0.024 C 
HETATM   21  C16 UNL     1      19.922   3.998  51.044  1.00  0.00     0.086 C 
ENDBRANCH  13  15
ENDBRANCH   8  13
BRANCH   1  22
HETATM   22  C3  UNL     1      27.261  -0.396  52.646  1.00  0.00     0.039 C 
BRANCH  22  23
HETATM   23  C2  UNL     1      28.475   0.017  53.393  1.00  0.00    -0.024 C 
HETATM   24  C1  UNL     1      29.567  -0.803  53.496  1.00  0.00     0.029 C 
ENDBRANCH  22  23
ENDBRANCH   1  22
TORSDOF 4
ENDMDL
MODEL 6
REMARK VINA RESULT:      -7.4      2.872      4.843
REMARK  4 active torsions:
REMARK  status: ('A' for Active; 'I' for Inactive)
REMARK    1  A    between atoms: C2_2  and  C3_3 
REMARK    2  A    between atoms: C3_3  and  C4_4 
REMARK    3  A    between atoms: N1_11  and  N2_12 
REMARK    4  A    between atoms: N2_12  and  C11_13 
ROOT
HETATM    1  C4  UNL     1      23.010   0.738  52.916  1.00  0.00    -0.052 C 
HETATM    2  C5  UNL     1      21.922   1.479  52.767  1.00  0.00     0.014 C 
HETATM    3  C6  UNL     1      21.509   2.751  52.075  1.00  0.00    -0.064 C 
HETATM    4  C7  UNL     1      20.082   3.155  52.358  1.00  0.00     0.048 C 
HETATM    5  C8  UNL     1      22.173   3.590  51.260  1.00  0.00     0.001 C 
HETATM    6  C9  UNL     1      23.500   3.795  50.606  1.00  0.00     0.099 C 
HETATM    7  C10 UNL     1      24.104   2.546  50.051  1.00  0.00     0.032 C 
HETATM    8  N1  UNL     1      24.329   4.442  51.631  1.00  0.00    -0.220 NA
HETATM    9  C17 UNL     1      24.216   3.666  52.825  1.00  0.00     0.142 C 
HETATM   10  C18 UNL     1      24.840   2.349  52.864  1.00  0.00    -0.003 C 
HETATM   11  C19 UNL     1      24.481   1.054  52.919  1.00  0.00    -0.058 C 
HETATM   12  C20 UNL     1      25.591   0.097  52.993  1.00  0.00     0.048 C 
ENDROOT
BRANCH   8  13
HETATM   13  N2  UNL     1      23.714   5.671  51.894  1.00  0.00    -0.321 N 
HETATM   14  H15 UNL     1      23.066   5.855  52.692  1.00  0.00     0.180 HD
BRANCH  13  15
HETATM   15  C11 UNL     1      24.034   6.706  50.976  1.00  0.00     0.042 C 
HETATM   16  C12 UNL     1      23.040   7.459  50.506  1.00  0.00     0.039 C 
HETATM   17 CL1  UNL     1      21.377   7.182  51.006  1.00  0.00    -0.087 Cl
HETATM   18  C13 UNL     1      23.524   8.508  49.549  1.00  0.00     0.080 C 
HETATM   19  C14 UNL     1      24.350   7.857  48.473  1.00  0.00    -0.025 C 
HETATM   20  C15 UNL     1      25.313   7.094  48.994  1.00  0.00    -0.024 C 
HETATM   21  C16 UNL     1      25.393   7.028  50.488  1.00  0.00     0.086 C 
ENDBRANCH  13  15
ENDBRANCH   8  13
BRANCH   1  22
HETATM   22  C3  UNL     1      22.984  -0.542  53.685  1.00  0.00     0.039 C 
BRANCH  22  23
HETATM   23  C2  UNL     1      21.797  -0.688  54.564  1.00  0.00    -0.024 C 
HETATM   24  C1  UNL     1      20.799  -1.580  54.277  1.00  0.00     0.029 C 
ENDBRANCH  22  23
ENDBRANCH   1  22
TORSDOF 4
ENDMDL
MODEL 7
REMARK VINA RESULT:      -7.2      4.098      6.865
REMARK  4 active torsions:
REMARK  status: ('A' for Active; 'I' for Inactive)
REMARK    1  A    between atoms: C2_2  and  C3_3 
REMARK    2  A    between atoms: C3_3  and  C4_4 
REMARK    3  A    between atoms: N1_11  and  N2_12 
REMARK    4  A    between atoms: N2_12  and  C11_13 
ROOT
HETATM    1  C4  UNL     1      23.234   5.348  49.338  1.00  0.00    -0.052 C 
HETATM    2  C5  UNL     1      24.523   5.094  49.162  1.00  0.00     0.014 C 
HETATM    3  C6  UNL     1      25.552   4.099  49.627  1.00  0.00    -0.064 C 
HETATM    4  C7  UNL     1      26.945   4.393  49.125  1.00  0.00     0.048 C 
HETATM    5  C8  UNL     1      25.461   3.008  50.408  1.00  0.00     0.001 C 
HETATM    6  C9  UNL     1      24.480   2.190  51.182  1.00  0.00     0.099 C 
HETATM    7  C10 UNL     1      23.178   1.977  50.481  1.00  0.00     0.032 C 
HETATM    8  N1  UNL     1      24.346   2.884  52.470  1.00  0.00    -0.220 NA
HETATM    9  C17 UNL     1      24.088   4.261  52.188  1.00  0.00     0.142 C 
HETATM   10  C18 UNL     1      22.794   4.629  51.627  1.00  0.00    -0.003 C 
HETATM   11  C19 UNL     1      22.282   5.105  50.478  1.00  0.00    -0.058 C 
HETATM   12  C20 UNL     1      20.835   5.349  50.488  1.00  0.00     0.048 C 
ENDROOT
BRANCH   8  13
HETATM   13  N2  UNL     1      25.612   2.828  53.063  1.00  0.00    -0.321 N 
HETATM   14  H15 UNL     1      26.240   3.650  53.208  1.00  0.00     0.180 HD
BRANCH  13  15
HETATM   15  C11 UNL     1      26.017   1.533  53.481  1.00  0.00     0.042 C 
HETATM   16  C12 UNL     1      27.319   1.311  53.664  1.00  0.00     0.039 C 
HETATM   17 CL1  UNL     1      28.504   2.581  53.396  1.00  0.00    -0.087 Cl
HETATM   18  C13 UNL     1      27.599  -0.097  54.103  1.00  0.00     0.080 C 
HETATM   19  C14 UNL     1      26.950  -1.056  53.142  1.00  0.00    -0.025 C 
HETATM   20  C15 UNL     1      25.657  -0.774  52.973  1.00  0.00    -0.024 C 
HETATM   21  C16 UNL     1      25.111   0.392  53.736  1.00  0.00     0.086 C 
ENDBRANCH  13  15
ENDBRANCH   8  13
BRANCH   1  22
HETATM   22  C3  UNL     1      22.551   6.462  48.618  1.00  0.00     0.039 C 
BRANCH  22  23
HETATM   23  C2  UNL     1      23.079   7.807  48.958  1.00  0.00    -0.024 C 
HETATM   24  C1  UNL     1      22.243   8.859  49.222  1.00  0.00     0.029 C 
ENDBRANCH  22  23
ENDBRANCH   1  22
TORSDOF 4
ENDMDL
MODEL 8
REMARK VINA RESULT:      -7.2      2.251      7.830
REMARK  4 active torsions:
REMARK  status: ('A' for Active; 'I' for Inactive)
REMARK    1  A    between atoms: C2_2  and  C3_3 
REMARK    2  A    between atoms: C3_3  and  C4_4 
REMARK    3  A    between atoms: N1_11  and  N2_12 
REMARK    4  A    between atoms: N2_12  and  C11_13 
ROOT
HETATM    1  C4  UNL     1      25.991   4.837  49.235  1.00  0.00    -0.052 C 
HETATM    2  C5  UNL     1      26.409   3.859  50.026  1.00  0.00     0.014 C 
HETATM    3  C6  UNL     1      25.835   2.675  50.756  1.00  0.00    -0.064 C 
HETATM    4  C7  UNL     1      26.844   1.947  51.610  1.00  0.00     0.048 C 
HETATM    5  C8  UNL     1      24.596   2.152  50.792  1.00  0.00     0.001 C 
HETATM    6  C9  UNL     1      23.221   2.339  50.239  1.00  0.00     0.099 C 
HETATM    7  C10 UNL     1      23.191   2.685  48.786  1.00  0.00     0.032 C 
HETATM    8  N1  UNL     1      22.606   3.360  51.098  1.00  0.00    -0.220 NA
HETATM    9  C17 UNL     1      23.517   4.457  51.176  1.00  0.00     0.142 C 
HETATM   10  C18 UNL     1      23.716   5.285  49.992  1.00  0.00    -0.003 C 
HETATM   11  C19 UNL     1      24.679   5.562  49.096  1.00  0.00    -0.058 C 
HETATM   12  C20 UNL     1      24.328   6.567  48.086  1.00  0.00     0.048 C 
ENDROOT
BRANCH   8  13
HETATM   13  N2  UNL     1      22.551   2.794  52.377  1.00  0.00    -0.321 N 
HETATM   14  H15 UNL     1      23.051   3.167  53.216  1.00  0.00     0.180 HD
BRANCH  13  15
HETATM   15  C11 UNL     1      21.740   1.634  52.481  1.00  0.00     0.042 C 
HETATM   16  C12 UNL     1      20.420   1.777  52.363  1.00  0.00     0.039 C 
HETATM   17 CL1  UNL     1      19.699   3.357  52.087  1.00  0.00    -0.087 Cl
HETATM   18  C13 UNL     1      19.692   0.471  52.495  1.00  0.00     0.080 C 
HETATM   19  C14 UNL     1      20.115  -0.208  53.769  1.00  0.00    -0.025 C 
HETATM   20  C15 UNL     1      21.444  -0.302  53.851  1.00  0.00    -0.024 C 
HETATM   21  C16 UNL     1      22.237   0.259  52.712  1.00  0.00     0.086 C 
ENDBRANCH  13  15
ENDBRANCH   8  13
BRANCH   1  22
HETATM   22  C3  UNL     1      26.939   5.834  48.656  1.00  0.00     0.039 C 
BRANCH  22  23
HETATM   23  C2  UNL     1      28.288   5.282  48.372  1.00  0.00    -0.024 C 
HETATM   24  C1  UNL     1      29.358   6.099  48.121  1.00  0.00     0.029 C 
ENDBRANCH  22  23
ENDBRANCH   1  22
TORSDOF 4
ENDMDL
MODEL 9
REMARK VINA RESULT:      -7.1      4.076      6.399
REMARK  4 active torsions:
REMARK  status: ('A' for Active; 'I' for Inactive)
REMARK    1  A    between atoms: C2_2  and  C3_3 
REMARK    2  A    between atoms: C3_3  and  C4_4 
REMARK    3  A    between atoms: N1_11  and  N2_12 
REMARK    4  A    between atoms: N2_12  and  C11_13 
ROOT
HETATM    1  C4  UNL     1      25.924   1.304  51.873  1.00  0.00    -0.052 C 
HETATM    2  C5  UNL     1      26.398   2.160  50.980  1.00  0.00     0.014 C 
HETATM    3  C6  UNL     1      25.999   3.465  50.344  1.00  0.00    -0.064 C 
HETATM    4  C7  UNL     1      26.957   3.932  49.275  1.00  0.00     0.048 C 
HETATM    5  C8  UNL     1      24.951   4.283  50.548  1.00  0.00     0.001 C 
HETATM    6  C9  UNL     1      23.719   4.438  51.379  1.00  0.00     0.099 C 
HETATM    7  C10 UNL     1      23.907   4.082  52.817  1.00  0.00     0.032 C 
HETATM    8  N1  UNL     1      22.704   3.621  50.701  1.00  0.00    -0.220 NA
HETATM    9  C17 UNL     1      23.274   2.331  50.474  1.00  0.00     0.142 C 
HETATM   10  C18 UNL     1      23.503   1.457  51.618  1.00  0.00    -0.003 C 
HETATM   11  C19 UNL     1      24.531   0.929  52.305  1.00  0.00    -0.058 C 
HETATM   12  C20 UNL     1      24.158   0.025  53.399  1.00  0.00     0.048 C 
ENDROOT
BRANCH   8  13
HETATM   13  N2  UNL     1      22.526   4.207  49.443  1.00  0.00    -0.321 N 
HETATM   14  H15 UNL     1      22.895   3.818  48.546  1.00  0.00     0.180 HD
BRANCH  13  15
HETATM   15  C11 UNL     1      21.780   5.415  49.447  1.00  0.00     0.042 C 
HETATM   16  C12 UNL     1      21.781   6.158  48.341  1.00  0.00     0.039 C 
HETATM   17 CL1  UNL     1      22.680   5.662  46.914  1.00  0.00    -0.087 Cl
HETATM   18  C13 UNL     1      20.954   7.402  48.490  1.00  0.00     0.080 C 
HETATM   19  C14 UNL     1      21.394   8.147  49.721  1.00  0.00    -0.025 C 
HETATM   20  C15 UNL     1      21.402   7.353  50.794  1.00  0.00    -0.024 C 
HETATM   21  C16 UNL     1      20.989   5.928  50.587  1.00  0.00     0.086 C 
ENDBRANCH  13  15
ENDBRANCH   8  13
BRANCH   1  22
HETATM   22  C3  UNL     1      26.692   0.089  52.277  1.00  0.00     0.039 C 
BRANCH  22  23
HETATM   23  C2  UNL     1      27.861   0.381  53.143  1.00  0.00    -0.024 C 
HETATM   24  C1  UNL     1      27.816   0.182  54.497  1.00  0.00     0.029 C 
ENDBRANCH  22  23
ENDBRANCH   1  22
TORSDOF 4
ENDMDL
