MODEL 1
REMARK VINA RESULT:      -8.6      0.000      0.000
REMARK  5 active torsions:
REMARK  status: ('A' for Active; 'I' for Inactive)
REMARK    1  A    between atoms: C5_5  and  N1_6 
REMARK    2  A    between atoms: N1_6  and  C6_7 
REMARK    3  A    between atoms: C10_14  and  O1_15 
REMARK    4  A    between atoms: O1_15  and  C11_16 
REMARK    5  A    between atoms: C18_24  and  O3_25 
ROOT
HETATM    1  C1  UNL     1      30.149  -0.603  53.532  1.00  0.00     0.049 C 
HETATM    2  C2  UNL     1      28.947   0.255  53.538  1.00  0.00    -0.041 A 
HETATM    3  C3  UNL     1      29.080   1.612  53.844  1.00  0.00     0.010 A 
HETATM    4  C4  UNL     1      27.953   2.404  53.848  1.00  0.00     0.030 A 
HETATM    5  C5  UNL     1      26.707   1.900  53.558  1.00  0.00     0.034 A 
HETATM    6  C19 UNL     1      26.568   0.560  53.254  1.00  0.00     0.052 A 
HETATM    7  C20 UNL     1      27.689  -0.218  53.254  1.00  0.00     0.052 A 
HETATM    8  C21 UNL     1      27.634  -1.637  52.945  1.00  0.00     0.100 C 
HETATM    9  N5  UNL     1      27.580  -2.782  52.702  1.00  0.00    -0.191 NA
ENDROOT
BRANCH   5  10
HETATM   10  N1  UNL     1      25.491   2.657  53.539  1.00  0.00    -0.344 N 
HETATM   11  H6  UNL     1      24.988   3.263  54.195  1.00  0.00     0.167 HD
BRANCH  10  12
HETATM   12  C6  UNL     1      24.894   2.470  52.264  1.00  0.00     0.120 C 
HETATM   13  N2  UNL     1      25.180   2.673  51.038  1.00  0.00    -0.130 NA
HETATM   14  C7  UNL     1      26.376   3.237  50.601  1.00  0.00     0.203 A 
HETATM   15  N3  UNL     1      25.264   3.691  50.154  1.00  0.00    -0.256 N 
HETATM   16  C8  UNL     1      25.130   4.735  49.237  1.00  0.00     0.222 C 
HETATM   17  N4  UNL     1      24.008   5.262  49.616  1.00  0.00    -0.277 NA
HETATM   18  C9  UNL     1      23.201   4.794  50.717  1.00  0.00     0.215 C 
HETATM   19  C10 UNL     1      22.534   3.496  50.477  1.00  0.00     0.076 C 
HETATM   20  C14 UNL     1      22.608   2.273  51.036  1.00  0.00     0.019 C 
HETATM   21  C15 UNL     1      23.501   1.941  52.155  1.00  0.00     0.038 C 
HETATM   22  C18 UNL     1      21.744   1.193  50.504  1.00  0.00     0.179 C 
HETATM   23  C16 UNL     1      23.059   1.141  53.113  1.00  0.00     0.150 C 
HETATM   24  O2  UNL     1      21.758   0.762  52.828  1.00  0.00    -0.359 OA
HETATM   25  C17 UNL     1      21.447   0.176  51.581  1.00  0.00     0.211 C 
BRANCH  19  26
HETATM   26  O1  UNL     1      21.636   3.617  49.426  1.00  0.00    -0.348 OA
BRANCH  26  27
HETATM   27  C11 UNL     1      21.937   3.965  48.111  1.00  0.00     0.120 C 
HETATM   28  C12 UNL     1      20.734   4.709  47.561  1.00  0.00     0.040 C 
HETATM   29  C13 UNL     1      22.237   2.791  47.215  1.00  0.00     0.040 C 
ENDBRANCH  26  27
ENDBRANCH  19  26
BRANCH  22  30
HETATM   30  O3  UNL     1      20.521   1.752  50.111  1.00  0.00    -0.389 OA
HETATM   31  H22 UNL     1      20.543   1.766  49.108  1.00  0.00     0.210 HD
ENDBRANCH  22  30
ENDBRANCH  10  12
ENDBRANCH   5  10
TORSDOF 5
ENDMDL
MODEL 2
REMARK VINA RESULT:      -8.3      1.795      2.549
REMARK  5 active torsions:
REMARK  status: ('A' for Active; 'I' for Inactive)
REMARK    1  A    between atoms: C5_5  and  N1_6 
REMARK    2  A    between atoms: N1_6  and  C6_7 
REMARK    3  A    between atoms: C10_14  and  O1_15 
REMARK    4  A    between atoms: O1_15  and  C11_16 
REMARK    5  A    between atoms: C18_24  and  O3_25 
ROOT
HETATM    1  C1  UNL     1      29.042  -0.802  53.577  1.00  0.00     0.049 C 
HETATM    2  C2  UNL     1      27.900   0.073  53.242  1.00  0.00    -0.041 A 
HETATM    3  C3  UNL     1      26.840  -0.445  52.495  1.00  0.00     0.010 A 
HETATM    4  C4  UNL     1      25.780   0.380  52.188  1.00  0.00     0.030 A 
HETATM    5  C5  UNL     1      25.736   1.693  52.595  1.00  0.00     0.034 A 
HETATM    6  C19 UNL     1      26.782   2.212  53.334  1.00  0.00     0.052 A 
HETATM    7  C20 UNL     1      27.827   1.389  53.633  1.00  0.00     0.052 A 
HETATM    8  C21 UNL     1      28.968   1.852  54.406  1.00  0.00     0.100 C 
HETATM    9  N5  UNL     1      29.887   2.236  55.023  1.00  0.00    -0.191 NA
ENDROOT
BRANCH   5  10
HETATM   10  N1  UNL     1      24.673   2.610  52.318  1.00  0.00    -0.344 N 
HETATM   11  H6  UNL     1      23.996   3.148  52.870  1.00  0.00     0.167 HD
BRANCH  10  12
HETATM   12  C6  UNL     1      24.601   2.764  50.907  1.00  0.00     0.120 C 
HETATM   13  N2  UNL     1      25.341   3.176  49.954  1.00  0.00    -0.130 NA
HETATM   14  C7  UNL     1      26.633   3.667  50.127  1.00  0.00     0.203 A 
HETATM   15  N3  UNL     1      25.793   4.335  49.428  1.00  0.00    -0.256 N 
HETATM   16  C8  UNL     1      26.057   5.553  48.799  1.00  0.00     0.222 C 
HETATM   17  N4  UNL     1      24.895   6.125  48.856  1.00  0.00    -0.277 NA
HETATM   18  C9  UNL     1      23.713   5.545  49.446  1.00  0.00     0.215 C 
HETATM   19  C10 UNL     1      23.141   4.416  48.681  1.00  0.00     0.076 C 
HETATM   20  C14 UNL     1      22.952   3.104  48.923  1.00  0.00     0.019 C 
HETATM   21  C15 UNL     1      23.337   2.443  50.178  1.00  0.00     0.038 C 
HETATM   22  C18 UNL     1      22.317   2.270  47.876  1.00  0.00     0.179 C 
HETATM   23  C16 UNL     1      22.535   1.524  50.692  1.00  0.00     0.150 C 
HETATM   24  O2  UNL     1      21.428   1.375  49.873  1.00  0.00    -0.359 OA
HETATM   25  C17 UNL     1      21.594   1.099  48.499  1.00  0.00     0.211 C 
BRANCH  19  26
HETATM   26  O1  UNL     1      22.717   4.858  47.436  1.00  0.00    -0.348 OA
BRANCH  26  27
HETATM   27  C11 UNL     1      22.332   6.155  47.101  1.00  0.00     0.120 C 
HETATM   28  C12 UNL     1      20.873   6.302  47.494  1.00  0.00     0.040 C 
HETATM   29  C13 UNL     1      22.480   6.484  45.638  1.00  0.00     0.040 C 
ENDBRANCH  26  27
ENDBRANCH  19  26
BRANCH  22  30
HETATM   30  O3  UNL     1      21.358   3.044  47.209  1.00  0.00    -0.389 OA
HETATM   31  H22 UNL     1      21.680   3.991  47.282  1.00  0.00     0.210 HD
ENDBRANCH  22  30
ENDBRANCH  10  12
ENDBRANCH   5  10
TORSDOF 5
ENDMDL
MODEL 3
REMARK VINA RESULT:      -7.9      2.705      6.077
REMARK  5 active torsions:
REMARK  status: ('A' for Active; 'I' for Inactive)
REMARK    1  A    between atoms: C5_5  and  N1_6 
REMARK    2  A    between atoms: N1_6  and  C6_7 
REMARK    3  A    between atoms: C10_14  and  O1_15 
REMARK    4  A    between atoms: O1_15  and  C11_16 
REMARK    5  A    between atoms: C18_24  and  O3_25 
ROOT
HETATM    1  C1  UNL     1      28.628   6.161  47.837  1.00  0.00     0.049 C 
HETATM    2  C2  UNL     1      27.446   5.751  48.623  1.00  0.00    -0.041 A 
HETATM    3  C3  UNL     1      27.262   4.399  48.922  1.00  0.00     0.010 A 
HETATM    4  C4  UNL     1      26.157   4.027  49.655  1.00  0.00     0.030 A 
HETATM    5  C5  UNL     1      25.234   4.944  50.100  1.00  0.00     0.034 A 
HETATM    6  C19 UNL     1      25.410   6.283  49.807  1.00  0.00     0.052 A 
HETATM    7  C20 UNL     1      26.506   6.643  49.081  1.00  0.00     0.052 A 
HETATM    8  C21 UNL     1      26.769   8.028  48.729  1.00  0.00     0.100 C 
HETATM    9  N5  UNL     1      26.969   9.148  48.444  1.00  0.00    -0.191 NA
ENDROOT
BRANCH   5  10
HETATM   10  N1  UNL     1      24.064   4.637  50.865  1.00  0.00    -0.344 N 
HETATM   11  H6  UNL     1      23.337   5.172  51.351  1.00  0.00     0.167 HD
BRANCH  10  12
HETATM   12  C6  UNL     1      23.949   3.222  50.916  1.00  0.00     0.120 C 
HETATM   13  N2  UNL     1      23.497   2.275  50.192  1.00  0.00    -0.130 NA
HETATM   14  C7  UNL     1      22.896   2.464  48.950  1.00  0.00     0.203 A 
HETATM   15  N3  UNL     1      22.316   1.730  49.826  1.00  0.00    -0.256 N 
HETATM   16  C8  UNL     1      21.095   1.078  49.651  1.00  0.00     0.222 C 
HETATM   17  N4  UNL     1      20.622   1.097  50.857  1.00  0.00    -0.277 NA
HETATM   18  C9  UNL     1      21.286   1.675  52.000  1.00  0.00     0.215 C 
HETATM   19  C10 UNL     1      22.476   0.926  52.458  1.00  0.00     0.076 C 
HETATM   20  C14 UNL     1      23.793   1.196  52.542  1.00  0.00     0.019 C 
HETATM   21  C15 UNL     1      24.391   2.474  52.132  1.00  0.00     0.038 C 
HETATM   22  C18 UNL     1      24.701   0.156  53.080  1.00  0.00     0.179 C 
HETATM   23  C16 UNL     1      25.363   2.994  52.866  1.00  0.00     0.150 C 
HETATM   24  O2  UNL     1      25.623   2.156  53.937  1.00  0.00    -0.359 OA
HETATM   25  C17 UNL     1      25.915   0.792  53.717  1.00  0.00     0.211 C 
BRANCH  19  26
HETATM   26  O1  UNL     1      22.100  -0.338  52.889  1.00  0.00    -0.348 OA
BRANCH  26  27
HETATM   27  C11 UNL     1      20.968  -0.659  53.635  1.00  0.00     0.120 C 
HETATM   28  C12 UNL     1      20.877   0.351  54.764  1.00  0.00     0.040 C 
HETATM   29  C13 UNL     1      20.988  -2.047  54.222  1.00  0.00     0.040 C 
ENDBRANCH  26  27
ENDBRANCH  19  26
BRANCH  22  30
HETATM   30  O3  UNL     1      24.027  -0.550  54.085  1.00  0.00    -0.389 OA
HETATM   31  H22 UNL     1      23.288  -1.042  53.617  1.00  0.00     0.210 HD
ENDBRANCH  22  30
ENDBRANCH  10  12
ENDBRANCH   5  10
TORSDOF 5
ENDMDL
MODEL 4
REMARK VINA RESULT:      -7.9      2.752      4.836
REMARK  5 active torsions:
REMARK  status: ('A' for Active; 'I' for Inactive)
REMARK    1  A    between atoms: C5_5  and  N1_6 
REMARK    2  A    between atoms: N1_6  and  C6_7 
REMARK    3  A    between atoms: C10_14  and  O1_15 
REMARK    4  A    between atoms: O1_15  and  C11_16 
REMARK    5  A    between atoms: C18_24  and  O3_25 
ROOT
HETATM    1  C1  UNL     1      23.291  -0.926  53.406  1.00  0.00     0.049 C 
HETATM    2  C2  UNL     1      23.575   0.483  53.067  1.00  0.00    -0.041 A 
HETATM    3  C3  UNL     1      22.601   1.234  52.404  1.00  0.00     0.010 A 
HETATM    4  C4  UNL     1      22.876   2.548  52.092  1.00  0.00     0.030 A 
HETATM    5  C5  UNL     1      24.075   3.138  52.415  1.00  0.00     0.034 A 
HETATM    6  C19 UNL     1      25.042   2.402  53.070  1.00  0.00     0.052 A 
HETATM    7  C20 UNL     1      24.763   1.102  53.375  1.00  0.00     0.052 A 
HETATM    8  C21 UNL     1      25.722   0.255  54.064  1.00  0.00     0.100 C 
HETATM    9  N5  UNL     1      26.505  -0.423  54.613  1.00  0.00    -0.191 NA
ENDROOT
BRANCH   5  10
HETATM   10  N1  UNL     1      24.434   4.494  52.127  1.00  0.00    -0.344 N 
HETATM   11  H6  UNL     1      24.630   5.340  52.673  1.00  0.00     0.167 HD
BRANCH  10  12
HETATM   12  C6  UNL     1      24.523   4.619  50.714  1.00  0.00     0.120 C 
HETATM   13  N2  UNL     1      25.280   4.224  49.768  1.00  0.00    -0.130 NA
HETATM   14  C7  UNL     1      26.411   3.432  49.954  1.00  0.00     0.203 A 
HETATM   15  N3  UNL     1      26.494   4.493  49.240  1.00  0.00    -0.256 N 
HETATM   16  C8  UNL     1      27.651   4.948  48.606  1.00  0.00     0.222 C 
HETATM   17  N4  UNL     1      27.474   6.232  48.645  1.00  0.00    -0.277 NA
HETATM   18  C9  UNL     1      26.329   6.893  49.223  1.00  0.00     0.215 C 
HETATM   19  C10 UNL     1      25.075   6.723  48.459  1.00  0.00     0.076 C 
HETATM   20  C14 UNL     1      23.882   6.147  48.708  1.00  0.00     0.019 C 
HETATM   21  C15 UNL     1      23.549   5.476  49.972  1.00  0.00     0.038 C 
HETATM   22  C18 UNL     1      22.838   6.190  47.658  1.00  0.00     0.179 C 
HETATM   23  C16 UNL     1      22.338   5.632  50.482  1.00  0.00     0.150 C 
HETATM   24  O2  UNL     1      21.594   6.453  49.650  1.00  0.00    -0.359 OA
HETATM   25  C17 UNL     1      21.462   6.141  48.280  1.00  0.00     0.211 C 
BRANCH  19  26
HETATM   26  O1  UNL     1      25.205   7.304  47.206  1.00  0.00    -0.348 OA
BRANCH  26  27
HETATM   27  C11 UNL     1      26.028   8.377  46.868  1.00  0.00     0.120 C 
HETATM   28  C12 UNL     1      25.351   9.635  47.380  1.00  0.00     0.040 C 
HETATM   29  C13 UNL     1      26.277   8.522  45.389  1.00  0.00     0.040 C 
ENDBRANCH  26  27
ENDBRANCH  19  26
BRANCH  22  30
HETATM   30  O3  UNL     1      22.941   7.409  46.974  1.00  0.00    -0.389 OA
HETATM   31  H22 UNL     1      23.703   7.896  47.408  1.00  0.00     0.210 HD
ENDBRANCH  22  30
ENDBRANCH  10  12
ENDBRANCH   5  10
TORSDOF 5
ENDMDL
MODEL 5
REMARK VINA RESULT:      -7.7      2.344      3.201
REMARK  5 active torsions:
REMARK  status: ('A' for Active; 'I' for Inactive)
REMARK    1  A    between atoms: C5_5  and  N1_6 
REMARK    2  A    between atoms: N1_6  and  C6_7 
REMARK    3  A    between atoms: C10_14  and  O1_15 
REMARK    4  A    between atoms: O1_15  and  C11_16 
REMARK    5  A    between atoms: C18_24  and  O3_25 
ROOT
HETATM    1  C1  UNL     1      26.820  -1.415  52.802  1.00  0.00     0.049 C 
HETATM    2  C2  UNL     1      26.133  -0.111  52.898  1.00  0.00    -0.041 A 
HETATM    3  C3  UNL     1      24.769  -0.036  52.605  1.00  0.00     0.010 A 
HETATM    4  C4  UNL     1      24.137   1.184  52.697  1.00  0.00     0.030 A 
HETATM    5  C5  UNL     1      24.807   2.326  53.069  1.00  0.00     0.034 A 
HETATM    6  C19 UNL     1      26.156   2.259  53.360  1.00  0.00     0.052 A 
HETATM    7  C20 UNL     1      26.774   1.047  53.265  1.00  0.00     0.052 A 
HETATM    8  C21 UNL     1      28.190   0.887  53.554  1.00  0.00     0.100 C 
HETATM    9  N5  UNL     1      29.334   0.768  53.781  1.00  0.00    -0.191 NA
ENDROOT
BRANCH   5  10
HETATM   10  N1  UNL     1      24.223   3.627  53.188  1.00  0.00    -0.344 N 
HETATM   11  H6  UNL     1      24.138   4.335  53.925  1.00  0.00     0.167 HD
BRANCH  10  12
HETATM   12  C6  UNL     1      23.637   3.947  51.934  1.00  0.00     0.120 C 
HETATM   13  N2  UNL     1      24.015   4.218  50.747  1.00  0.00    -0.130 NA
HETATM   14  C7  UNL     1      25.348   4.276  50.348  1.00  0.00     0.203 A 
HETATM   15  N3  UNL     1      24.557   5.238  50.046  1.00  0.00    -0.256 N 
HETATM   16  C8  UNL     1      24.915   6.380  49.328  1.00  0.00     0.222 C 
HETATM   17  N4  UNL     1      24.126   7.266  49.851  1.00  0.00    -0.277 NA
HETATM   18  C9  UNL     1      23.168   7.007  50.898  1.00  0.00     0.215 C 
HETATM   19  C10 UNL     1      22.008   6.192  50.478  1.00  0.00     0.076 C 
HETATM   20  C14 UNL     1      21.527   4.980  50.816  1.00  0.00     0.019 C 
HETATM   21  C15 UNL     1      22.156   4.102  51.812  1.00  0.00     0.038 C 
HETATM   22  C18 UNL     1      20.293   4.494  50.156  1.00  0.00     0.179 C 
HETATM   23  C16 UNL     1      21.386   3.417  52.642  1.00  0.00     0.150 C 
HETATM   24  O2  UNL     1      20.057   3.696  52.368  1.00  0.00    -0.359 OA
HETATM   25  C17 UNL     1      19.554   3.534  51.059  1.00  0.00     0.211 C 
BRANCH  19  26
HETATM   26  O1  UNL     1      21.279   6.873  49.513  1.00  0.00    -0.348 OA
BRANCH  26  27
HETATM   27  C11 UNL     1      21.321   8.242  49.251  1.00  0.00     0.120 C 
HETATM   28  C12 UNL     1      20.107   8.860  49.920  1.00  0.00     0.040 C 
HETATM   29  C13 UNL     1      21.304   8.591  47.786  1.00  0.00     0.040 C 
ENDBRANCH  26  27
ENDBRANCH  19  26
BRANCH  22  30
HETATM   30  O3  UNL     1      19.446   5.587  49.930  1.00  0.00    -0.389 OA
HETATM   31  H22 UNL     1      19.978   6.226  49.368  1.00  0.00     0.210 HD
ENDBRANCH  22  30
ENDBRANCH  10  12
ENDBRANCH   5  10
TORSDOF 5
ENDMDL
MODEL 6
REMARK VINA RESULT:      -7.7      2.577      4.051
REMARK  5 active torsions:
REMARK  status: ('A' for Active; 'I' for Inactive)
REMARK    1  A    between atoms: C5_5  and  N1_6 
REMARK    2  A    between atoms: N1_6  and  C6_7 
REMARK    3  A    between atoms: C10_14  and  O1_15 
REMARK    4  A    between atoms: O1_15  and  C11_16 
REMARK    5  A    between atoms: C18_24  and  O3_25 
ROOT
HETATM    1  C1  UNL     1      26.848  -0.700  52.097  1.00  0.00     0.049 C 
HETATM    2  C2  UNL     1      26.140   0.580  52.307  1.00  0.00    -0.041 A 
HETATM    3  C3  UNL     1      26.283   1.601  51.364  1.00  0.00     0.010 A 
HETATM    4  C4  UNL     1      25.620   2.791  51.569  1.00  0.00     0.030 A 
HETATM    5  C5  UNL     1      24.824   3.001  52.671  1.00  0.00     0.034 A 
HETATM    6  C19 UNL     1      24.678   1.996  53.608  1.00  0.00     0.052 A 
HETATM    7  C20 UNL     1      25.339   0.822  53.397  1.00  0.00     0.052 A 
HETATM    8  C21 UNL     1      25.241  -0.288  54.330  1.00  0.00     0.100 C 
HETATM    9  N5  UNL     1      25.163  -1.175  55.093  1.00  0.00    -0.191 NA
ENDROOT
BRANCH   5  10
HETATM   10  N1  UNL     1      24.103   4.205  52.954  1.00  0.00    -0.344 N 
HETATM   11  H6  UNL     1      24.082   4.893  53.714  1.00  0.00     0.167 HD
BRANCH  10  12
HETATM   12  C6  UNL     1      23.221   4.438  51.865  1.00  0.00     0.120 C 
HETATM   13  N2  UNL     1      22.151   3.941  51.383  1.00  0.00    -0.130 NA
HETATM   14  C7  UNL     1      21.490   2.841  51.923  1.00  0.00     0.203 A 
HETATM   15  N3  UNL     1      21.744   2.870  50.667  1.00  0.00    -0.256 N 
HETATM   16  C8  UNL     1      21.409   1.868  49.755  1.00  0.00     0.222 C 
HETATM   17  N4  UNL     1      22.382   1.965  48.904  1.00  0.00    -0.277 NA
HETATM   18  C9  UNL     1      23.470   2.909  48.992  1.00  0.00     0.215 C 
HETATM   19  C10 UNL     1      23.082   4.313  48.738  1.00  0.00     0.076 C 
HETATM   20  C14 UNL     1      23.078   5.444  49.470  1.00  0.00     0.019 C 
HETATM   21  C15 UNL     1      23.521   5.511  50.869  1.00  0.00     0.038 C 
HETATM   22  C18 UNL     1      22.606   6.699  48.839  1.00  0.00     0.179 C 
HETATM   23  C16 UNL     1      24.216   6.562  51.273  1.00  0.00     0.150 C 
HETATM   24  O2  UNL     1      24.385   7.434  50.210  1.00  0.00    -0.359 OA
HETATM   25  C17 UNL     1      23.264   7.895  49.487  1.00  0.00     0.211 C 
BRANCH  19  26
HETATM   26  O1  UNL     1      22.622   4.446  47.435  1.00  0.00    -0.348 OA
BRANCH  26  27
HETATM   27  C11 UNL     1      21.529   3.794  46.869  1.00  0.00     0.120 C 
HETATM   28  C12 UNL     1      21.706   3.853  45.363  1.00  0.00     0.040 C 
HETATM   29  C13 UNL     1      20.195   4.397  47.229  1.00  0.00     0.040 C 
ENDBRANCH  26  27
ENDBRANCH  19  26
BRANCH  22  30
HETATM   30  O3  UNL     1      22.989   6.694  47.491  1.00  0.00    -0.389 OA
HETATM   31  H22 UNL     1      22.132   6.702  46.969  1.00  0.00     0.210 HD
ENDBRANCH  22  30
ENDBRANCH  10  12
ENDBRANCH   5  10
TORSDOF 5
ENDMDL
MODEL 7
REMARK VINA RESULT:      -7.6      3.574      5.438
REMARK  5 active torsions:
REMARK  status: ('A' for Active; 'I' for Inactive)
REMARK    1  A    between atoms: C5_5  and  N1_6 
REMARK    2  A    between atoms: N1_6  and  C6_7 
REMARK    3  A    between atoms: C10_14  and  O1_15 
REMARK    4  A    between atoms: O1_15  and  C11_16 
REMARK    5  A    between atoms: C18_24  and  O3_25 
ROOT
HETATM    1  C1  UNL     1      19.887  -0.143  52.034  1.00  0.00     0.049 C 
HETATM    2  C2  UNL     1      21.228   0.453  51.866  1.00  0.00    -0.041 A 
HETATM    3  C3  UNL     1      21.519   1.159  50.695  1.00  0.00     0.010 A 
HETATM    4  C4  UNL     1      22.773   1.710  50.548  1.00  0.00     0.030 A 
HETATM    5  C5  UNL     1      23.742   1.587  51.516  1.00  0.00     0.034 A 
HETATM    6  C19 UNL     1      23.462   0.890  52.675  1.00  0.00     0.052 A 
HETATM    7  C20 UNL     1      22.218   0.347  52.813  1.00  0.00     0.052 A 
HETATM    8  C21 UNL     1      21.838  -0.401  54.000  1.00  0.00     0.100 C 
HETATM    9  N5  UNL     1      21.543  -1.009  54.958  1.00  0.00    -0.191 NA
ENDROOT
BRANCH   5  10
HETATM   10  N1  UNL     1      25.064   2.130  51.437  1.00  0.00    -0.344 N 
HETATM   11  H6  UNL     1      26.019   1.764  51.506  1.00  0.00     0.167 HD
BRANCH  10  12
HETATM   12  C6  UNL     1      24.937   3.526  51.205  1.00  0.00     0.120 C 
HETATM   13  N2  UNL     1      24.303   4.519  51.690  1.00  0.00    -0.130 NA
HETATM   14  C7  UNL     1      23.417   4.430  52.762  1.00  0.00     0.203 A 
HETATM   15  N3  UNL     1      23.057   5.043  51.696  1.00  0.00    -0.256 N 
HETATM   16  C8  UNL     1      21.818   5.653  51.498  1.00  0.00     0.222 C 
HETATM   17  N4  UNL     1      21.656   5.490  50.222  1.00  0.00    -0.277 NA
HETATM   18  C9  UNL     1      22.593   4.831  49.345  1.00  0.00     0.215 C 
HETATM   19  C10 UNL     1      23.844   5.584  49.110  1.00  0.00     0.076 C 
HETATM   20  C14 UNL     1      25.146   5.367  49.379  1.00  0.00     0.019 C 
HETATM   21  C15 UNL     1      25.650   4.166  50.058  1.00  0.00     0.038 C 
HETATM   22  C18 UNL     1      26.138   6.389  48.966  1.00  0.00     0.179 C 
HETATM   23  C16 UNL     1      26.783   3.621  49.643  1.00  0.00     0.150 C 
HETATM   24  O2  UNL     1      27.282   4.357  48.582  1.00  0.00    -0.359 OA
HETATM   25  C17 UNL     1      27.483   5.748  48.717  1.00  0.00     0.211 C 
BRANCH  19  26
HETATM   26  O1  UNL     1      23.560   6.779  48.466  1.00  0.00    -0.348 OA
BRANCH  26  27
HETATM   27  C11 UNL     1      22.390   7.095  47.777  1.00  0.00     0.120 C 
HETATM   28  C12 UNL     1      22.683   6.916  46.298  1.00  0.00     0.040 C 
HETATM   29  C13 UNL     1      21.895   8.498  48.011  1.00  0.00     0.040 C 
ENDBRANCH  26  27
ENDBRANCH  19  26
BRANCH  22  30
HETATM   30  O3  UNL     1      25.717   6.957  47.757  1.00  0.00    -0.389 OA
HETATM   31  H22 UNL     1      25.670   6.196  47.105  1.00  0.00     0.210 HD
ENDBRANCH  22  30
ENDBRANCH  10  12
ENDBRANCH   5  10
TORSDOF 5
ENDMDL
MODEL 8
REMARK VINA RESULT:      -7.5      2.557      7.009
REMARK  5 active torsions:
REMARK  status: ('A' for Active; 'I' for Inactive)
REMARK    1  A    between atoms: C5_5  and  N1_6 
REMARK    2  A    between atoms: N1_6  and  C6_7 
REMARK    3  A    between atoms: C10_14  and  O1_15 
REMARK    4  A    between atoms: O1_15  and  C11_16 
REMARK    5  A    between atoms: C18_24  and  O3_25 
ROOT
HETATM    1  C1  UNL     1      21.918   3.604  45.955  1.00  0.00     0.049 C 
HETATM    2  C2  UNL     1      21.330   3.211  47.251  1.00  0.00    -0.041 A 
HETATM    3  C3  UNL     1      21.732   2.013  47.848  1.00  0.00     0.010 A 
HETATM    4  C4  UNL     1      21.177   1.655  49.057  1.00  0.00     0.030 A 
HETATM    5  C5  UNL     1      20.242   2.440  49.691  1.00  0.00     0.034 A 
HETATM    6  C19 UNL     1      19.839   3.625  49.106  1.00  0.00     0.052 A 
HETATM    7  C20 UNL     1      20.393   3.971  47.909  1.00  0.00     0.052 A 
HETATM    8  C21 UNL     1      20.027   5.200  47.225  1.00  0.00     0.100 C 
HETATM    9  N5  UNL     1      19.721   6.190  46.676  1.00  0.00    -0.191 NA
ENDROOT
BRANCH   5  10
HETATM   10  N1  UNL     1      19.621   2.138  50.945  1.00  0.00    -0.344 N 
HETATM   11  H6  UNL     1      18.671   1.929  51.268  1.00  0.00     0.167 HD
BRANCH  10  12
HETATM   12  C6  UNL     1      20.639   2.148  51.936  1.00  0.00     0.120 C 
HETATM   13  N2  UNL     1      21.438   2.983  52.474  1.00  0.00    -0.130 NA
HETATM   14  C7  UNL     1      21.501   4.331  52.132  1.00  0.00     0.203 A 
HETATM   15  N3  UNL     1      22.581   3.644  52.189  1.00  0.00    -0.256 N 
HETATM   16  C8  UNL     1      23.863   4.135  51.934  1.00  0.00     0.222 C 
HETATM   17  N4  UNL     1      24.442   3.085  51.440  1.00  0.00    -0.277 NA
HETATM   18  C9  UNL     1      23.813   1.800  51.256  1.00  0.00     0.215 C 
HETATM   19  C10 UNL     1      23.526   1.075  52.512  1.00  0.00     0.076 C 
HETATM   20  C14 UNL     1      22.405   0.658  53.132  1.00  0.00     0.019 C 
HETATM   21  C15 UNL     1      21.051   0.876  52.604  1.00  0.00     0.038 C 
HETATM   22  C18 UNL     1      22.531  -0.068  54.418  1.00  0.00     0.179 C 
HETATM   23  C16 UNL     1      20.153  -0.089  52.720  1.00  0.00     0.150 C 
HETATM   24  O2  UNL     1      20.728  -1.173  53.363  1.00  0.00    -0.359 OA
HETATM   25  C17 UNL     1      21.359  -1.002  54.614  1.00  0.00     0.211 C 
BRANCH  19  26
HETATM   26  O1  UNL     1      24.713   0.780  53.167  1.00  0.00    -0.348 OA
BRANCH  26  27
HETATM   27  C11 UNL     1      25.994   0.805  52.618  1.00  0.00     0.120 C 
HETATM   28  C12 UNL     1      26.430  -0.637  52.440  1.00  0.00     0.040 C 
HETATM   29  C13 UNL     1      27.014   1.524  53.463  1.00  0.00     0.040 C 
ENDBRANCH  26  27
ENDBRANCH  19  26
BRANCH  22  30
HETATM   30  O3  UNL     1      23.688  -0.856  54.376  1.00  0.00    -0.389 OA
HETATM   31  H22 UNL     1      24.339  -0.346  53.807  1.00  0.00     0.210 HD
ENDBRANCH  22  30
ENDBRANCH  10  12
ENDBRANCH   5  10
TORSDOF 5
ENDMDL
MODEL 9
REMARK VINA RESULT:      -7.4      3.362      5.122
REMARK  5 active torsions:
REMARK  status: ('A' for Active; 'I' for Inactive)
REMARK    1  A    between atoms: C5_5  and  N1_6 
REMARK    2  A    between atoms: N1_6  and  C6_7 
REMARK    3  A    between atoms: C10_14  and  O1_15 
REMARK    4  A    between atoms: O1_15  and  C11_16 
REMARK    5  A    between atoms: C18_24  and  O3_25 
ROOT
HETATM    1  C1  UNL     1      26.809   0.394  54.908  1.00  0.00     0.049 C 
HETATM    2  C2  UNL     1      26.459   1.017  53.615  1.00  0.00    -0.041 A 
HETATM    3  C3  UNL     1      27.373   1.879  53.004  1.00  0.00     0.010 A 
HETATM    4  C4  UNL     1      27.038   2.456  51.799  1.00  0.00     0.030 A 
HETATM    5  C5  UNL     1      25.835   2.207  51.182  1.00  0.00     0.034 A 
HETATM    6  C19 UNL     1      24.926   1.356  51.780  1.00  0.00     0.052 A 
HETATM    7  C20 UNL     1      25.266   0.790  52.973  1.00  0.00     0.052 A 
HETATM    8  C21 UNL     1      24.370  -0.118  53.671  1.00  0.00     0.100 C 
HETATM    9  N5  UNL     1      23.639  -0.843  54.231  1.00  0.00    -0.191 NA
ENDROOT
BRANCH   5  10
HETATM   10  N1  UNL     1      25.414   2.765  49.932  1.00  0.00    -0.344 N 
HETATM   11  H6  UNL     1      25.147   2.401  49.012  1.00  0.00     0.167 HD
BRANCH  10  12
HETATM   12  C6  UNL     1      25.383   4.177  50.087  1.00  0.00     0.120 C 
HETATM   13  N2  UNL     1      24.739   5.049  50.758  1.00  0.00    -0.130 NA
HETATM   14  C7  UNL     1      23.722   4.743  51.659  1.00  0.00     0.203 A 
HETATM   15  N3  UNL     1      23.529   5.649  50.774  1.00  0.00    -0.256 N 
HETATM   16  C8  UNL     1      22.354   6.388  50.620  1.00  0.00     0.222 C 
HETATM   17  N4  UNL     1      22.349   6.591  49.340  1.00  0.00    -0.277 NA
HETATM   18  C9  UNL     1      23.358   6.122  48.421  1.00  0.00     0.215 C 
HETATM   19  C10 UNL     1      24.662   6.807  48.544  1.00  0.00     0.076 C 
HETATM   20  C14 UNL     1      25.908   6.422  48.881  1.00  0.00     0.019 C 
HETATM   21  C15 UNL     1      26.265   5.045  49.250  1.00  0.00     0.038 C 
HETATM   22  C18 UNL     1      26.991   7.434  48.881  1.00  0.00     0.179 C 
HETATM   23  C16 UNL     1      27.414   4.544  48.825  1.00  0.00     0.150 C 
HETATM   24  O2  UNL     1      28.078   5.499  48.073  1.00  0.00    -0.359 OA
HETATM   25  C17 UNL     1      28.325   6.780  48.611  1.00  0.00     0.211 C 
BRANCH  19  26
HETATM   26  O1  UNL     1      24.518   8.151  48.232  1.00  0.00    -0.348 OA
BRANCH  26  27
HETATM   27  C11 UNL     1      23.531   8.717  47.426  1.00  0.00     0.120 C 
HETATM   28  C12 UNL     1      24.105   8.821  46.025  1.00  0.00     0.040 C 
HETATM   29  C13 UNL     1      23.080  10.084  47.872  1.00  0.00     0.040 C 
ENDBRANCH  26  27
ENDBRANCH  19  26
BRANCH  22  30
HETATM   30  O3  UNL     1      26.754   8.342  47.840  1.00  0.00    -0.389 OA
HETATM   31  H22 UNL     1      27.264   9.170  48.086  1.00  0.00     0.210 HD
ENDBRANCH  22  30
ENDBRANCH  10  12
ENDBRANCH   5  10
TORSDOF 5
ENDMDL
