MODEL 1
REMARK VINA RESULT:      -8.4      0.000      0.000
REMARK  4 active torsions:
REMARK  status: ('A' for Active; 'I' for Inactive)
REMARK    1  A    between atoms: C5_5  and  N1_6 
REMARK       I    between atoms: N1_6  and  C6_7 
REMARK       I    between atoms: C6_7  and  N2_8 
REMARK    2  A    between atoms: C9_14  and  C10_15 
REMARK    3  A    between atoms: C10_15  and  N5_16 
REMARK    4  A    between atoms: N5_16  and  C11_17 
ROOT
HETATM    1  C1  UNL     1      21.864   4.651  52.244  1.00  0.00     0.021 C 
HETATM    2  C2  UNL     1      22.750   5.101  51.394  1.00  0.00    -0.038 C 
HETATM    3  C3  UNL     1      22.790   6.461  50.730  1.00  0.00     0.069 C 
HETATM    4  C4  UNL     1      24.152   6.999  51.111  1.00  0.00     0.005 C 
HETATM    5  C5  UNL     1      25.256   7.007  50.340  1.00  0.00     0.030 C 
HETATM    6  C7  UNL     1      25.294   6.458  48.965  1.00  0.00     0.206 C 
HETATM    7  N3  UNL     1      26.197   5.308  48.878  1.00  0.00    -0.277 NA
HETATM    8  C8  UNL     1      25.904   4.235  49.579  1.00  0.00     0.227 C 
HETATM    9  N4  UNL     1      24.773   4.865  50.069  1.00  0.00    -0.245 NA
HETATM   10  C9  UNL     1      23.959   4.349  50.903  1.00  0.00     0.059 C 
ENDROOT
BRANCH  10  11
HETATM   11  C10 UNL     1      24.147   3.001  51.436  1.00  0.00     0.179 C 
BRANCH  11  12
HETATM   12  N5  UNL     1      24.926   2.917  52.642  1.00  0.00    -0.384 N 
HETATM   13  H14 UNL     1      24.785   3.580  53.445  1.00  0.00     0.160 HD
BRANCH  12  14
HETATM   14  C11 UNL     1      25.925   1.901  52.756  1.00  0.00     0.030 A 
HETATM   15  C12 UNL     1      25.755   0.704  52.091  1.00  0.00     0.032 A 
HETATM   16  C13 UNL     1      26.684  -0.314  52.163  1.00  0.00     0.046 A 
HETATM   17  C14 UNL     1      27.820  -0.089  52.943  1.00  0.00     0.138 A 
HETATM   18  F1  UNL     1      28.739  -1.090  53.017  1.00  0.00    -0.204 F 
HETATM   19  C15 UNL     1      27.988   1.122  53.614  1.00  0.00     0.074 A 
HETATM   20 CL1  UNL     1      29.436   1.379  54.594  1.00  0.00    -0.081 Cl
HETATM   21  C16 UNL     1      27.055   2.112  53.526  1.00  0.00     0.056 A 
ENDBRANCH  12  14
ENDBRANCH  11  12
ENDBRANCH  10  11
BRANCH   5  22
HETATM   22  N1  UNL     1      26.534   7.501  50.666  1.00  0.00    -0.311 N 
HETATM   23  C6  UNL     1      26.851   8.858  50.308  1.00  0.00     0.318 C 
HETATM   24  N2  UNL     1      28.045   9.609  50.510  1.00  0.00    -0.352 N 
HETATM   25  O1  UNL     1      26.265   9.824  49.735  1.00  0.00    -0.247 OA
HETATM   26  H7  UNL     1      28.982   9.794  50.090  1.00  0.00     0.160 HD
HETATM   27  H8  UNL     1      28.273  10.275  51.291  1.00  0.00     0.160 HD
HETATM   28  H6  UNL     1      27.407   7.150  51.134  1.00  0.00     0.170 HD
ENDBRANCH   5  22
TORSDOF 4
ENDMDL
MODEL 2
REMARK VINA RESULT:      -8.1      2.555      3.520
REMARK  4 active torsions:
REMARK  status: ('A' for Active; 'I' for Inactive)
REMARK    1  A    between atoms: C5_5  and  N1_6 
REMARK       I    between atoms: N1_6  and  C6_7 
REMARK       I    between atoms: C6_7  and  N2_8 
REMARK    2  A    between atoms: C9_14  and  C10_15 
REMARK    3  A    between atoms: C10_15  and  N5_16 
REMARK    4  A    between atoms: N5_16  and  C11_17 
ROOT
HETATM    1  C1  UNL     1      21.860   0.176  52.830  1.00  0.00     0.021 C 
HETATM    2  C2  UNL     1      22.482   0.901  51.938  1.00  0.00    -0.038 C 
HETATM    3  C3  UNL     1      21.919   1.478  50.656  1.00  0.00     0.069 C 
HETATM    4  C4  UNL     1      22.185   2.960  50.788  1.00  0.00     0.005 C 
HETATM    5  C5  UNL     1      23.191   3.650  50.214  1.00  0.00     0.030 C 
HETATM    6  C7  UNL     1      24.218   3.024  49.351  1.00  0.00     0.206 C 
HETATM    7  N3  UNL     1      25.549   3.120  49.957  1.00  0.00    -0.277 NA
HETATM    8  C8  UNL     1      25.757   2.503  51.098  1.00  0.00     0.227 C 
HETATM    9  N4  UNL     1      24.447   2.055  51.093  1.00  0.00    -0.245 NA
HETATM   10  C9  UNL     1      23.918   1.347  52.012  1.00  0.00     0.059 C 
ENDROOT
BRANCH  10  11
HETATM   11  C10 UNL     1      24.669   0.928  53.195  1.00  0.00     0.179 C 
BRANCH  11  12
HETATM   12  N5  UNL     1      25.335  -0.342  53.085  1.00  0.00    -0.384 N 
HETATM   13  H14 UNL     1      24.815  -1.228  52.864  1.00  0.00     0.160 HD
BRANCH  12  14
HETATM   14  C11 UNL     1      26.749  -0.405  53.286  1.00  0.00     0.030 A 
HETATM   15  C12 UNL     1      27.433  -1.551  52.935  1.00  0.00     0.032 A 
HETATM   16  C13 UNL     1      28.797  -1.672  53.106  1.00  0.00     0.046 A 
HETATM   17  C14 UNL     1      29.473  -0.579  53.653  1.00  0.00     0.138 A 
HETATM   18  F1  UNL     1      30.818  -0.693  53.823  1.00  0.00    -0.204 F 
HETATM   19  C15 UNL     1      28.777   0.577  54.006  1.00  0.00     0.074 A 
HETATM   20 CL1  UNL     1      29.658   1.945  54.696  1.00  0.00    -0.081 Cl
HETATM   21  C16 UNL     1      27.429   0.671  53.827  1.00  0.00     0.056 A 
ENDBRANCH  12  14
ENDBRANCH  11  12
ENDBRANCH  10  11
BRANCH   5  22
HETATM   22  N1  UNL     1      23.463   5.027  50.317  1.00  0.00    -0.311 N 
HETATM   23  C6  UNL     1      23.763   5.566  51.618  1.00  0.00     0.318 C 
HETATM   24  N2  UNL     1      24.073   6.900  52.013  1.00  0.00    -0.352 N 
HETATM   25  O1  UNL     1      23.863   5.125  52.800  1.00  0.00    -0.247 OA
HETATM   26  H7  UNL     1      23.626   7.804  52.279  1.00  0.00     0.160 HD
HETATM   27  H8  UNL     1      25.019   7.337  52.149  1.00  0.00     0.160 HD
HETATM   28  H6  UNL     1      23.519   5.859  49.678  1.00  0.00     0.170 HD
ENDBRANCH   5  22
TORSDOF 4
ENDMDL
MODEL 3
REMARK VINA RESULT:      -8.0      2.339      3.138
REMARK  4 active torsions:
REMARK  status: ('A' for Active; 'I' for Inactive)
REMARK    1  A    between atoms: C5_5  and  N1_6 
REMARK       I    between atoms: N1_6  and  C6_7 
REMARK       I    between atoms: C6_7  and  N2_8 
REMARK    2  A    between atoms: C9_14  and  C10_15 
REMARK    3  A    between atoms: C10_15  and  N5_16 
REMARK    4  A    between atoms: N5_16  and  C11_17 
ROOT
HETATM    1  C1  UNL     1      24.083   5.257  49.499  1.00  0.00     0.021 C 
HETATM    2  C2  UNL     1      25.181   5.781  49.018  1.00  0.00    -0.038 C 
HETATM    3  C3  UNL     1      25.378   7.177  48.468  1.00  0.00     0.069 C 
HETATM    4  C4  UNL     1      26.505   7.732  49.310  1.00  0.00     0.005 C 
HETATM    5  C5  UNL     1      27.803   7.817  48.957  1.00  0.00     0.030 C 
HETATM    6  C7  UNL     1      28.325   7.348  47.654  1.00  0.00     0.206 C 
HETATM    7  N3  UNL     1      29.259   6.232  47.826  1.00  0.00    -0.277 NA
HETATM    8  C8  UNL     1      28.798   5.113  48.338  1.00  0.00     0.227 C 
HETATM    9  N4  UNL     1      27.540   5.680  48.445  1.00  0.00    -0.245 NA
HETATM   10  C9  UNL     1      26.518   5.094  48.932  1.00  0.00     0.059 C 
ENDROOT
BRANCH  10  11
HETATM   11  C10 UNL     1      26.580   3.723  49.438  1.00  0.00     0.179 C 
BRANCH  11  12
HETATM   12  N5  UNL     1      26.780   3.597  50.856  1.00  0.00    -0.384 N 
HETATM   13  H14 UNL     1      27.394   4.258  51.394  1.00  0.00     0.160 HD
BRANCH  12  14
HETATM   14  C11 UNL     1      26.125   2.538  51.559  1.00  0.00     0.030 A 
HETATM   15  C12 UNL     1      24.831   2.716  52.002  1.00  0.00     0.032 A 
HETATM   16  C13 UNL     1      24.148   1.732  52.686  1.00  0.00     0.046 A 
HETATM   17  C14 UNL     1      24.821   0.529  52.919  1.00  0.00     0.138 A 
HETATM   18  F1  UNL     1      24.152  -0.444  53.594  1.00  0.00    -0.204 F 
HETATM   19  C15 UNL     1      26.130   0.354  52.470  1.00  0.00     0.074 A 
HETATM   20 CL1  UNL     1      26.956  -1.177  52.778  1.00  0.00    -0.081 Cl
HETATM   21  C16 UNL     1      26.782   1.343  51.795  1.00  0.00     0.056 A 
ENDBRANCH  12  14
ENDBRANCH  11  12
ENDBRANCH  10  11
BRANCH   5  22
HETATM   22  N1  UNL     1      28.873   8.328  49.717  1.00  0.00    -0.311 N 
HETATM   23  C6  UNL     1      29.461   9.578  49.310  1.00  0.00     0.318 C 
HETATM   24  N2  UNL     1      30.536  10.319  49.881  1.00  0.00    -0.352 N 
HETATM   25  O1  UNL     1      29.282  10.426  48.388  1.00  0.00    -0.247 OA
HETATM   26  H7  UNL     1      31.576  10.389  49.884  1.00  0.00     0.160 HD
HETATM   27  H8  UNL     1      30.488  11.120  50.560  1.00  0.00     0.160 HD
HETATM   28  H6  UNL     1      29.424   8.052  50.568  1.00  0.00     0.170 HD
ENDBRANCH   5  22
TORSDOF 4
ENDMDL
MODEL 4
REMARK VINA RESULT:      -7.9      3.117      4.638
REMARK  4 active torsions:
REMARK  status: ('A' for Active; 'I' for Inactive)
REMARK    1  A    between atoms: C5_5  and  N1_6 
REMARK       I    between atoms: N1_6  and  C6_7 
REMARK       I    between atoms: C6_7  and  N2_8 
REMARK    2  A    between atoms: C9_14  and  C10_15 
REMARK    3  A    between atoms: C10_15  and  N5_16 
REMARK    4  A    between atoms: N5_16  and  C11_17 
ROOT
HETATM    1  C1  UNL     1      26.812   3.968  49.313  1.00  0.00     0.021 C 
HETATM    2  C2  UNL     1      25.619   4.356  49.682  1.00  0.00    -0.038 C 
HETATM    3  C3  UNL     1      24.836   5.551  49.182  1.00  0.00     0.069 C 
HETATM    4  C4  UNL     1      23.543   4.943  48.686  1.00  0.00     0.005 C 
HETATM    5  C5  UNL     1      22.364   4.919  49.338  1.00  0.00     0.030 C 
HETATM    6  C7  UNL     1      22.169   5.494  50.688  1.00  0.00     0.206 C 
HETATM    7  N3  UNL     1      21.836   4.455  51.665  1.00  0.00    -0.277 NA
HETATM    8  C8  UNL     1      22.730   3.522  51.907  1.00  0.00     0.227 C 
HETATM    9  N4  UNL     1      23.589   4.109  50.994  1.00  0.00    -0.245 NA
HETATM   10  C9  UNL     1      24.742   3.661  50.690  1.00  0.00     0.059 C 
ENDROOT
BRANCH  10  11
HETATM   11  C10 UNL     1      25.285   2.446  51.298  1.00  0.00     0.179 C 
BRANCH  11  12
HETATM   12  N5  UNL     1      26.149   2.654  52.429  1.00  0.00    -0.384 N 
HETATM   13  H14 UNL     1      26.132   3.543  52.988  1.00  0.00     0.160 HD
BRANCH  12  14
HETATM   14  C11 UNL     1      27.062   1.621  52.805  1.00  0.00     0.030 A 
HETATM   15  C12 UNL     1      28.246   1.956  53.429  1.00  0.00     0.032 A 
HETATM   16  C13 UNL     1      29.167   1.004  53.815  1.00  0.00     0.046 A 
HETATM   17  C14 UNL     1      28.857  -0.332  53.548  1.00  0.00     0.138 A 
HETATM   18  F1  UNL     1      29.762  -1.275  53.926  1.00  0.00    -0.204 F 
HETATM   19  C15 UNL     1      27.659  -0.666  52.916  1.00  0.00     0.074 A 
HETATM   20 CL1  UNL     1      27.292  -2.364  52.591  1.00  0.00    -0.081 Cl
HETATM   21  C16 UNL     1      26.766   0.295  52.546  1.00  0.00     0.056 A 
ENDBRANCH  12  14
ENDBRANCH  11  12
ENDBRANCH  10  11
BRANCH   5  22
HETATM   22  N1  UNL     1      21.147   4.363  48.901  1.00  0.00    -0.311 N 
HETATM   23  C6  UNL     1      21.119   2.964  48.563  1.00  0.00     0.318 C 
HETATM   24  N2  UNL     1      20.045   2.149  48.101  1.00  0.00    -0.352 N 
HETATM   25  O1  UNL     1      21.942   2.002  48.541  1.00  0.00    -0.247 OA
HETATM   26  H7  UNL     1      19.538   1.870  47.234  1.00  0.00     0.160 HD
HETATM   27  H8  UNL     1      19.409   1.529  48.663  1.00  0.00     0.160 HD
HETATM   28  H6  UNL     1      20.161   4.686  48.731  1.00  0.00     0.170 HD
ENDBRANCH   5  22
TORSDOF 4
ENDMDL
MODEL 5
REMARK VINA RESULT:      -7.9      4.619      6.970
REMARK  4 active torsions:
REMARK  status: ('A' for Active; 'I' for Inactive)
REMARK    1  A    between atoms: C5_5  and  N1_6 
REMARK       I    between atoms: N1_6  and  C6_7 
REMARK       I    between atoms: C6_7  and  N2_8 
REMARK    2  A    between atoms: C9_14  and  C10_15 
REMARK    3  A    between atoms: C10_15  and  N5_16 
REMARK    4  A    between atoms: N5_16  and  C11_17 
ROOT
HETATM    1  C1  UNL     1      21.877  -0.005  52.196  1.00  0.00     0.021 C 
HETATM    2  C2  UNL     1      23.006   0.234  52.811  1.00  0.00    -0.038 C 
HETATM    3  C3  UNL     1      23.784  -0.696  53.717  1.00  0.00     0.069 C 
HETATM    4  C4  UNL     1      25.148  -0.764  53.066  1.00  0.00     0.005 C 
HETATM    5  C5  UNL     1      26.251  -0.087  53.441  1.00  0.00     0.030 C 
HETATM    6  C7  UNL     1      26.277   0.862  54.577  1.00  0.00     0.206 C 
HETATM    7  N3  UNL     1      26.551   2.227  54.121  1.00  0.00    -0.277 NA
HETATM    8  C8  UNL     1      25.679   2.801  53.323  1.00  0.00     0.227 C 
HETATM    9  N4  UNL     1      24.896   1.660  53.359  1.00  0.00    -0.245 NA
HETATM   10  C9  UNL     1      23.801   1.510  52.723  1.00  0.00     0.059 C 
ENDROOT
BRANCH  10  11
HETATM   11  C10 UNL     1      23.252   2.562  51.869  1.00  0.00     0.179 C 
BRANCH  11  12
HETATM   12  N5  UNL     1      23.593   2.467  50.475  1.00  0.00    -0.384 N 
HETATM   13  H14 UNL     1      23.180   1.732  49.849  1.00  0.00     0.160 HD
BRANCH  12  14
HETATM   14  C11 UNL     1      24.523   3.401  49.922  1.00  0.00     0.030 A 
HETATM   15  C12 UNL     1      25.866   3.086  49.896  1.00  0.00     0.032 A 
HETATM   16  C13 UNL     1      26.811   3.946  49.376  1.00  0.00     0.046 A 
HETATM   17  C14 UNL     1      26.357   5.166  48.869  1.00  0.00     0.138 A 
HETATM   18  F1  UNL     1      27.285   6.017  48.355  1.00  0.00    -0.204 F 
HETATM   19  C15 UNL     1      24.998   5.480  48.898  1.00  0.00     0.074 A 
HETATM   20 CL1  UNL     1      24.451   7.030  48.249  1.00  0.00    -0.081 Cl
HETATM   21  C16 UNL     1      24.085   4.612  49.417  1.00  0.00     0.056 A 
ENDBRANCH  12  14
ENDBRANCH  11  12
ENDBRANCH  10  11
BRANCH   5  22
HETATM   22  N1  UNL     1      27.531  -0.130  52.857  1.00  0.00    -0.311 N 
HETATM   23  C6  UNL     1      28.654  -0.444  53.701  1.00  0.00     0.318 C 
HETATM   24  N2  UNL     1      30.040  -0.556  53.387  1.00  0.00    -0.352 N 
HETATM   25  O1  UNL     1      28.845  -0.716  54.923  1.00  0.00    -0.247 OA
HETATM   26  H7  UNL     1      30.906   0.014  53.273  1.00  0.00     0.160 HD
HETATM   27  H8  UNL     1      30.589  -1.422  53.159  1.00  0.00     0.160 HD
HETATM   28  H6  UNL     1      27.958   0.008  51.907  1.00  0.00     0.170 HD
ENDBRANCH   5  22
TORSDOF 4
ENDMDL
MODEL 6
REMARK VINA RESULT:      -7.7      4.300      5.840
REMARK  4 active torsions:
REMARK  status: ('A' for Active; 'I' for Inactive)
REMARK    1  A    between atoms: C5_5  and  N1_6 
REMARK       I    between atoms: N1_6  and  C6_7 
REMARK       I    between atoms: C6_7  and  N2_8 
REMARK    2  A    between atoms: C9_14  and  C10_15 
REMARK    3  A    between atoms: C10_15  and  N5_16 
REMARK    4  A    between atoms: N5_16  and  C11_17 
ROOT
HETATM    1  C1  UNL     1      23.866  -0.265  54.428  1.00  0.00     0.021 C 
HETATM    2  C2  UNL     1      23.250  -0.079  53.290  1.00  0.00    -0.038 C 
HETATM    3  C3  UNL     1      22.175  -0.943  52.665  1.00  0.00     0.069 C 
HETATM    4  C4  UNL     1      21.026   0.018  52.458  1.00  0.00     0.005 C 
HETATM    5  C5  UNL     1      20.683   0.622  51.303  1.00  0.00     0.030 C 
HETATM    6  C7  UNL     1      21.420   0.431  50.034  1.00  0.00     0.206 C 
HETATM    7  N3  UNL     1      22.042   1.681  49.588  1.00  0.00    -0.277 NA
HETATM    8  C8  UNL     1      22.970   2.217  50.350  1.00  0.00     0.227 C 
HETATM    9  N4  UNL     1      22.823   1.182  51.257  1.00  0.00    -0.245 NA
HETATM   10  C9  UNL     1      23.468   1.078  52.351  1.00  0.00     0.059 C 
ENDROOT
BRANCH  10  11
HETATM   11  C10 UNL     1      24.457   2.074  52.764  1.00  0.00     0.179 C 
BRANCH  11  12
HETATM   12  N5  UNL     1      25.706   2.035  52.053  1.00  0.00    -0.384 N 
HETATM   13  H14 UNL     1      25.855   2.562  51.156  1.00  0.00     0.160 HD
BRANCH  12  14
HETATM   14  C11 UNL     1      26.782   1.255  52.580  1.00  0.00     0.030 A 
HETATM   15  C12 UNL     1      27.815   1.884  53.243  1.00  0.00     0.032 A 
HETATM   16  C13 UNL     1      28.881   1.185  53.772  1.00  0.00     0.046 A 
HETATM   17  C14 UNL     1      28.879  -0.202  53.612  1.00  0.00     0.138 A 
HETATM   18  F1  UNL     1      29.928  -0.896  54.131  1.00  0.00    -0.204 F 
HETATM   19  C15 UNL     1      27.833  -0.834  52.939  1.00  0.00     0.074 A 
HETATM   20 CL1  UNL     1      27.856  -2.591  52.751  1.00  0.00    -0.081 Cl
HETATM   21  C16 UNL     1      26.791  -0.120  52.426  1.00  0.00     0.056 A 
ENDBRANCH  12  14
ENDBRANCH  11  12
ENDBRANCH  10  11
BRANCH   5  22
HETATM   22  N1  UNL     1      19.620   1.518  51.080  1.00  0.00    -0.311 N 
HETATM   23  C6  UNL     1      19.597   2.748  51.827  1.00  0.00     0.318 C 
HETATM   24  N2  UNL     1      18.660   3.822  51.806  1.00  0.00    -0.352 N 
HETATM   25  O1  UNL     1      20.318   3.310  52.704  1.00  0.00    -0.247 OA
HETATM   26  H7  UNL     1      17.749   4.127  52.212  1.00  0.00     0.160 HD
HETATM   27  H8  UNL     1      18.709   4.719  51.261  1.00  0.00     0.160 HD
HETATM   28  H6  UNL     1      18.758   1.569  50.480  1.00  0.00     0.170 HD
ENDBRANCH   5  22
TORSDOF 4
ENDMDL
MODEL 7
REMARK VINA RESULT:      -7.4      2.449      3.911
REMARK  4 active torsions:
REMARK  status: ('A' for Active; 'I' for Inactive)
REMARK    1  A    between atoms: C5_5  and  N1_6 
REMARK       I    between atoms: N1_6  and  C6_7 
REMARK       I    between atoms: C6_7  and  N2_8 
REMARK    2  A    between atoms: C9_14  and  C10_15 
REMARK    3  A    between atoms: C10_15  and  N5_16 
REMARK    4  A    between atoms: N5_16  and  C11_17 
ROOT
HETATM    1  C1  UNL     1      27.830   5.056  48.455  1.00  0.00     0.021 C 
HETATM    2  C2  UNL     1      26.756   5.590  48.977  1.00  0.00    -0.038 C 
HETATM    3  C3  UNL     1      26.261   7.012  48.827  1.00  0.00     0.069 C 
HETATM    4  C4  UNL     1      24.863   6.842  48.276  1.00  0.00     0.005 C 
HETATM    5  C5  UNL     1      23.711   6.914  48.972  1.00  0.00     0.030 C 
HETATM    6  C7  UNL     1      23.656   7.166  50.431  1.00  0.00     0.206 C 
HETATM    7  N3  UNL     1      23.100   6.015  51.146  1.00  0.00    -0.277 NA
HETATM    8  C8  UNL     1      23.762   4.879  51.104  1.00  0.00     0.227 C 
HETATM    9  N4  UNL     1      24.728   5.474  50.309  1.00  0.00    -0.245 NA
HETATM   10  C9  UNL     1      25.750   4.875  49.839  1.00  0.00     0.059 C 
ENDROOT
BRANCH  10  11
HETATM   11  C10 UNL     1      26.007   3.459  50.103  1.00  0.00     0.179 C 
BRANCH  11  12
HETATM   12  N5  UNL     1      26.900   3.187  51.197  1.00  0.00    -0.384 N 
HETATM   13  H14 UNL     1      27.783   3.737  51.347  1.00  0.00     0.160 HD
BRANCH  12  14
HETATM   14  C11 UNL     1      26.579   2.136  52.111  1.00  0.00     0.030 A 
HETATM   15  C12 UNL     1      25.307   1.602  52.112  1.00  0.00     0.032 A 
HETATM   16  C13 UNL     1      24.938   0.587  52.971  1.00  0.00     0.046 A 
HETATM   17  C14 UNL     1      25.911   0.110  53.853  1.00  0.00     0.138 A 
HETATM   18  F1  UNL     1      25.552  -0.891  54.701  1.00  0.00    -0.204 F 
HETATM   19  C15 UNL     1      27.196   0.653  53.849  1.00  0.00     0.074 A 
HETATM   20 CL1  UNL     1      28.406   0.030  54.975  1.00  0.00    -0.081 Cl
HETATM   21  C16 UNL     1      27.534   1.656  52.989  1.00  0.00     0.056 A 
ENDBRANCH  12  14
ENDBRANCH  11  12
ENDBRANCH  10  11
BRANCH   5  22
HETATM   22  N1  UNL     1      22.398   6.762  48.488  1.00  0.00    -0.311 N 
HETATM   23  C6  UNL     1      22.037   5.508  47.881  1.00  0.00     0.318 C 
HETATM   24  N2  UNL     1      20.801   5.081  47.315  1.00  0.00    -0.352 N 
HETATM   25  O1  UNL     1      22.604   4.404  47.634  1.00  0.00    -0.247 OA
HETATM   26  H7  UNL     1      20.246   5.112  46.432  1.00  0.00     0.160 HD
HETATM   27  H8  UNL     1      20.031   4.528  47.769  1.00  0.00     0.160 HD
HETATM   28  H6  UNL     1      21.520   7.337  48.429  1.00  0.00     0.170 HD
ENDBRANCH   5  22
TORSDOF 4
ENDMDL
MODEL 8
REMARK VINA RESULT:      -7.4      5.131      7.461
REMARK  4 active torsions:
REMARK  status: ('A' for Active; 'I' for Inactive)
REMARK    1  A    between atoms: C5_5  and  N1_6 
REMARK       I    between atoms: N1_6  and  C6_7 
REMARK       I    between atoms: C6_7  and  N2_8 
REMARK    2  A    between atoms: C9_14  and  C10_15 
REMARK    3  A    between atoms: C10_15  and  N5_16 
REMARK    4  A    between atoms: N5_16  and  C11_17 
ROOT
HETATM    1  C1  UNL     1      22.661   2.266  47.582  1.00  0.00     0.021 C 
HETATM    2  C2  UNL     1      21.959   2.267  48.685  1.00  0.00    -0.038 C 
HETATM    3  C3  UNL     1      20.939   1.242  49.136  1.00  0.00     0.069 C 
HETATM    4  C4  UNL     1      21.459   0.797  50.485  1.00  0.00     0.005 C 
HETATM    5  C5  UNL     1      21.020   1.210  51.690  1.00  0.00     0.030 C 
HETATM    6  C7  UNL     1      19.937   2.204  51.866  1.00  0.00     0.206 C 
HETATM    7  N3  UNL     1      20.435   3.424  52.506  1.00  0.00    -0.277 NA
HETATM    8  C8  UNL     1      21.338   4.134  51.867  1.00  0.00     0.227 C 
HETATM    9  N4  UNL     1      21.315   3.224  50.823  1.00  0.00    -0.245 NA
HETATM   10  C9  UNL     1      22.039   3.300  49.778  1.00  0.00     0.059 C 
ENDROOT
BRANCH  10  11
HETATM   11  C10 UNL     1      22.993   4.390  49.574  1.00  0.00     0.179 C 
BRANCH  11  12
HETATM   12  N5  UNL     1      24.327   4.140  50.047  1.00  0.00    -0.384 N 
HETATM   13  H14 UNL     1      24.525   3.474  50.835  1.00  0.00     0.160 HD
BRANCH  12  14
HETATM   14  C11 UNL     1      25.423   4.819  49.429  1.00  0.00     0.030 A 
HETATM   15  C12 UNL     1      26.628   4.165  49.276  1.00  0.00     0.032 A 
HETATM   16  C13 UNL     1      27.721   4.768  48.689  1.00  0.00     0.046 A 
HETATM   17  C14 UNL     1      27.565   6.084  48.246  1.00  0.00     0.138 A 
HETATM   18  F1  UNL     1      28.640   6.683  47.667  1.00  0.00    -0.204 F 
HETATM   19  C15 UNL     1      26.345   6.742  48.403  1.00  0.00     0.074 A 
HETATM   20 CL1  UNL     1      26.176   8.406  47.834  1.00  0.00    -0.081 Cl
HETATM   21  C16 UNL     1      25.280   6.122  48.987  1.00  0.00     0.056 A 
ENDBRANCH  12  14
ENDBRANCH  11  12
ENDBRANCH  10  11
BRANCH   5  22
HETATM   22  N1  UNL     1      21.482   0.813  52.960  1.00  0.00    -0.311 N 
HETATM   23  C6  UNL     1      20.743  -0.199  53.668  1.00  0.00     0.318 C 
HETATM   24  N2  UNL     1      20.974  -0.784  54.947  1.00  0.00    -0.352 N 
HETATM   25  O1  UNL     1      19.707  -0.898  53.465  1.00  0.00    -0.247 OA
HETATM   26  H7  UNL     1      20.800  -0.634  55.964  1.00  0.00     0.160 HD
HETATM   27  H8  UNL     1      21.475  -1.679  55.173  1.00  0.00     0.160 HD
HETATM   28  H6  UNL     1      22.274   1.051  53.608  1.00  0.00     0.170 HD
ENDBRANCH   5  22
TORSDOF 4
ENDMDL
MODEL 9
REMARK VINA RESULT:      -7.4      4.019      5.514
REMARK  4 active torsions:
REMARK  status: ('A' for Active; 'I' for Inactive)
REMARK    1  A    between atoms: C5_5  and  N1_6 
REMARK       I    between atoms: N1_6  and  C6_7 
REMARK       I    between atoms: C6_7  and  N2_8 
REMARK    2  A    between atoms: C9_14  and  C10_15 
REMARK    3  A    between atoms: C10_15  and  N5_16 
REMARK    4  A    between atoms: N5_16  and  C11_17 
ROOT
HETATM    1  C1  UNL     1      26.560   3.485  49.633  1.00  0.00     0.021 C 
HETATM    2  C2  UNL     1      25.366   3.977  49.839  1.00  0.00    -0.038 C 
HETATM    3  C3  UNL     1      24.583   4.915  48.944  1.00  0.00     0.069 C 
HETATM    4  C4  UNL     1      23.292   4.168  48.695  1.00  0.00     0.005 C 
HETATM    5  C5  UNL     1      22.111   4.376  49.311  1.00  0.00     0.030 C 
HETATM    6  C7  UNL     1      21.913   5.395  50.367  1.00  0.00     0.206 C 
HETATM    7  N3  UNL     1      21.578   4.771  51.649  1.00  0.00    -0.277 NA
HETATM    8  C8  UNL     1      22.472   3.987  52.210  1.00  0.00     0.227 C 
HETATM    9  N4  UNL     1      23.333   4.212  51.148  1.00  0.00    -0.245 NA
HETATM   10  C9  UNL     1      24.487   3.686  51.027  1.00  0.00     0.059 C 
ENDROOT
BRANCH  10  11
HETATM   11  C10 UNL     1      25.030   2.769  52.028  1.00  0.00     0.179 C 
BRANCH  11  12
HETATM   12  N5  UNL     1      24.822   1.371  51.762  1.00  0.00    -0.384 N 
HETATM   13  H14 UNL     1      25.023   0.946  50.822  1.00  0.00     0.160 HD
BRANCH  12  14
HETATM   14  C11 UNL     1      24.324   0.530  52.805  1.00  0.00     0.030 A 
HETATM   15  C12 UNL     1      25.210  -0.050  53.690  1.00  0.00     0.032 A 
HETATM   16  C13 UNL     1      24.790  -0.871  54.716  1.00  0.00     0.046 A 
HETATM   17  C14 UNL     1      23.416  -1.098  54.833  1.00  0.00     0.138 A 
HETATM   18  F1  UNL     1      22.997  -1.907  55.843  1.00  0.00    -0.204 F 
HETATM   19  C15 UNL     1      22.524  -0.509  53.936  1.00  0.00     0.074 A 
HETATM   20 CL1  UNL     1      20.792  -0.814  54.107  1.00  0.00    -0.081 Cl
HETATM   21  C16 UNL     1      22.966   0.298  52.930  1.00  0.00     0.056 A 
ENDBRANCH  12  14
ENDBRANCH  11  12
ENDBRANCH  10  11
BRANCH   5  22
HETATM   22  N1  UNL     1      20.895   3.700  49.099  1.00  0.00    -0.311 N 
HETATM   23  C6  UNL     1      20.869   2.272  49.280  1.00  0.00     0.318 C 
HETATM   24  N2  UNL     1      19.797   1.344  49.136  1.00  0.00    -0.352 N 
HETATM   25  O1  UNL     1      21.694   1.366  49.602  1.00  0.00    -0.247 OA
HETATM   26  H7  UNL     1      19.292   0.774  48.424  1.00  0.00     0.160 HD
HETATM   27  H8  UNL     1      19.161   0.962  49.881  1.00  0.00     0.160 HD
HETATM   28  H6  UNL     1      19.909   3.939  48.824  1.00  0.00     0.170 HD
ENDBRANCH   5  22
TORSDOF 4
ENDMDL
