MODEL 1
REMARK VINA RESULT:      -7.9      0.000      0.000
REMARK  6 active torsions:
REMARK  status: ('A' for Active; 'I' for Inactive)
REMARK    1  A    between atoms: C6_6  and  N1_7 
REMARK    2  A    between atoms: N1_7  and  C7_8 
REMARK    3  A    between atoms: C15_19  and  N4_20 
REMARK       I    between atoms: N4_20  and  C16_21 
REMARK    4  A    between atoms: C16_21  and  C17_23 
REMARK    5  A    between atoms: C18_24  and  C19_25 
REMARK    6  A    between atoms: C19_25  and  N5_26 
ROOT
HETATM    1  C1  UNL     1      23.007   3.404  48.529  1.00  0.00     0.048 C 
HETATM    2  C2  UNL     1      23.536   4.263  49.640  1.00  0.00    -0.034 C 
HETATM    3  C3  UNL     1      22.558   5.116  50.146  1.00  0.00     0.014 C 
HETATM    4  C4  UNL     1      23.115   5.174  51.622  1.00  0.00     0.096 C 
HETATM    5  C5  UNL     1      24.295   5.895  50.920  1.00  0.00    -0.019 C 
HETATM    6  C6  UNL     1      24.569   7.157  50.684  1.00  0.00     0.055 C 
HETATM    7  C13 UNL     1      23.508   8.149  50.377  1.00  0.00     0.142 C 
HETATM    8  N2  UNL     1      22.255   8.123  50.052  1.00  0.00    -0.280 NA
HETATM    9  C14 UNL     1      21.167   7.234  49.828  1.00  0.00     0.269 C 
HETATM   10  N3  UNL     1      21.503   5.832  49.511  1.00  0.00    -0.375 N 
HETATM   11  C15 UNL     1      24.878   4.587  50.406  1.00  0.00     0.148 C 
HETATM   12  H14 UNL     1      21.197   5.068  48.875  1.00  0.00     0.161 HD
ENDROOT
BRANCH  11  13
HETATM   13  N4  UNL     1      25.156   3.649  51.402  1.00  0.00    -0.338 N 
HETATM   14  C16 UNL     1      26.074   2.657  50.916  1.00  0.00     0.297 C 
HETATM   15  O1  UNL     1      26.563   2.633  49.735  1.00  0.00    -0.258 OA
HETATM   16  H16 UNL     1      24.990   3.337  52.364  1.00  0.00     0.164 HD
BRANCH  14  17
HETATM   17  C17 UNL     1      26.602   1.520  51.669  1.00  0.00    -0.004 C 
HETATM   18  C18 UNL     1      27.059   0.581  52.285  1.00  0.00    -0.066 C 
BRANCH  18  19
HETATM   19  C19 UNL     1      27.631  -0.538  53.017  1.00  0.00     0.365 C 
BRANCH  19  20
HETATM   20  N5  UNL     1      28.929  -0.169  53.557  1.00  0.00     0.090 N 
HETATM   21  C20 UNL     1      28.661   0.293  54.921  1.00  0.00     0.310 C 
HETATM   22  C21 UNL     1      29.740  -1.378  53.585  1.00  0.00     0.310 C 
ENDBRANCH  19  20
ENDBRANCH  18  19
ENDBRANCH  14  17
ENDBRANCH  11  13
BRANCH   6  23
HETATM   23  N1  UNL     1      25.950   7.252  50.720  1.00  0.00    -0.355 N 
HETATM   24  H6  UNL     1      26.522   7.148  51.567  1.00  0.00     0.166 HD
BRANCH  23  25
HETATM   25  C7  UNL     1      26.672   7.524  49.527  1.00  0.00     0.033 A 
HETATM   26  C8  UNL     1      26.956   6.818  48.378  1.00  0.00     0.029 A 
HETATM   27  C9  UNL     1      27.708   7.368  47.389  1.00  0.00     0.004 A 
HETATM   28  C10 UNL     1      28.203   8.668  47.534  1.00  0.00     0.019 A 
HETATM   29  C11 UNL     1      27.931   9.395  48.675  1.00  0.00     0.013 A 
HETATM   30 BR1  UNL     1      28.656  11.175  48.787  1.00  0.00    -0.051 Br
HETATM   31  C12 UNL     1      27.153   8.812  49.684  1.00  0.00     0.048 A 
ENDBRANCH  23  25
ENDBRANCH   6  23
TORSDOF 6
ENDMDL
MODEL 2
REMARK VINA RESULT:      -7.7      4.935      7.321
REMARK  6 active torsions:
REMARK  status: ('A' for Active; 'I' for Inactive)
REMARK    1  A    between atoms: C6_6  and  N1_7 
REMARK    2  A    between atoms: N1_7  and  C7_8 
REMARK    3  A    between atoms: C15_19  and  N4_20 
REMARK       I    between atoms: N4_20  and  C16_21 
REMARK    4  A    between atoms: C16_21  and  C17_23 
REMARK    5  A    between atoms: C18_24  and  C19_25 
REMARK    6  A    between atoms: C19_25  and  N5_26 
ROOT
HETATM    1  C1  UNL     1      23.512   4.725  48.851  1.00  0.00     0.048 C 
HETATM    2  C2  UNL     1      22.851   3.563  49.532  1.00  0.00    -0.034 C 
HETATM    3  C3  UNL     1      21.774   3.076  48.796  1.00  0.00     0.014 C 
HETATM    4  C4  UNL     1      21.898   1.575  49.268  1.00  0.00     0.096 C 
HETATM    5  C5  UNL     1      21.512   2.197  50.635  1.00  0.00    -0.019 C 
HETATM    6  C6  UNL     1      20.368   2.379  51.253  1.00  0.00     0.055 C 
HETATM    7  C13 UNL     1      19.118   2.701  50.518  1.00  0.00     0.142 C 
HETATM    8  N2  UNL     1      18.797   3.085  49.325  1.00  0.00    -0.280 NA
HETATM    9  C14 UNL     1      19.351   3.389  48.050  1.00  0.00     0.269 C 
HETATM   10  N3  UNL     1      20.785   3.735  48.011  1.00  0.00    -0.375 N 
HETATM   11  C15 UNL     1      22.919   2.726  50.868  1.00  0.00     0.148 C 
HETATM   12  H14 UNL     1      21.425   4.409  47.543  1.00  0.00     0.161 HD
ENDROOT
BRANCH  11  13
HETATM   13  N4  UNL     1      23.916   1.749  50.828  1.00  0.00    -0.338 N 
HETATM   14  C16 UNL     1      24.635   1.714  52.071  1.00  0.00     0.297 C 
HETATM   15  O1  UNL     1      24.399   2.474  53.072  1.00  0.00    -0.258 OA
HETATM   16  H16 UNL     1      24.385   1.017  50.286  1.00  0.00     0.164 HD
BRANCH  14  17
HETATM   17  C17 UNL     1      25.743   0.820  52.407  1.00  0.00    -0.004 C 
HETATM   18  C18 UNL     1      26.660   0.071  52.667  1.00  0.00    -0.066 C 
BRANCH  18  19
HETATM   19  C19 UNL     1      27.761  -0.835  52.955  1.00  0.00     0.365 C 
BRANCH  19  20
HETATM   20  N5  UNL     1      28.857  -0.106  53.573  1.00  0.00     0.090 N 
HETATM   21  C20 UNL     1      28.383   0.230  54.917  1.00  0.00     0.310 C 
HETATM   22  C21 UNL     1      29.987  -1.021  53.651  1.00  0.00     0.310 C 
ENDBRANCH  19  20
ENDBRANCH  18  19
ENDBRANCH  14  17
ENDBRANCH  11  13
BRANCH   6  23
HETATM   23  N1  UNL     1      20.653   2.275  52.604  1.00  0.00    -0.355 N 
HETATM   24  H6  UNL     1      20.767   3.073  53.241  1.00  0.00     0.166 HD
BRANCH  23  25
HETATM   25  C7  UNL     1      20.822   0.994  53.196  1.00  0.00     0.033 A 
HETATM   26  C8  UNL     1      21.861   0.338  53.818  1.00  0.00     0.029 A 
HETATM   27  C9  UNL     1      21.707  -0.931  54.281  1.00  0.00     0.004 A 
HETATM   28  C10 UNL     1      20.480  -1.582  54.128  1.00  0.00     0.019 A 
HETATM   29  C11 UNL     1      19.424  -0.945  53.509  1.00  0.00     0.013 A 
HETATM   30 BR1  UNL     1      17.774  -1.921  53.341  1.00  0.00    -0.051 Br
HETATM   31  C12 UNL     1      19.600   0.363  53.038  1.00  0.00     0.048 A 
ENDBRANCH  23  25
ENDBRANCH   6  23
TORSDOF 6
ENDMDL
MODEL 3
REMARK VINA RESULT:      -7.6      4.299      6.682
REMARK  6 active torsions:
REMARK  status: ('A' for Active; 'I' for Inactive)
REMARK    1  A    between atoms: C6_6  and  N1_7 
REMARK    2  A    between atoms: N1_7  and  C7_8 
REMARK    3  A    between atoms: C15_19  and  N4_20 
REMARK       I    between atoms: N4_20  and  C16_21 
REMARK    4  A    between atoms: C16_21  and  C17_23 
REMARK    5  A    between atoms: C18_24  and  C19_25 
REMARK    6  A    between atoms: C19_25  and  N5_26 
ROOT
HETATM    1  C1  UNL     1      24.649   5.953  49.396  1.00  0.00     0.048 C 
HETATM    2  C2  UNL     1      23.890   4.688  49.668  1.00  0.00    -0.034 C 
HETATM    3  C3  UNL     1      23.016   4.376  48.629  1.00  0.00     0.014 C 
HETATM    4  C4  UNL     1      23.077   2.809  48.808  1.00  0.00     0.096 C 
HETATM    5  C5  UNL     1      22.382   3.149  50.151  1.00  0.00    -0.019 C 
HETATM    6  C6  UNL     1      21.126   3.220  50.525  1.00  0.00     0.055 C 
HETATM    7  C13 UNL     1      20.059   3.703  49.611  1.00  0.00     0.142 C 
HETATM    8  N2  UNL     1      19.996   4.324  48.478  1.00  0.00    -0.280 NA
HETATM    9  C14 UNL     1      20.808   4.869  47.444  1.00  0.00     0.269 C 
HETATM   10  N3  UNL     1      22.205   5.195  47.793  1.00  0.00    -0.375 N 
HETATM   11  C15 UNL     1      23.687   3.598  50.791  1.00  0.00     0.148 C 
HETATM   12  H14 UNL     1      22.911   5.939  47.623  1.00  0.00     0.161 HD
ENDROOT
BRANCH  11  13
HETATM   13  N4  UNL     1      24.697   2.634  50.778  1.00  0.00    -0.338 N 
HETATM   14  C16 UNL     1      24.841   2.040  52.078  1.00  0.00     0.297 C 
HETATM   15  O1  UNL     1      24.146   2.353  53.104  1.00  0.00    -0.258 OA
HETATM   16  H16 UNL     1      25.413   2.141  50.235  1.00  0.00     0.164 HD
BRANCH  14  17
HETATM   17  C17 UNL     1      25.789   0.991  52.453  1.00  0.00    -0.004 C 
HETATM   18  C18 UNL     1      26.586   0.126  52.746  1.00  0.00    -0.066 C 
BRANCH  18  19
HETATM   19  C19 UNL     1      27.558  -0.904  53.080  1.00  0.00     0.365 C 
BRANCH  19  20
HETATM   20  N5  UNL     1      28.820  -0.291  53.463  1.00  0.00     0.090 N 
HETATM   21  C20 UNL     1      28.599   0.232  54.813  1.00  0.00     0.310 C 
HETATM   22  C21 UNL     1      29.819  -1.351  53.490  1.00  0.00     0.310 C 
ENDBRANCH  19  20
ENDBRANCH  18  19
ENDBRANCH  14  17
ENDBRANCH  11  13
BRANCH   6  23
HETATM   23  N1  UNL     1      21.110   2.842  51.857  1.00  0.00    -0.355 N 
HETATM   24  H6  UNL     1      21.545   3.372  52.621  1.00  0.00     0.166 HD
BRANCH  23  25
HETATM   25  C7  UNL     1      20.467   1.634  52.242  1.00  0.00     0.033 A 
HETATM   26  C8  UNL     1      19.258   1.040  51.954  1.00  0.00     0.029 A 
HETATM   27  C9  UNL     1      18.918  -0.153  52.509  1.00  0.00     0.004 A 
HETATM   28  C10 UNL     1      19.803  -0.790  53.384  1.00  0.00     0.019 A 
HETATM   29  C11 UNL     1      21.020  -0.215  53.686  1.00  0.00     0.013 A 
HETATM   30 BR1  UNL     1      22.172  -1.164  54.902  1.00  0.00    -0.051 Br
HETATM   31  C12 UNL     1      21.355   1.016  53.104  1.00  0.00     0.048 A 
ENDBRANCH  23  25
ENDBRANCH   6  23
TORSDOF 6
ENDMDL
MODEL 4
REMARK VINA RESULT:      -7.6      4.462      8.620
REMARK  6 active torsions:
REMARK  status: ('A' for Active; 'I' for Inactive)
REMARK    1  A    between atoms: C6_6  and  N1_7 
REMARK    2  A    between atoms: N1_7  and  C7_8 
REMARK    3  A    between atoms: C15_19  and  N4_20 
REMARK       I    between atoms: N4_20  and  C16_21 
REMARK    4  A    between atoms: C16_21  and  C17_23 
REMARK    5  A    between atoms: C18_24  and  C19_25 
REMARK    6  A    between atoms: C19_25  and  N5_26 
ROOT
HETATM    1  C1  UNL     1      27.233  -0.967  52.609  1.00  0.00     0.048 C 
HETATM    2  C2  UNL     1      26.058  -0.043  52.734  1.00  0.00    -0.034 C 
HETATM    3  C3  UNL     1      25.531  -0.048  54.024  1.00  0.00     0.014 C 
HETATM    4  C4  UNL     1      25.014   1.444  54.011  1.00  0.00     0.096 C 
HETATM    5  C5  UNL     1      24.060   0.879  52.927  1.00  0.00    -0.019 C 
HETATM    6  C6  UNL     1      22.848   0.377  52.963  1.00  0.00     0.055 C 
HETATM    7  C13 UNL     1      22.369  -0.441  54.107  1.00  0.00     0.142 C 
HETATM    8  N2  UNL     1      22.895  -1.041  55.126  1.00  0.00    -0.280 NA
HETATM    9  C14 UNL     1      24.137  -1.268  55.782  1.00  0.00     0.269 C 
HETATM   10  N3  UNL     1      25.361  -1.093  54.976  1.00  0.00    -0.375 N 
HETATM   11  C15 UNL     1      25.146   0.905  51.862  1.00  0.00     0.148 C 
HETATM   12  H14 UNL     1      26.286  -1.547  54.830  1.00  0.00     0.161 HD
ENDROOT
BRANCH  11  13
HETATM   13  N4  UNL     1      25.729   2.159  51.663  1.00  0.00    -0.338 N 
HETATM   14  C16 UNL     1      25.053   2.866  50.612  1.00  0.00     0.297 C 
HETATM   15  O1  UNL     1      24.060   2.410  49.948  1.00  0.00    -0.258 OA
HETATM   16  H16 UNL     1      26.454   2.827  51.941  1.00  0.00     0.164 HD
BRANCH  14  17
HETATM   17  C17 UNL     1      25.371   4.207  50.124  1.00  0.00    -0.004 C 
HETATM   18  C18 UNL     1      25.624   5.327  49.735  1.00  0.00    -0.066 C 
BRANCH  18  19
HETATM   19  C19 UNL     1      25.919   6.681  49.290  1.00  0.00     0.365 C 
BRANCH  19  20
HETATM   20  N5  UNL     1      25.831   7.603  50.410  1.00  0.00     0.090 N 
HETATM   21  C20 UNL     1      26.753   8.693  50.083  1.00  0.00     0.310 C 
HETATM   22  C21 UNL     1      24.461   8.096  50.450  1.00  0.00     0.310 C 
ENDBRANCH  19  20
ENDBRANCH  18  19
ENDBRANCH  14  17
ENDBRANCH  11  13
BRANCH   6  23
HETATM   23  N1  UNL     1      22.265   0.721  51.756  1.00  0.00    -0.355 N 
HETATM   24  H6  UNL     1      22.630   0.457  50.833  1.00  0.00     0.166 HD
BRANCH  23  25
HETATM   25  C7  UNL     1      21.079   1.505  51.740  1.00  0.00     0.033 A 
HETATM   26  C8  UNL     1      20.766   2.803  52.078  1.00  0.00     0.029 A 
HETATM   27  C9  UNL     1      19.495   3.268  51.958  1.00  0.00     0.004 A 
HETATM   28  C10 UNL     1      18.488   2.421  51.484  1.00  0.00     0.019 A 
HETATM   29  C11 UNL     1      18.778   1.118  51.138  1.00  0.00     0.013 A 
HETATM   30 BR1  UNL     1      17.327   0.025  50.499  1.00  0.00    -0.051 Br
HETATM   31  C12 UNL     1      20.094   0.655  51.269  1.00  0.00     0.048 A 
ENDBRANCH  23  25
ENDBRANCH   6  23
TORSDOF 6
ENDMDL
MODEL 5
REMARK VINA RESULT:      -7.6      4.152      6.776
REMARK  6 active torsions:
REMARK  status: ('A' for Active; 'I' for Inactive)
REMARK    1  A    between atoms: C6_6  and  N1_7 
REMARK    2  A    between atoms: N1_7  and  C7_8 
REMARK    3  A    between atoms: C15_19  and  N4_20 
REMARK       I    between atoms: N4_20  and  C16_21 
REMARK    4  A    between atoms: C16_21  and  C17_23 
REMARK    5  A    between atoms: C18_24  and  C19_25 
REMARK    6  A    between atoms: C19_25  and  N5_26 
ROOT
HETATM    1  C1  UNL     1      27.845   8.463  45.127  1.00  0.00     0.048 C 
HETATM    2  C2  UNL     1      28.213   8.253  46.566  1.00  0.00    -0.034 C 
HETATM    3  C3  UNL     1      28.518   9.454  47.203  1.00  0.00     0.014 C 
HETATM    4  C4  UNL     1      28.035   9.022  48.642  1.00  0.00     0.096 C 
HETATM    5  C5  UNL     1      29.230   8.041  48.515  1.00  0.00    -0.019 C 
HETATM    6  C6  UNL     1      30.491   8.104  48.872  1.00  0.00     0.055 C 
HETATM    7  C13 UNL     1      31.260   9.374  48.827  1.00  0.00     0.142 C 
HETATM    8  N2  UNL     1      31.110  10.551  48.310  1.00  0.00    -0.280 NA
HETATM    9  C14 UNL     1      30.200  11.344  47.555  1.00  0.00     0.269 C 
HETATM   10  N3  UNL     1      29.194  10.623  46.750  1.00  0.00    -0.375 N 
HETATM   11  C15 UNL     1      28.447   7.097  47.614  1.00  0.00     0.148 C 
HETATM   12  H14 UNL     1      28.746  10.673  45.813  1.00  0.00     0.161 HD
ENDROOT
BRANCH  11  13
HETATM   13  N4  UNL     1      27.250   6.636  48.165  1.00  0.00    -0.338 N 
HETATM   14  C16 UNL     1      27.403   5.291  48.647  1.00  0.00     0.297 C 
HETATM   15  O1  UNL     1      28.483   4.610  48.576  1.00  0.00    -0.258 OA
HETATM   16  H16 UNL     1      26.269   6.834  48.388  1.00  0.00     0.164 HD
BRANCH  14  17
HETATM   17  C17 UNL     1      26.373   4.477  49.291  1.00  0.00    -0.004 C 
HETATM   18  C18 UNL     1      25.535   3.789  49.832  1.00  0.00    -0.066 C 
BRANCH  18  19
HETATM   19  C19 UNL     1      24.547   2.951  50.494  1.00  0.00     0.365 C 
BRANCH  19  20
HETATM   20  N5  UNL     1      24.452   3.310  51.900  1.00  0.00     0.090 N 
HETATM   21  C20 UNL     1      23.539   4.454  51.943  1.00  0.00     0.310 C 
HETATM   22  C21 UNL     1      23.865   2.171  52.593  1.00  0.00     0.310 C 
ENDBRANCH  19  20
ENDBRANCH  18  19
ENDBRANCH  14  17
ENDBRANCH  11  13
BRANCH   6  23
HETATM   23  N1  UNL     1      30.857   6.805  49.181  1.00  0.00    -0.355 N 
HETATM   24  H6  UNL     1      30.298   6.159  49.751  1.00  0.00     0.166 HD
BRANCH  23  25
HETATM   25  C7  UNL     1      32.094   6.287  48.709  1.00  0.00     0.033 A 
HETATM   26  C8  UNL     1      33.397   6.734  48.700  1.00  0.00     0.029 A 
HETATM   27  C9  UNL     1      34.386   5.988  48.144  1.00  0.00     0.004 A 
HETATM   28  C10 UNL     1      34.084   4.749  47.571  1.00  0.00     0.019 A 
HETATM   29  C11 UNL     1      32.786   4.280  47.569  1.00  0.00     0.013 A 
HETATM   30 BR1  UNL     1      32.464   2.565  46.755  1.00  0.00    -0.051 Br
HETATM   31  C12 UNL     1      31.778   5.063  48.148  1.00  0.00     0.048 A 
ENDBRANCH  23  25
ENDBRANCH   6  23
TORSDOF 6
ENDMDL
MODEL 6
REMARK VINA RESULT:      -7.4      4.151      7.043
REMARK  6 active torsions:
REMARK  status: ('A' for Active; 'I' for Inactive)
REMARK    1  A    between atoms: C6_6  and  N1_7 
REMARK    2  A    between atoms: N1_7  and  C7_8 
REMARK    3  A    between atoms: C15_19  and  N4_20 
REMARK       I    between atoms: N4_20  and  C16_21 
REMARK    4  A    between atoms: C16_21  and  C17_23 
REMARK    5  A    between atoms: C18_24  and  C19_25 
REMARK    6  A    between atoms: C19_25  and  N5_26 
ROOT
HETATM    1  C1  UNL     1      22.604   6.261  47.903  1.00  0.00     0.048 C 
HETATM    2  C2  UNL     1      22.939   4.953  48.557  1.00  0.00    -0.034 C 
HETATM    3  C3  UNL     1      22.078   3.936  48.151  1.00  0.00     0.014 C 
HETATM    4  C4  UNL     1      23.116   2.755  48.292  1.00  0.00     0.096 C 
HETATM    5  C5  UNL     1      23.008   3.124  49.794  1.00  0.00    -0.019 C 
HETATM    6  C6  UNL     1      22.260   2.687  50.779  1.00  0.00     0.055 C 
HETATM    7  C13 UNL     1      20.853   2.260  50.569  1.00  0.00     0.142 C 
HETATM    8  N2  UNL     1      19.963   2.365  49.636  1.00  0.00    -0.280 NA
HETATM    9  C14 UNL     1      19.763   2.870  48.320  1.00  0.00     0.269 C 
HETATM   10  N3  UNL     1      20.683   3.930  47.865  1.00  0.00    -0.375 N 
HETATM   11  C15 UNL     1      23.916   4.334  49.631  1.00  0.00     0.148 C 
HETATM   12  H14 UNL     1      20.660   4.824  47.333  1.00  0.00     0.161 HD
ENDROOT
BRANCH  11  13
HETATM   13  N4  UNL     1      25.172   4.045  49.095  1.00  0.00    -0.338 N 
HETATM   14  C16 UNL     1      26.031   5.193  49.178  1.00  0.00     0.297 C 
HETATM   15  O1  UNL     1      25.691   6.324  49.668  1.00  0.00    -0.258 OA
HETATM   16  H16 UNL     1      25.781   3.352  48.649  1.00  0.00     0.164 HD
BRANCH  14  17
HETATM   17  C17 UNL     1      27.419   5.274  48.725  1.00  0.00    -0.004 C 
HETATM   18  C18 UNL     1      28.565   5.357  48.339  1.00  0.00    -0.066 C 
BRANCH  18  19
HETATM   19  C19 UNL     1      29.936   5.481  47.866  1.00  0.00     0.365 C 
BRANCH  19  20
HETATM   20  N5  UNL     1      30.786   5.985  48.932  1.00  0.00     0.090 N 
HETATM   21  C20 UNL     1      32.096   5.373  48.700  1.00  0.00     0.310 C 
HETATM   22  C21 UNL     1      30.869   7.430  48.765  1.00  0.00     0.310 C 
ENDBRANCH  19  20
ENDBRANCH  18  19
ENDBRANCH  14  17
ENDBRANCH  11  13
BRANCH   6  23
HETATM   23  N1  UNL     1      23.037   2.804  51.919  1.00  0.00    -0.355 N 
HETATM   24  H6  UNL     1      23.094   3.646  52.505  1.00  0.00     0.166 HD
BRANCH  23  25
HETATM   25  C7  UNL     1      23.840   1.712  52.343  1.00  0.00     0.033 A 
HETATM   26  C8  UNL     1      25.134   1.303  52.103  1.00  0.00     0.029 A 
HETATM   27  C9  UNL     1      25.623   0.168  52.666  1.00  0.00     0.004 A 
HETATM   28  C10 UNL     1      24.807  -0.600  53.502  1.00  0.00     0.019 A 
HETATM   29  C11 UNL     1      23.509  -0.211  53.759  1.00  0.00     0.013 A 
HETATM   30 BR1  UNL     1      22.459  -1.332  54.919  1.00  0.00    -0.051 Br
HETATM   31  C12 UNL     1      23.021   0.964  53.170  1.00  0.00     0.048 A 
ENDBRANCH  23  25
ENDBRANCH   6  23
TORSDOF 6
ENDMDL
MODEL 7
REMARK VINA RESULT:      -7.4      3.187      4.264
REMARK  6 active torsions:
REMARK  status: ('A' for Active; 'I' for Inactive)
REMARK    1  A    between atoms: C6_6  and  N1_7 
REMARK    2  A    between atoms: N1_7  and  C7_8 
REMARK    3  A    between atoms: C15_19  and  N4_20 
REMARK       I    between atoms: N4_20  and  C16_21 
REMARK    4  A    between atoms: C16_21  and  C17_23 
REMARK    5  A    between atoms: C18_24  and  C19_25 
REMARK    6  A    between atoms: C19_25  and  N5_26 
ROOT
HETATM    1  C1  UNL     1      23.371   6.949  47.685  1.00  0.00     0.048 C 
HETATM    2  C2  UNL     1      24.696   6.923  48.389  1.00  0.00    -0.034 C 
HETATM    3  C3  UNL     1      25.021   8.166  48.926  1.00  0.00     0.014 C 
HETATM    4  C4  UNL     1      25.859   7.621  50.148  1.00  0.00     0.096 C 
HETATM    5  C5  UNL     1      26.803   7.145  49.013  1.00  0.00    -0.019 C 
HETATM    6  C6  UNL     1      27.852   7.676  48.430  1.00  0.00     0.055 C 
HETATM    7  C13 UNL     1      27.968   9.138  48.196  1.00  0.00     0.142 C 
HETATM    8  N2  UNL     1      27.181  10.165  48.228  1.00  0.00    -0.280 NA
HETATM    9  C14 UNL     1      25.840  10.550  48.510  1.00  0.00     0.269 C 
HETATM   10  N3  UNL     1      24.814   9.491  48.446  1.00  0.00    -0.375 N 
HETATM   11  C15 UNL     1      25.912   5.959  48.678  1.00  0.00     0.148 C 
HETATM   12  H14 UNL     1      23.840   9.350  48.106  1.00  0.00     0.161 HD
ENDROOT
BRANCH  11  13
HETATM   13  N4  UNL     1      25.662   5.103  49.753  1.00  0.00    -0.338 N 
HETATM   14  C16 UNL     1      26.572   3.992  49.732  1.00  0.00     0.297 C 
HETATM   15  O1  UNL     1      27.480   3.809  48.850  1.00  0.00    -0.258 OA
HETATM   16  H16 UNL     1      25.097   4.903  50.583  1.00  0.00     0.164 HD
BRANCH  14  17
HETATM   17  C17 UNL     1      26.623   2.893  50.696  1.00  0.00    -0.004 C 
HETATM   18  C18 UNL     1      26.686   1.981  51.491  1.00  0.00    -0.066 C 
BRANCH  18  19
HETATM   19  C19 UNL     1      26.786   0.885  52.444  1.00  0.00     0.365 C 
BRANCH  19  20
HETATM   20  N5  UNL     1      25.820   1.068  53.515  1.00  0.00     0.090 N 
HETATM   21  C20 UNL     1      24.538   0.638  52.953  1.00  0.00     0.310 C 
HETATM   22  C21 UNL     1      26.215   0.182  54.602  1.00  0.00     0.310 C 
ENDBRANCH  19  20
ENDBRANCH  18  19
ENDBRANCH  14  17
ENDBRANCH  11  13
BRANCH   6  23
HETATM   23  N1  UNL     1      28.662   6.610  48.078  1.00  0.00    -0.355 N 
HETATM   24  H6  UNL     1      28.339   5.764  47.593  1.00  0.00     0.166 HD
BRANCH  23  25
HETATM   25  C7  UNL     1      30.047   6.637  48.398  1.00  0.00     0.033 A 
HETATM   26  C8  UNL     1      30.886   7.540  49.014  1.00  0.00     0.029 A 
HETATM   27  C9  UNL     1      32.209   7.270  49.165  1.00  0.00     0.004 A 
HETATM   28  C10 UNL     1      32.731   6.062  48.693  1.00  0.00     0.019 A 
HETATM   29  C11 UNL     1      31.909   5.142  48.075  1.00  0.00     0.013 A 
HETATM   30 BR1  UNL     1      32.717   3.508  47.454  1.00  0.00    -0.051 Br
HETATM   31  C12 UNL     1      30.547   5.436  47.927  1.00  0.00     0.048 A 
ENDBRANCH  23  25
ENDBRANCH   6  23
TORSDOF 6
ENDMDL
MODEL 8
REMARK VINA RESULT:      -7.3      3.580      7.615
REMARK  6 active torsions:
REMARK  status: ('A' for Active; 'I' for Inactive)
REMARK    1  A    between atoms: C6_6  and  N1_7 
REMARK    2  A    between atoms: N1_7  and  C7_8 
REMARK    3  A    between atoms: C15_19  and  N4_20 
REMARK       I    between atoms: N4_20  and  C16_21 
REMARK    4  A    between atoms: C16_21  and  C17_23 
REMARK    5  A    between atoms: C18_24  and  C19_25 
REMARK    6  A    between atoms: C19_25  and  N5_26 
ROOT
HETATM    1  C1  UNL     1      20.733   4.528  51.297  1.00  0.00     0.048 C 
HETATM    2  C2  UNL     1      21.744   3.420  51.346  1.00  0.00    -0.034 C 
HETATM    3  C3  UNL     1      21.169   2.182  51.067  1.00  0.00     0.014 C 
HETATM    4  C4  UNL     1      22.450   1.532  50.414  1.00  0.00     0.096 C 
HETATM    5  C5  UNL     1      22.996   1.675  51.858  1.00  0.00    -0.019 C 
HETATM    6  C6  UNL     1      23.023   0.873  52.897  1.00  0.00     0.055 C 
HETATM    7  C13 UNL     1      21.918  -0.077  53.186  1.00  0.00     0.142 C 
HETATM    8  N2  UNL     1      20.701  -0.261  52.787  1.00  0.00    -0.280 NA
HETATM    9  C14 UNL     1      19.723   0.241  51.883  1.00  0.00     0.269 C 
HETATM   10  N3  UNL     1      19.902   1.626  51.406  1.00  0.00    -0.375 N 
HETATM   11  C15 UNL     1      23.264   3.162  51.682  1.00  0.00     0.148 C 
HETATM   12  H14 UNL     1      19.335   2.477  51.213  1.00  0.00     0.161 HD
ENDROOT
BRANCH  11  13
HETATM   13  N4  UNL     1      24.101   3.474  50.609  1.00  0.00    -0.338 N 
HETATM   14  C16 UNL     1      24.521   4.846  50.681  1.00  0.00     0.297 C 
HETATM   15  O1  UNL     1      24.173   5.667  51.597  1.00  0.00    -0.258 OA
HETATM   16  H16 UNL     1      24.568   3.150  49.757  1.00  0.00     0.164 HD
BRANCH  14  17
HETATM   17  C17 UNL     1      25.405   5.534  49.741  1.00  0.00    -0.004 C 
HETATM   18  C18 UNL     1      26.144   6.116  48.977  1.00  0.00    -0.066 C 
BRANCH  18  19
HETATM   19  C19 UNL     1      27.043   6.826  48.080  1.00  0.00     0.365 C 
BRANCH  19  20
HETATM   20  N5  UNL     1      26.526   8.158  47.809  1.00  0.00     0.090 N 
HETATM   21  C20 UNL     1      27.600   8.847  47.089  1.00  0.00     0.310 C 
HETATM   22  C21 UNL     1      25.364   7.998  46.946  1.00  0.00     0.310 C 
ENDBRANCH  19  20
ENDBRANCH  18  19
ENDBRANCH  14  17
ENDBRANCH  11  13
BRANCH   6  23
HETATM   23  N1  UNL     1      24.181   1.190  53.585  1.00  0.00    -0.355 N 
HETATM   24  H6  UNL     1      24.268   1.956  54.265  1.00  0.00     0.166 HD
BRANCH  23  25
HETATM   25  C7  UNL     1      25.367   0.439  53.360  1.00  0.00     0.033 A 
HETATM   26  C8  UNL     1      25.642  -0.833  52.909  1.00  0.00     0.029 A 
HETATM   27  C9  UNL     1      26.923  -1.277  52.813  1.00  0.00     0.004 A 
HETATM   28  C10 UNL     1      27.979  -0.435  53.175  1.00  0.00     0.019 A 
HETATM   29  C11 UNL     1      27.728   0.844  53.627  1.00  0.00     0.013 A 
HETATM   30 BR1  UNL     1      29.244   1.930  54.104  1.00  0.00    -0.051 Br
HETATM   31  C12 UNL     1      26.401   1.285  53.719  1.00  0.00     0.048 A 
ENDBRANCH  23  25
ENDBRANCH   6  23
TORSDOF 6
ENDMDL
MODEL 9
REMARK VINA RESULT:      -7.3      3.649      5.814
REMARK  6 active torsions:
REMARK  status: ('A' for Active; 'I' for Inactive)
REMARK    1  A    between atoms: C6_6  and  N1_7 
REMARK    2  A    between atoms: N1_7  and  C7_8 
REMARK    3  A    between atoms: C15_19  and  N4_20 
REMARK       I    between atoms: N4_20  and  C16_21 
REMARK    4  A    between atoms: C16_21  and  C17_23 
REMARK    5  A    between atoms: C18_24  and  C19_25 
REMARK    6  A    between atoms: C19_25  and  N5_26 
ROOT
HETATM    1  C1  UNL     1      26.408   8.716  45.721  1.00  0.00     0.048 C 
HETATM    2  C2  UNL     1      27.078   8.410  47.028  1.00  0.00    -0.034 C 
HETATM    3  C3  UNL     1      27.310   9.564  47.773  1.00  0.00     0.014 C 
HETATM    4  C4  UNL     1      27.190   8.887  49.194  1.00  0.00     0.096 C 
HETATM    5  C5  UNL     1      28.474   8.160  48.720  1.00  0.00    -0.019 C 
HETATM    6  C6  UNL     1      29.756   8.408  48.861  1.00  0.00     0.055 C 
HETATM    7  C13 UNL     1      30.293   9.792  48.871  1.00  0.00     0.142 C 
HETATM    8  N2  UNL     1      29.864  10.975  48.568  1.00  0.00    -0.280 NA
HETATM    9  C14 UNL     1      28.712  11.672  48.106  1.00  0.00     0.269 C 
HETATM   10  N3  UNL     1      27.694  10.880  47.389  1.00  0.00    -0.375 N 
HETATM   11  C15 UNL     1      27.688   7.201  47.839  1.00  0.00     0.148 C 
HETATM   12  H14 UNL     1      27.069  10.957  46.561  1.00  0.00     0.161 HD
ENDROOT
BRANCH  11  13
HETATM   13  N4  UNL     1      26.708   6.471  48.513  1.00  0.00    -0.338 N 
HETATM   14  C16 UNL     1      27.197   5.162  48.847  1.00  0.00     0.297 C 
HETATM   15  O1  UNL     1      28.365   4.726  48.562  1.00  0.00    -0.258 OA
HETATM   16  H16 UNL     1      25.756   6.448  48.891  1.00  0.00     0.164 HD
BRANCH  14  17
HETATM   17  C17 UNL     1      26.463   4.116  49.559  1.00  0.00    -0.004 C 
HETATM   18  C18 UNL     1      25.842   3.264  50.157  1.00  0.00    -0.066 C 
BRANCH  18  19
HETATM   19  C19 UNL     1      25.079   2.258  50.880  1.00  0.00     0.365 C 
BRANCH  19  20
HETATM   20  N5  UNL     1      25.563   2.155  52.248  1.00  0.00     0.090 N 
HETATM   21  C20 UNL     1      24.623   1.255  52.920  1.00  0.00     0.310 C 
HETATM   22  C21 UNL     1      26.886   1.550  52.188  1.00  0.00     0.310 C 
ENDBRANCH  19  20
ENDBRANCH  18  19
ENDBRANCH  14  17
ENDBRANCH  11  13
BRANCH   6  23
HETATM   23  N1  UNL     1      30.373   7.169  48.907  1.00  0.00    -0.355 N 
HETATM   24  H6  UNL     1      30.168   6.438  49.598  1.00  0.00     0.166 HD
BRANCH  23  25
HETATM   25  C7  UNL     1      31.378   6.844  47.956  1.00  0.00     0.033 A 
HETATM   26  C8  UNL     1      31.439   6.797  46.581  1.00  0.00     0.029 A 
HETATM   27  C9  UNL     1      32.581   6.423  45.946  1.00  0.00     0.004 A 
HETATM   28  C10 UNL     1      33.712   6.082  46.693  1.00  0.00     0.019 A 
HETATM   29  C11 UNL     1      33.675   6.123  48.072  1.00  0.00     0.013 A 
HETATM   30 BR1  UNL     1      35.280   5.634  49.017  1.00  0.00    -0.051 Br
HETATM   31  C12 UNL     1      32.490   6.511  48.710  1.00  0.00     0.048 A 
ENDBRANCH  23  25
ENDBRANCH   6  23
TORSDOF 6
ENDMDL
