MODEL 1
REMARK VINA RESULT:      -8.4      0.000      0.000
REMARK  6 active torsions:
REMARK  status: ('A' for Active; 'I' for Inactive)
REMARK    1  A    between atoms: N1_7  and  C6_8 
REMARK    2  A    between atoms: C6_8  and  O2_9 
REMARK    3  A    between atoms: O2_9  and  C7_10 
REMARK    4  A    between atoms: C9_12  and  N2_13 
REMARK    5  A    between atoms: N2_13  and  C10_14 
REMARK    6  A    between atoms: C12_16  and  C13_17 
ROOT
HETATM    1  C7  UNL     1      25.501   3.211  50.919  1.00  0.00     0.064 A 
HETATM    2  C8  UNL     1      24.471   3.362  51.681  1.00  0.00     0.132 A 
HETATM    3  C9  UNL     1      23.648   3.829  50.489  1.00  0.00     0.242 C 
HETATM    4  C19 UNL     1      24.387   3.765  49.204  1.00  0.00     0.101 A 
HETATM    5  C20 UNL     1      25.658   4.582  49.358  1.00  0.00     0.032 A 
HETATM    6  C21 UNL     1      24.878   4.473  50.376  1.00  0.00     0.068 A 
HETATM    7  N3  UNL     1      23.753   5.217  50.754  1.00  0.00    -0.374 N 
HETATM    8  H27 UNL     1      23.564   6.171  50.996  1.00  0.00     0.157 HD
ENDROOT
BRANCH   3   9
HETATM    9  N2  UNL     1      22.346   3.287  50.484  1.00  0.00     0.118 N 
HETATM   10  H14 UNL     1      21.799   3.739  51.248  1.00  0.00     0.319 HD
BRANCH   9  11
HETATM   11  C10 UNL     1      22.442   1.870  50.828  1.00  0.00     0.233 A 
HETATM   12  C11 UNL     1      21.580   0.879  50.153  1.00  0.00     0.048 A 
HETATM   13  C12 UNL     1      21.290   1.234  51.557  1.00  0.00     0.054 A 
BRANCH  13  14
HETATM   14  C13 UNL     1      21.590   0.279  52.656  1.00  0.00    -0.052 A 
HETATM   15  C14 UNL     1      20.614  -0.513  53.222  1.00  0.00     0.007 A 
HETATM   16  C15 UNL     1      20.853  -1.409  54.240  1.00  0.00     0.001 A 
HETATM   17  C16 UNL     1      22.153  -1.539  54.740  1.00  0.00     0.000 A 
HETATM   18  C17 UNL     1      23.162  -0.764  54.200  1.00  0.00     0.001 A 
HETATM   19  C18 UNL     1      22.878   0.125  53.178  1.00  0.00     0.007 A 
ENDBRANCH  13  14
ENDBRANCH   9  11
ENDBRANCH   3   9
BRANCH   1  20
HETATM   20  O2  UNL     1      26.375   2.108  51.111  1.00  0.00    -0.338 OA
BRANCH  20  21
HETATM   21  C6  UNL     1      27.232   2.261  52.243  1.00  0.00     0.295 C 
BRANCH  21  22
HETATM   22  N1  UNL     1      27.673   1.024  52.763  1.00  0.00    -0.384 N 
HETATM   23  C2  UNL     1      26.652   0.209  53.364  1.00  0.00     0.101 C 
HETATM   24  C1  UNL     1      26.553  -1.079  52.557  1.00  0.00     0.034 C 
HETATM   25  C3  UNL     1      26.792  -0.035  54.822  1.00  0.00     0.192 C 
HETATM   26  O1  UNL     1      28.060  -0.196  55.304  1.00  0.00    -0.388 OA
HETATM   27  C4  UNL     1      29.044  -0.183  54.331  1.00  0.00     0.187 C 
HETATM   28  C5  UNL     1      28.894   1.070  53.508  1.00  0.00     0.145 C 
ENDBRANCH  21  22
ENDBRANCH  20  21
ENDBRANCH   1  20
TORSDOF 6
ENDMDL
MODEL 2
REMARK VINA RESULT:      -8.3      1.668      5.122
REMARK  6 active torsions:
REMARK  status: ('A' for Active; 'I' for Inactive)
REMARK    1  A    between atoms: N1_7  and  C6_8 
REMARK    2  A    between atoms: C6_8  and  O2_9 
REMARK    3  A    between atoms: O2_9  and  C7_10 
REMARK    4  A    between atoms: C9_12  and  N2_13 
REMARK    5  A    between atoms: N2_13  and  C10_14 
REMARK    6  A    between atoms: C12_16  and  C13_17 
ROOT
HETATM    1  C7  UNL     1      23.755   0.009  53.168  1.00  0.00     0.064 A 
HETATM    2  C8  UNL     1      23.612   0.684  52.078  1.00  0.00     0.132 A 
HETATM    3  C9  UNL     1      22.193   1.055  52.486  1.00  0.00     0.242 C 
HETATM    4  C19 UNL     1      21.822   0.564  53.836  1.00  0.00     0.101 A 
HETATM    5  C20 UNL     1      22.033  -0.941  53.856  1.00  0.00     0.032 A 
HETATM    6  C21 UNL     1      22.330  -0.299  52.780  1.00  0.00     0.068 A 
HETATM    7  N3  UNL     1      21.537   0.083  51.691  1.00  0.00    -0.374 N 
HETATM    8  H27 UNL     1      20.994  -0.386  50.991  1.00  0.00     0.157 HD
ENDROOT
BRANCH   3   9
HETATM    9  N2  UNL     1      21.886   2.404  52.211  1.00  0.00     0.118 N 
HETATM   10  H14 UNL     1      21.456   2.456  51.262  1.00  0.00     0.319 HD
BRANCH   9  11
HETATM   11  C10 UNL     1      23.139   3.151  52.137  1.00  0.00     0.233 A 
HETATM   12  C11 UNL     1      23.177   4.582  52.499  1.00  0.00     0.048 A 
HETATM   13  C12 UNL     1      23.279   4.206  51.075  1.00  0.00     0.054 A 
BRANCH  13  14
HETATM   14  C13 UNL     1      24.575   4.317  50.355  1.00  0.00    -0.052 A 
HETATM   15  C14 UNL     1      25.028   5.515  49.846  1.00  0.00     0.007 A 
HETATM   16  C15 UNL     1      26.222   5.657  49.175  1.00  0.00     0.001 A 
HETATM   17  C16 UNL     1      27.036   4.535  48.991  1.00  0.00     0.000 A 
HETATM   18  C17 UNL     1      26.620   3.314  49.487  1.00  0.00     0.001 A 
HETATM   19  C18 UNL     1      25.412   3.214  50.155  1.00  0.00     0.007 A 
ENDBRANCH  13  14
ENDBRANCH   9  11
ENDBRANCH   3   9
BRANCH   1  20
HETATM   20  O2  UNL     1      24.993   0.032  53.864  1.00  0.00    -0.338 OA
BRANCH  20  21
HETATM   21  C6  UNL     1      26.014  -0.732  53.222  1.00  0.00     0.295 C 
BRANCH  21  22
HETATM   22  N1  UNL     1      27.236  -0.032  53.120  1.00  0.00    -0.384 N 
HETATM   23  C2  UNL     1      28.254  -0.431  54.054  1.00  0.00     0.101 C 
HETATM   24  C1  UNL     1      29.427  -0.980  53.251  1.00  0.00     0.034 C 
HETATM   25  C3  UNL     1      28.665   0.597  55.044  1.00  0.00     0.192 C 
HETATM   26  O1  UNL     1      28.713   1.891  54.609  1.00  0.00    -0.388 OA
HETATM   27  C4  UNL     1      28.438   2.049  53.262  1.00  0.00     0.187 C 
HETATM   28  C5  UNL     1      27.121   1.385  52.956  1.00  0.00     0.145 C 
ENDBRANCH  21  22
ENDBRANCH  20  21
ENDBRANCH   1  20
TORSDOF 6
ENDMDL
MODEL 3
REMARK VINA RESULT:      -8.2      1.603      5.320
REMARK  6 active torsions:
REMARK  status: ('A' for Active; 'I' for Inactive)
REMARK    1  A    between atoms: N1_7  and  C6_8 
REMARK    2  A    between atoms: C6_8  and  O2_9 
REMARK    3  A    between atoms: O2_9  and  C7_10 
REMARK    4  A    between atoms: C9_12  and  N2_13 
REMARK    5  A    between atoms: N2_13  and  C10_14 
REMARK    6  A    between atoms: C12_16  and  C13_17 
ROOT
HETATM    1  C7  UNL     1      27.185   1.187  52.682  1.00  0.00     0.064 A 
HETATM    2  C8  UNL     1      26.761   0.097  52.138  1.00  0.00     0.132 A 
HETATM    3  C9  UNL     1      26.736  -0.582  53.501  1.00  0.00     0.242 C 
HETATM    4  C19 UNL     1      27.087   0.329  54.618  1.00  0.00     0.101 A 
HETATM    5  C20 UNL     1      28.451   0.929  54.317  1.00  0.00     0.032 A 
HETATM    6  C21 UNL     1      27.934   0.127  53.452  1.00  0.00     0.068 A 
HETATM    7  N3  UNL     1      27.968  -1.269  53.360  1.00  0.00    -0.374 N 
HETATM    8  H27 UNL     1      28.675  -1.971  53.252  1.00  0.00     0.157 HD
ENDROOT
BRANCH   3   9
HETATM    9  N2  UNL     1      25.589  -1.380  53.688  1.00  0.00     0.118 N 
HETATM   10  H14 UNL     1      25.398  -1.894  52.802  1.00  0.00     0.319 HD
BRANCH   9  11
HETATM   11  C10 UNL     1      24.448  -0.493  53.904  1.00  0.00     0.233 A 
HETATM   12  C11 UNL     1      23.382  -0.866  54.856  1.00  0.00     0.048 A 
HETATM   13  C12 UNL     1      23.098  -0.934  53.408  1.00  0.00     0.054 A 
BRANCH  13  14
HETATM   14  C13 UNL     1      22.218   0.076  52.763  1.00  0.00    -0.052 A 
HETATM   15  C14 UNL     1      22.270   0.332  51.410  1.00  0.00     0.007 A 
HETATM   16  C15 UNL     1      21.472   1.258  50.777  1.00  0.00     0.001 A 
HETATM   17  C16 UNL     1      20.549   1.989  51.531  1.00  0.00     0.000 A 
HETATM   18  C17 UNL     1      20.464   1.763  52.893  1.00  0.00     0.001 A 
HETATM   19  C18 UNL     1      21.285   0.822  53.490  1.00  0.00     0.007 A 
ENDBRANCH  13  14
ENDBRANCH   9  11
ENDBRANCH   3   9
BRANCH   1  20
HETATM   20  O2  UNL     1      26.707   2.444  52.226  1.00  0.00    -0.338 OA
BRANCH  20  21
HETATM   21  C6  UNL     1      26.022   2.366  50.976  1.00  0.00     0.295 C 
BRANCH  21  22
HETATM   22  N1  UNL     1      24.791   3.058  50.985  1.00  0.00    -0.384 N 
HETATM   23  C2  UNL     1      24.683   4.135  50.038  1.00  0.00     0.101 C 
HETATM   24  C1  UNL     1      23.561   3.786  49.069  1.00  0.00     0.034 C 
HETATM   25  C3  UNL     1      24.542   5.495  50.616  1.00  0.00     0.192 C 
HETATM   26  O1  UNL     1      23.795   5.610  51.754  1.00  0.00    -0.388 OA
HETATM   27  C4  UNL     1      23.205   4.429  52.169  1.00  0.00     0.187 C 
HETATM   28  C5  UNL     1      24.271   3.370  52.281  1.00  0.00     0.145 C 
ENDBRANCH  21  22
ENDBRANCH  20  21
ENDBRANCH   1  20
TORSDOF 6
ENDMDL
MODEL 4
REMARK VINA RESULT:      -8.1      2.187      5.764
REMARK  6 active torsions:
REMARK  status: ('A' for Active; 'I' for Inactive)
REMARK    1  A    between atoms: N1_7  and  C6_8 
REMARK    2  A    between atoms: C6_8  and  O2_9 
REMARK    3  A    between atoms: O2_9  and  C7_10 
REMARK    4  A    between atoms: C9_12  and  N2_13 
REMARK    5  A    between atoms: N2_13  and  C10_14 
REMARK    6  A    between atoms: C12_16  and  C13_17 
ROOT
HETATM    1  C7  UNL     1      26.165   0.664  53.922  1.00  0.00     0.064 A 
HETATM    2  C8  UNL     1      26.196   1.954  53.930  1.00  0.00     0.132 A 
HETATM    3  C9  UNL     1      27.474   1.935  53.103  1.00  0.00     0.242 C 
HETATM    4  C19 UNL     1      27.891   0.571  52.696  1.00  0.00     0.101 A 
HETATM    5  C20 UNL     1      28.029  -0.268  53.956  1.00  0.00     0.032 A 
HETATM    6  C21 UNL     1      27.638   0.953  54.077  1.00  0.00     0.068 A 
HETATM    7  N3  UNL     1      28.367   2.144  54.184  1.00  0.00    -0.374 N 
HETATM    8  H27 UNL     1      29.032   2.530  54.827  1.00  0.00     0.157 HD
ENDROOT
BRANCH   3   9
HETATM    9  N2  UNL     1      27.477   2.914  52.088  1.00  0.00     0.118 N 
HETATM   10  H14 UNL     1      27.248   3.835  52.519  1.00  0.00     0.319 HD
BRANCH   9  11
HETATM   11  C10 UNL     1      26.390   2.610  51.160  1.00  0.00     0.233 A 
HETATM   12  C11 UNL     1      26.574   2.804  49.707  1.00  0.00     0.048 A 
HETATM   13  C12 UNL     1      25.720   3.754  50.449  1.00  0.00     0.054 A 
BRANCH  13  14
HETATM   14  C13 UNL     1      24.242   3.720  50.294  1.00  0.00    -0.052 A 
HETATM   15  C14 UNL     1      23.395   4.233  51.254  1.00  0.00     0.007 A 
HETATM   16  C15 UNL     1      22.023   4.221  51.146  1.00  0.00     0.001 A 
HETATM   17  C16 UNL     1      21.435   3.663  50.006  1.00  0.00     0.000 A 
HETATM   18  C17 UNL     1      22.248   3.138  49.019  1.00  0.00     0.001 A 
HETATM   19  C18 UNL     1      23.624   3.170  49.167  1.00  0.00     0.007 A 
ENDBRANCH  13  14
ENDBRANCH   9  11
ENDBRANCH   3   9
BRANCH   1  20
HETATM   20  O2  UNL     1      24.927  -0.019  53.793  1.00  0.00    -0.338 OA
BRANCH  20  21
HETATM   21  C6  UNL     1      23.979   0.682  52.987  1.00  0.00     0.295 C 
BRANCH  21  22
HETATM   22  N1  UNL     1      22.738   0.014  52.901  1.00  0.00    -0.384 N 
HETATM   23  C2  UNL     1      21.649   0.801  52.389  1.00  0.00     0.101 C 
HETATM   24  C1  UNL     1      21.177   0.152  51.095  1.00  0.00     0.034 C 
HETATM   25  C3  UNL     1      20.538   1.065  53.339  1.00  0.00     0.192 C 
HETATM   26  O1  UNL     1      20.207   0.058  54.200  1.00  0.00    -0.388 OA
HETATM   27  C4  UNL     1      20.921  -1.112  54.008  1.00  0.00     0.187 C 
HETATM   28  C5  UNL     1      22.392  -0.790  54.033  1.00  0.00     0.145 C 
ENDBRANCH  21  22
ENDBRANCH  20  21
ENDBRANCH   1  20
TORSDOF 6
ENDMDL
MODEL 5
REMARK VINA RESULT:      -8.0      2.425      5.998
REMARK  6 active torsions:
REMARK  status: ('A' for Active; 'I' for Inactive)
REMARK    1  A    between atoms: N1_7  and  C6_8 
REMARK    2  A    between atoms: C6_8  and  O2_9 
REMARK    3  A    between atoms: O2_9  and  C7_10 
REMARK    4  A    between atoms: C9_12  and  N2_13 
REMARK    5  A    between atoms: N2_13  and  C10_14 
REMARK    6  A    between atoms: C12_16  and  C13_17 
ROOT
HETATM    1  C7  UNL     1      24.804   3.058  51.088  1.00  0.00     0.064 A 
HETATM    2  C8  UNL     1      24.152   3.261  49.994  1.00  0.00     0.132 A 
HETATM    3  C9  UNL     1      23.320   4.335  50.680  1.00  0.00     0.242 C 
HETATM    4  C19 UNL     1      23.744   4.604  52.077  1.00  0.00     0.101 A 
HETATM    5  C20 UNL     1      23.695   3.289  52.838  1.00  0.00     0.032 A 
HETATM    6  C21 UNL     1      23.396   3.279  51.585  1.00  0.00     0.068 A 
HETATM    7  N3  UNL     1      22.184   3.525  50.929  1.00  0.00    -0.374 N 
HETATM    8  H27 UNL     1      21.270   3.114  50.918  1.00  0.00     0.157 HD
ENDROOT
BRANCH   3   9
HETATM    9  N2  UNL     1      23.118   5.468  49.865  1.00  0.00     0.118 N 
HETATM   10  H14 UNL     1      22.932   5.143  48.892  1.00  0.00     0.319 HD
BRANCH   9  11
HETATM   11  C10 UNL     1      24.368   6.223  49.817  1.00  0.00     0.233 A 
HETATM   12  C11 UNL     1      24.382   7.611  49.311  1.00  0.00     0.048 A 
HETATM   13  C12 UNL     1      24.957   6.542  48.470  1.00  0.00     0.054 A 
BRANCH  13  14
HETATM   14  C13 UNL     1      26.429   6.425  48.297  1.00  0.00    -0.052 A 
HETATM   15  C14 UNL     1      27.189   7.460  47.796  1.00  0.00     0.007 A 
HETATM   16  C15 UNL     1      28.553   7.390  47.622  1.00  0.00     0.001 A 
HETATM   17  C16 UNL     1      29.223   6.213  47.968  1.00  0.00     0.000 A 
HETATM   18  C17 UNL     1      28.498   5.150  48.475  1.00  0.00     0.001 A 
HETATM   19  C18 UNL     1      27.128   5.262  48.634  1.00  0.00     0.007 A 
ENDBRANCH  13  14
ENDBRANCH   9  11
ENDBRANCH   3   9
BRANCH   1  20
HETATM   20  O2  UNL     1      26.200   2.802  51.049  1.00  0.00    -0.338 OA
BRANCH  20  21
HETATM   21  C6  UNL     1      26.540   1.476  51.455  1.00  0.00     0.295 C 
BRANCH  21  22
HETATM   22  N1  UNL     1      26.903   1.400  52.818  1.00  0.00    -0.384 N 
HETATM   23  C2  UNL     1      28.306   1.216  53.073  1.00  0.00     0.101 C 
HETATM   24  C1  UNL     1      28.801   2.436  53.838  1.00  0.00     0.034 C 
HETATM   25  C3  UNL     1      28.685  -0.064  53.723  1.00  0.00     0.192 C 
HETATM   26  O1  UNL     1      27.827  -0.557  54.665  1.00  0.00    -0.388 OA
HETATM   27  C4  UNL     1      26.745   0.263  54.934  1.00  0.00     0.187 C 
HETATM   28  C5  UNL     1      26.053   0.592  53.637  1.00  0.00     0.145 C 
ENDBRANCH  21  22
ENDBRANCH  20  21
ENDBRANCH   1  20
TORSDOF 6
ENDMDL
MODEL 6
REMARK VINA RESULT:      -7.6      2.327      6.703
REMARK  6 active torsions:
REMARK  status: ('A' for Active; 'I' for Inactive)
REMARK    1  A    between atoms: N1_7  and  C6_8 
REMARK    2  A    between atoms: C6_8  and  O2_9 
REMARK    3  A    between atoms: O2_9  and  C7_10 
REMARK    4  A    between atoms: C9_12  and  N2_13 
REMARK    5  A    between atoms: N2_13  and  C10_14 
REMARK    6  A    between atoms: C12_16  and  C13_17 
ROOT
HETATM    1  C7  UNL     1      24.870   0.887  52.955  1.00  0.00     0.064 A 
HETATM    2  C8  UNL     1      25.155   2.128  53.164  1.00  0.00     0.132 A 
HETATM    3  C9  UNL     1      26.558   1.905  52.617  1.00  0.00     0.242 C 
HETATM    4  C19 UNL     1      26.775   0.532  52.099  1.00  0.00     0.101 A 
HETATM    5  C20 UNL     1      26.452  -0.443  53.218  1.00  0.00     0.032 A 
HETATM    6  C21 UNL     1      26.296   0.815  53.443  1.00  0.00     0.068 A 
HETATM    7  N3  UNL     1      27.204   1.790  53.873  1.00  0.00    -0.374 N 
HETATM    8  H27 UNL     1      27.769   1.945  54.686  1.00  0.00     0.157 HD
ENDROOT
BRANCH   3   9
HETATM    9  N2  UNL     1      26.988   2.959  51.783  1.00  0.00     0.118 N 
HETATM   10  H14 UNL     1      27.153   3.800  52.376  1.00  0.00     0.319 HD
BRANCH   9  11
HETATM   11  C10 UNL     1      25.891   3.300  50.880  1.00  0.00     0.233 A 
HETATM   12  C11 UNL     1      26.055   3.153  49.419  1.00  0.00     0.048 A 
HETATM   13  C12 UNL     1      26.043   4.510  50.000  1.00  0.00     0.054 A 
BRANCH  13  14
HETATM   14  C13 UNL     1      24.868   5.401  49.814  1.00  0.00    -0.052 A 
HETATM   15  C14 UNL     1      24.060   5.322  48.700  1.00  0.00     0.007 A 
HETATM   16  C15 UNL     1      22.963   6.128  48.493  1.00  0.00     0.001 A 
HETATM   17  C16 UNL     1      22.633   7.087  49.457  1.00  0.00     0.000 A 
HETATM   18  C17 UNL     1      23.416   7.199  50.590  1.00  0.00     0.001 A 
HETATM   19  C18 UNL     1      24.511   6.369  50.759  1.00  0.00     0.007 A 
ENDBRANCH  13  14
ENDBRANCH   9  11
ENDBRANCH   3   9
BRANCH   1  20
HETATM   20  O2  UNL     1      23.583   0.522  52.479  1.00  0.00    -0.338 OA
BRANCH  20  21
HETATM   21  C6  UNL     1      22.529   1.287  53.065  1.00  0.00     0.295 C 
BRANCH  21  22
HETATM   22  N1  UNL     1      21.613   1.775  52.107  1.00  0.00    -0.384 N 
HETATM   23  C2  UNL     1      22.088   2.870  51.304  1.00  0.00     0.101 C 
HETATM   24  C1  UNL     1      22.118   2.400  49.855  1.00  0.00     0.034 C 
HETATM   25  C3  UNL     1      21.371   4.159  51.476  1.00  0.00     0.192 C 
HETATM   26  O1  UNL     1      20.022   4.095  51.679  1.00  0.00    -0.388 OA
HETATM   27  C4  UNL     1      19.498   2.815  51.619  1.00  0.00     0.187 C 
HETATM   28  C5  UNL     1      20.267   1.932  52.566  1.00  0.00     0.145 C 
ENDBRANCH  21  22
ENDBRANCH  20  21
ENDBRANCH   1  20
TORSDOF 6
ENDMDL
MODEL 7
REMARK VINA RESULT:      -7.6      2.213      5.430
REMARK  6 active torsions:
REMARK  status: ('A' for Active; 'I' for Inactive)
REMARK    1  A    between atoms: N1_7  and  C6_8 
REMARK    2  A    between atoms: C6_8  and  O2_9 
REMARK    3  A    between atoms: O2_9  and  C7_10 
REMARK    4  A    between atoms: C9_12  and  N2_13 
REMARK    5  A    between atoms: N2_13  and  C10_14 
REMARK    6  A    between atoms: C12_16  and  C13_17 
ROOT
HETATM    1  C7  UNL     1      23.479   3.002  50.955  1.00  0.00     0.064 A 
HETATM    2  C8  UNL     1      24.523   2.341  50.583  1.00  0.00     0.132 A 
HETATM    3  C9  UNL     1      25.349   3.620  50.608  1.00  0.00     0.242 C 
HETATM    4  C19 UNL     1      24.593   4.799  51.097  1.00  0.00     0.101 A 
HETATM    5  C20 UNL     1      23.356   4.951  50.228  1.00  0.00     0.032 A 
HETATM    6  C21 UNL     1      24.144   3.959  49.997  1.00  0.00     0.068 A 
HETATM    7  N3  UNL     1      25.301   3.869  49.213  1.00  0.00    -0.374 N 
HETATM    8  H27 UNL     1      25.530   3.984  48.244  1.00  0.00     0.157 HD
ENDROOT
BRANCH   3   9
HETATM    9  N2  UNL     1      26.629   3.427  51.168  1.00  0.00     0.118 N 
HETATM   10  H14 UNL     1      27.292   3.195  50.399  1.00  0.00     0.319 HD
BRANCH   9  11
HETATM   11  C10 UNL     1      26.574   2.252  52.034  1.00  0.00     0.233 A 
HETATM   12  C11 UNL     1      26.491   2.410  53.501  1.00  0.00     0.048 A 
HETATM   13  C12 UNL     1      27.763   1.952  52.906  1.00  0.00     0.054 A 
BRANCH  13  14
HETATM   14  C13 UNL     1      28.197   0.537  53.046  1.00  0.00    -0.052 A 
HETATM   15  C14 UNL     1      29.441   0.200  53.534  1.00  0.00     0.007 A 
HETATM   16  C15 UNL     1      29.879  -1.097  53.679  1.00  0.00     0.001 A 
HETATM   17  C16 UNL     1      29.027  -2.146  53.319  1.00  0.00     0.000 A 
HETATM   18  C17 UNL     1      27.770  -1.852  52.825  1.00  0.00     0.001 A 
HETATM   19  C18 UNL     1      27.369  -0.533  52.695  1.00  0.00     0.007 A 
ENDBRANCH  13  14
ENDBRANCH   9  11
ENDBRANCH   3   9
BRANCH   1  20
HETATM   20  O2  UNL     1      22.565   2.429  51.880  1.00  0.00    -0.338 OA
BRANCH  20  21
HETATM   21  C6  UNL     1      23.143   1.392  52.673  1.00  0.00     0.295 C 
BRANCH  21  22
HETATM   22  N1  UNL     1      22.260   0.310  52.882  1.00  0.00    -0.384 N 
HETATM   23  C2  UNL     1      21.007   0.649  53.502  1.00  0.00     0.101 C 
HETATM   24  C1  UNL     1      19.898   0.319  52.512  1.00  0.00     0.034 C 
HETATM   25  C3  UNL     1      20.771   0.066  54.847  1.00  0.00     0.192 C 
HETATM   26  O1  UNL     1      21.231  -1.202  55.062  1.00  0.00    -0.388 OA
HETATM   27  C4  UNL     1      21.797  -1.798  53.949  1.00  0.00     0.187 C 
HETATM   28  C5  UNL     1      22.859  -0.882  53.397  1.00  0.00     0.145 C 
ENDBRANCH  21  22
ENDBRANCH  20  21
ENDBRANCH   1  20
TORSDOF 6
ENDMDL
MODEL 8
REMARK VINA RESULT:      -7.6      2.539      5.709
REMARK  6 active torsions:
REMARK  status: ('A' for Active; 'I' for Inactive)
REMARK    1  A    between atoms: N1_7  and  C6_8 
REMARK    2  A    between atoms: C6_8  and  O2_9 
REMARK    3  A    between atoms: O2_9  and  C7_10 
REMARK    4  A    between atoms: C9_12  and  N2_13 
REMARK    5  A    between atoms: N2_13  and  C10_14 
REMARK    6  A    between atoms: C12_16  and  C13_17 
ROOT
HETATM    1  C7  UNL     1      20.967   2.320  51.581  1.00  0.00     0.064 A 
HETATM    2  C8  UNL     1      20.216   1.997  52.579  1.00  0.00     0.132 A 
HETATM    3  C9  UNL     1      20.288   0.533  52.169  1.00  0.00     0.242 C 
HETATM    4  C19 UNL     1      21.180   0.290  51.009  1.00  0.00     0.101 A 
HETATM    5  C20 UNL     1      20.704   1.168  49.864  1.00  0.00     0.032 A 
HETATM    6  C21 UNL     1      20.085   1.247  50.990  1.00  0.00     0.068 A 
HETATM    7  N3  UNL     1      19.031   0.488  51.514  1.00  0.00    -0.374 N 
HETATM    8  H27 UNL     1      18.079   0.299  51.262  1.00  0.00     0.157 HD
ENDROOT
BRANCH   3   9
HETATM    9  N2  UNL     1      20.453  -0.332  53.271  1.00  0.00     0.118 N 
HETATM   10  H14 UNL     1      20.374   0.231  54.144  1.00  0.00     0.319 HD
BRANCH   9  11
HETATM   11  C10 UNL     1      21.817  -0.853  53.238  1.00  0.00     0.233 A 
HETATM   12  C11 UNL     1      22.423  -1.434  54.454  1.00  0.00     0.048 A 
HETATM   13  C12 UNL     1      22.883  -0.108  53.994  1.00  0.00     0.054 A 
BRANCH  13  14
HETATM   14  C13 UNL     1      24.219   0.050  53.361  1.00  0.00    -0.052 A 
HETATM   15  C14 UNL     1      24.509   1.104  52.522  1.00  0.00     0.007 A 
HETATM   16  C15 UNL     1      25.733   1.285  51.917  1.00  0.00     0.001 A 
HETATM   17  C16 UNL     1      26.753   0.358  52.157  1.00  0.00     0.000 A 
HETATM   18  C17 UNL     1      26.504  -0.715  52.993  1.00  0.00     0.001 A 
HETATM   19  C18 UNL     1      25.259  -0.859  53.580  1.00  0.00     0.007 A 
ENDBRANCH  13  14
ENDBRANCH   9  11
ENDBRANCH   3   9
BRANCH   1  20
HETATM   20  O2  UNL     1      21.958   3.326  51.730  1.00  0.00    -0.338 OA
BRANCH  20  21
HETATM   21  C6  UNL     1      21.615   4.553  51.086  1.00  0.00     0.295 C 
BRANCH  21  22
HETATM   22  N1  UNL     1      22.699   5.117  50.378  1.00  0.00    -0.384 N 
HETATM   23  C2  UNL     1      23.214   4.318  49.299  1.00  0.00     0.101 C 
HETATM   24  C1  UNL     1      23.007   5.096  48.007  1.00  0.00     0.034 C 
HETATM   25  C3  UNL     1      24.607   3.830  49.461  1.00  0.00     0.192 C 
HETATM   26  O1  UNL     1      25.493   4.677  50.066  1.00  0.00    -0.388 OA
HETATM   27  C4  UNL     1      24.969   5.919  50.379  1.00  0.00     0.187 C 
HETATM   28  C5  UNL     1      23.712   5.724  51.186  1.00  0.00     0.145 C 
ENDBRANCH  21  22
ENDBRANCH  20  21
ENDBRANCH   1  20
TORSDOF 6
ENDMDL
MODEL 9
REMARK VINA RESULT:      -7.5      3.011      6.440
REMARK  6 active torsions:
REMARK  status: ('A' for Active; 'I' for Inactive)
REMARK    1  A    between atoms: N1_7  and  C6_8 
REMARK    2  A    between atoms: C6_8  and  O2_9 
REMARK    3  A    between atoms: O2_9  and  C7_10 
REMARK    4  A    between atoms: C9_12  and  N2_13 
REMARK    5  A    between atoms: N2_13  and  C10_14 
REMARK    6  A    between atoms: C12_16  and  C13_17 
ROOT
HETATM    1  C7  UNL     1      24.372   4.978  49.985  1.00  0.00     0.064 A 
HETATM    2  C8  UNL     1      24.099   5.144  51.235  1.00  0.00     0.132 A 
HETATM    3  C9  UNL     1      24.215   3.644  51.467  1.00  0.00     0.242 C 
HETATM    4  C19 UNL     1      24.637   2.893  50.259  1.00  0.00     0.101 A 
HETATM    5  C20 UNL     1      23.652   3.211  49.146  1.00  0.00     0.032 A 
HETATM    6  C21 UNL     1      23.491   3.790  50.285  1.00  0.00     0.068 A 
HETATM    7  N3  UNL     1      22.824   3.369  51.443  1.00  0.00    -0.374 N 
HETATM    8  H27 UNL     1      21.884   3.126  51.689  1.00  0.00     0.157 HD
ENDROOT
BRANCH   3   9
HETATM    9  N2  UNL     1      24.897   3.332  52.661  1.00  0.00     0.118 N 
HETATM   10  H14 UNL     1      25.736   3.947  52.731  1.00  0.00     0.319 HD
BRANCH   9  11
HETATM   11  C10 UNL     1      25.396   1.963  52.555  1.00  0.00     0.233 A 
HETATM   12  C11 UNL     1      24.700   0.860  53.248  1.00  0.00     0.048 A 
HETATM   13  C12 UNL     1      25.997   1.326  53.778  1.00  0.00     0.054 A 
BRANCH  13  14
HETATM   14  C13 UNL     1      27.221   0.500  53.616  1.00  0.00    -0.052 A 
HETATM   15  C14 UNL     1      27.166  -0.813  53.198  1.00  0.00     0.007 A 
HETATM   16  C15 UNL     1      28.277  -1.610  53.035  1.00  0.00     0.001 A 
HETATM   17  C16 UNL     1      29.542  -1.075  53.302  1.00  0.00     0.000 A 
HETATM   18  C17 UNL     1      29.642   0.238  53.723  1.00  0.00     0.001 A 
HETATM   19  C18 UNL     1      28.500   1.004  53.874  1.00  0.00     0.007 A 
ENDBRANCH  13  14
ENDBRANCH   9  11
ENDBRANCH   3   9
BRANCH   1  20
HETATM   20  O2  UNL     1      25.197   5.912  49.305  1.00  0.00    -0.338 OA
BRANCH  20  21
HETATM   21  C6  UNL     1      25.503   7.067  50.088  1.00  0.00     0.295 C 
BRANCH  21  22
HETATM   22  N1  UNL     1      26.309   7.997  49.394  1.00  0.00    -0.384 N 
HETATM   23  C2  UNL     1      27.060   7.460  48.292  1.00  0.00     0.101 C 
HETATM   24  C1  UNL     1      26.575   8.149  47.023  1.00  0.00     0.034 C 
HETATM   25  C3  UNL     1      28.537   7.493  48.437  1.00  0.00     0.192 C 
HETATM   26  O1  UNL     1      29.074   8.581  49.064  1.00  0.00    -0.388 OA
HETATM   27  C4  UNL     1      28.149   9.549  49.415  1.00  0.00     0.187 C 
HETATM   28  C5  UNL     1      27.051   8.901  50.218  1.00  0.00     0.145 C 
ENDBRANCH  21  22
ENDBRANCH  20  21
ENDBRANCH   1  20
TORSDOF 6
ENDMDL
