MODEL 1
REMARK VINA RESULT:      -8.1      0.000      0.000
REMARK  5 active torsions:
REMARK  status: ('A' for Active; 'I' for Inactive)
REMARK    1  A    between atoms: N1_2  and  C1_3 
REMARK    2  A    between atoms: C4_6  and  O1_7 
REMARK    3  A    between atoms: O1_7  and  C5_8 
REMARK    4  A    between atoms: C10_14  and  N2_15 
REMARK    5  A    between atoms: N2_15  and  C11_16 
ROOT
HETATM    1  C5  UNL     1      24.304   2.678  51.554  1.00  0.00     0.120 A 
HETATM    2  C6  UNL     1      24.050   2.955  50.209  1.00  0.00     0.047 A 
HETATM    3 BR2  UNL     1      22.264   3.006  49.557  1.00  0.00    -0.048 Br
HETATM    4  C7  UNL     1      25.091   3.205  49.335  1.00  0.00     0.022 A 
HETATM    5  C8  UNL     1      26.385   3.179  49.812  1.00  0.00     0.004 A 
HETATM    6  C9  UNL     1      26.703   2.912  51.143  1.00  0.00     0.032 A 
HETATM    7  C10 UNL     1      25.632   2.667  51.973  1.00  0.00     0.069 A 
ENDROOT
BRANCH   1   8
HETATM    8  O1  UNL     1      23.320   2.416  52.449  1.00  0.00    -0.307 OA
BRANCH   8   9
HETATM    9  C4  UNL     1      22.692   1.298  52.855  1.00  0.00     0.076 A 
HETATM   10  C3  UNL     1      21.331   1.642  52.967  1.00  0.00     0.039 A 
HETATM   11  C2  UNL     1      20.362   0.720  53.369  1.00  0.00     0.033 A 
HETATM   12  C1  UNL     1      20.751  -0.552  53.663  1.00  0.00     0.038 A 
HETATM   13  C15 UNL     1      22.078  -0.910  53.560  1.00  0.00     0.033 A 
HETATM   14  C14 UNL     1      23.030   0.002  53.163  1.00  0.00     0.039 A 
BRANCH  12  15
HETATM   15  N1  UNL     1      19.893  -1.623  54.106  1.00  0.00    -0.323 N 
HETATM   16 BR1  UNL     1      18.228  -1.282  53.248  1.00  0.00     0.047 Br
HETATM   17  H1  UNL     1      20.042  -2.441  54.729  1.00  0.00     0.174 HD
ENDBRANCH  12  15
ENDBRANCH   8   9
ENDBRANCH   1   8
BRANCH   7  18
HETATM   18  N2  UNL     1      25.863   2.389  53.330  1.00  0.00    -0.337 N 
HETATM   19  H7  UNL     1      25.278   2.802  54.097  1.00  0.00     0.167 HD
BRANCH  18  20
HETATM   20  C11 UNL     1      26.827   1.570  53.959  1.00  0.00     0.162 C 
HETATM   21  C12 UNL     1      26.463   0.365  54.329  1.00  0.00     0.157 C 
HETATM   22  N3  UNL     1      27.216  -0.656  54.269  1.00  0.00    -0.168 NA
HETATM   23  N4  UNL     1      28.583  -0.472  54.567  1.00  0.00    -0.271 N 
HETATM   24  C13 UNL     1      29.023   0.879  54.535  1.00  0.00     0.228 C 
HETATM   25  H8  UNL     1      29.183  -1.287  54.790  1.00  0.00     0.190 HD
HETATM   26  N5  UNL     1      28.204   1.870  54.249  1.00  0.00    -0.222 NA
ENDBRANCH  18  20
ENDBRANCH   7  18
TORSDOF 5
ENDMDL
MODEL 2
REMARK VINA RESULT:      -8.1      2.056      5.325
REMARK  5 active torsions:
REMARK  status: ('A' for Active; 'I' for Inactive)
REMARK    1  A    between atoms: N1_2  and  C1_3 
REMARK    2  A    between atoms: C4_6  and  O1_7 
REMARK    3  A    between atoms: O1_7  and  C5_8 
REMARK    4  A    between atoms: C10_14  and  N2_15 
REMARK    5  A    between atoms: N2_15  and  C11_16 
ROOT
HETATM    1  C5  UNL     1      23.197   0.363  53.084  1.00  0.00     0.120 A 
HETATM    2  C6  UNL     1      21.962   0.186  53.710  1.00  0.00     0.047 A 
HETATM    3 BR2  UNL     1      20.404   1.033  53.025  1.00  0.00    -0.048 Br
HETATM    4  C7  UNL     1      21.853  -0.613  54.833  1.00  0.00     0.022 A 
HETATM    5  C8  UNL     1      22.983  -1.236  55.322  1.00  0.00     0.004 A 
HETATM    6  C9  UNL     1      24.242  -1.102  54.739  1.00  0.00     0.032 A 
HETATM    7  C10 UNL     1      24.300  -0.293  53.626  1.00  0.00     0.069 A 
ENDROOT
BRANCH   1   8
HETATM    8  O1  UNL     1      23.360   1.145  51.988  1.00  0.00    -0.307 OA
BRANCH   8   9
HETATM    9  C4  UNL     1      23.634   2.447  51.795  1.00  0.00     0.076 A 
HETATM   10  C3  UNL     1      24.530   2.493  50.709  1.00  0.00     0.039 A 
HETATM   11  C2  UNL     1      25.040   3.696  50.216  1.00  0.00     0.033 A 
HETATM   12  C1  UNL     1      24.656   4.862  50.809  1.00  0.00     0.038 A 
HETATM   13  C15 UNL     1      23.780   4.839  51.872  1.00  0.00     0.033 A 
HETATM   14  C14 UNL     1      23.279   3.650  52.355  1.00  0.00     0.039 A 
BRANCH  12  15
HETATM   15  N1  UNL     1      25.092   6.186  50.443  1.00  0.00    -0.323 N 
HETATM   16 BR1  UNL     1      26.279   5.908  48.980  1.00  0.00     0.047 Br
HETATM   17  H1  UNL     1      24.871   7.133  50.808  1.00  0.00     0.174 HD
ENDBRANCH  12  15
ENDBRANCH   8   9
ENDBRANCH   1   8
BRANCH   7  18
HETATM   18  N2  UNL     1      25.529  -0.102  52.977  1.00  0.00    -0.337 N 
HETATM   19  H7  UNL     1      25.653  -0.259  51.947  1.00  0.00     0.167 HD
BRANCH  18  20
HETATM   20  C11 UNL     1      26.787   0.309  53.472  1.00  0.00     0.162 C 
HETATM   21  C12 UNL     1      27.160   1.547  53.249  1.00  0.00     0.157 C 
HETATM   22  N3  UNL     1      27.815   2.253  54.076  1.00  0.00    -0.168 NA
HETATM   23  N4  UNL     1      28.803   1.602  54.846  1.00  0.00    -0.271 N 
HETATM   24  C13 UNL     1      28.697   0.185  54.876  1.00  0.00     0.228 C 
HETATM   25  H8  UNL     1      29.533   2.153  55.333  1.00  0.00     0.190 HD
HETATM   26  N5  UNL     1      27.745  -0.454  54.227  1.00  0.00    -0.222 NA
ENDBRANCH  18  20
ENDBRANCH   7  18
TORSDOF 5
ENDMDL
MODEL 3
REMARK VINA RESULT:      -8.1      2.520      5.923
REMARK  5 active torsions:
REMARK  status: ('A' for Active; 'I' for Inactive)
REMARK    1  A    between atoms: N1_2  and  C1_3 
REMARK    2  A    between atoms: C4_6  and  O1_7 
REMARK    3  A    between atoms: O1_7  and  C5_8 
REMARK    4  A    between atoms: C10_14  and  N2_15 
REMARK    5  A    between atoms: N2_15  and  C11_16 
ROOT
HETATM    1  C5  UNL     1      23.977   1.632  51.451  1.00  0.00     0.120 A 
HETATM    2  C6  UNL     1      22.609   1.718  51.717  1.00  0.00     0.047 A 
HETATM    3 BR2  UNL     1      21.470   2.736  50.585  1.00  0.00    -0.048 Br
HETATM    4  C7  UNL     1      22.063   1.059  52.802  1.00  0.00     0.022 A 
HETATM    5  C8  UNL     1      22.889   0.312  53.616  1.00  0.00     0.004 A 
HETATM    6  C9  UNL     1      24.260   0.184  53.400  1.00  0.00     0.032 A 
HETATM    7  C10 UNL     1      24.757   0.862  52.309  1.00  0.00     0.069 A 
ENDROOT
BRANCH   1   8
HETATM    8  O1  UNL     1      24.564   2.268  50.406  1.00  0.00    -0.307 OA
BRANCH   8   9
HETATM    9  C4  UNL     1      25.032   3.513  50.207  1.00  0.00     0.076 A 
HETATM   10  C3  UNL     1      26.242   3.359  49.504  1.00  0.00     0.039 A 
HETATM   11  C2  UNL     1      27.021   4.452  49.116  1.00  0.00     0.033 A 
HETATM   12  C1  UNL     1      26.592   5.706  49.432  1.00  0.00     0.038 A 
HETATM   13  C15 UNL     1      25.411   5.879  50.119  1.00  0.00     0.033 A 
HETATM   14  C14 UNL     1      24.645   4.799  50.499  1.00  0.00     0.039 A 
BRANCH  12  15
HETATM   15  N1  UNL     1      27.273   6.940  49.126  1.00  0.00    -0.323 N 
HETATM   16 BR1  UNL     1      28.709   6.420  47.989  1.00  0.00     0.047 Br
HETATM   17  H1  UNL     1      27.104   7.929  49.394  1.00  0.00     0.174 HD
ENDBRANCH  12  15
ENDBRANCH   8   9
ENDBRANCH   1   8
BRANCH   7  18
HETATM   18  N2  UNL     1      26.129   0.788  52.019  1.00  0.00    -0.337 N 
HETATM   19  H7  UNL     1      26.491   0.613  51.050  1.00  0.00     0.167 HD
BRANCH  18  20
HETATM   20  C11 UNL     1      27.262   0.919  52.852  1.00  0.00     0.162 C 
HETATM   21  C12 UNL     1      27.784   2.113  52.998  1.00  0.00     0.157 C 
HETATM   22  N3  UNL     1      28.280   2.546  54.083  1.00  0.00    -0.168 NA
HETATM   23  N4  UNL     1      28.997   1.627  54.881  1.00  0.00    -0.271 N 
HETATM   24  C13 UNL     1      28.764   0.260  54.568  1.00  0.00     0.228 C 
HETATM   25  H8  UNL     1      29.634   1.966  55.625  1.00  0.00     0.190 HD
HETATM   26  N5  UNL     1      27.943  -0.102  53.604  1.00  0.00    -0.222 NA
ENDBRANCH  18  20
ENDBRANCH   7  18
TORSDOF 5
ENDMDL
MODEL 4
REMARK VINA RESULT:      -7.8      3.233      6.176
REMARK  5 active torsions:
REMARK  status: ('A' for Active; 'I' for Inactive)
REMARK    1  A    between atoms: N1_2  and  C1_3 
REMARK    2  A    between atoms: C4_6  and  O1_7 
REMARK    3  A    between atoms: O1_7  and  C5_8 
REMARK    4  A    between atoms: C10_14  and  N2_15 
REMARK    5  A    between atoms: N2_15  and  C11_16 
ROOT
HETATM    1  C5  UNL     1      23.218   1.255  51.998  1.00  0.00     0.120 A 
HETATM    2  C6  UNL     1      22.232   0.300  52.253  1.00  0.00     0.047 A 
HETATM    3 BR2  UNL     1      22.223  -0.663  53.893  1.00  0.00    -0.048 Br
HETATM    4  C7  UNL     1      21.244   0.046  51.320  1.00  0.00     0.022 A 
HETATM    5  C8  UNL     1      21.245   0.753  50.136  1.00  0.00     0.004 A 
HETATM    6  C9  UNL     1      22.199   1.721  49.825  1.00  0.00     0.032 A 
HETATM    7  C10 UNL     1      23.164   1.934  50.784  1.00  0.00     0.069 A 
ENDROOT
BRANCH   1   8
HETATM    8  O1  UNL     1      24.214   1.533  52.875  1.00  0.00    -0.307 OA
BRANCH   8   9
HETATM    9  C4  UNL     1      25.476   1.094  53.034  1.00  0.00     0.076 A 
HETATM   10  C3  UNL     1      26.268   2.249  53.182  1.00  0.00     0.039 A 
HETATM   11  C2  UNL     1      27.650   2.185  53.372  1.00  0.00     0.033 A 
HETATM   12  C1  UNL     1      28.248   0.961  53.413  1.00  0.00     0.038 A 
HETATM   13  C15 UNL     1      27.492  -0.182  53.270  1.00  0.00     0.033 A 
HETATM   14  C14 UNL     1      26.129  -0.114  53.084  1.00  0.00     0.039 A 
BRANCH  12  15
HETATM   15  N1  UNL     1      29.657   0.708  53.585  1.00  0.00    -0.323 N 
HETATM   16 BR1  UNL     1      29.808  -1.189  53.535  1.00  0.00     0.047 Br
HETATM   17  H1  UNL     1      30.481   1.330  53.704  1.00  0.00     0.174 HD
ENDBRANCH  12  15
ENDBRANCH   8   9
ENDBRANCH   1   8
BRANCH   7  18
HETATM   18  N2  UNL     1      24.164   2.892  50.553  1.00  0.00    -0.337 N 
HETATM   19  H7  UNL     1      25.113   2.638  50.183  1.00  0.00     0.167 HD
BRANCH  18  20
HETATM   20  C11 UNL     1      24.165   4.294  50.727  1.00  0.00     0.162 C 
HETATM   21  C12 UNL     1      23.392   4.798  51.658  1.00  0.00     0.157 C 
HETATM   22  N3  UNL     1      23.704   5.795  52.381  1.00  0.00    -0.168 NA
HETATM   23  N4  UNL     1      24.432   6.838  51.768  1.00  0.00    -0.271 N 
HETATM   24  C13 UNL     1      25.047   6.490  50.534  1.00  0.00     0.228 C 
HETATM   25  H8  UNL     1      24.487   7.770  52.216  1.00  0.00     0.190 HD
HETATM   26  N5  UNL     1      24.932   5.284  50.017  1.00  0.00    -0.222 NA
ENDBRANCH  18  20
ENDBRANCH   7  18
TORSDOF 5
ENDMDL
MODEL 5
REMARK VINA RESULT:      -7.6      3.279      5.690
REMARK  5 active torsions:
REMARK  status: ('A' for Active; 'I' for Inactive)
REMARK    1  A    between atoms: N1_2  and  C1_3 
REMARK    2  A    between atoms: C4_6  and  O1_7 
REMARK    3  A    between atoms: O1_7  and  C5_8 
REMARK    4  A    between atoms: C10_14  and  N2_15 
REMARK    5  A    between atoms: N2_15  and  C11_16 
ROOT
HETATM    1  C5  UNL     1      23.173   2.075  51.060  1.00  0.00     0.120 A 
HETATM    2  C6  UNL     1      22.079   1.297  50.677  1.00  0.00     0.047 A 
HETATM    3 BR2  UNL     1      21.156   0.236  51.958  1.00  0.00    -0.048 Br
HETATM    4  C7  UNL     1      21.645   1.293  49.364  1.00  0.00     0.022 A 
HETATM    5  C8  UNL     1      22.309   2.072  48.439  1.00  0.00     0.004 A 
HETATM    6  C9  UNL     1      23.404   2.873  48.760  1.00  0.00     0.032 A 
HETATM    7  C10 UNL     1      23.799   2.840  50.079  1.00  0.00     0.069 A 
ENDROOT
BRANCH   1   8
HETATM    8  O1  UNL     1      23.643   2.107  52.331  1.00  0.00    -0.307 OA
BRANCH   8   9
HETATM    9  C4  UNL     1      24.761   1.659  52.930  1.00  0.00     0.076 A 
HETATM   10  C3  UNL     1      24.783   0.268  52.711  1.00  0.00     0.039 A 
HETATM   11  C2  UNL     1      25.811  -0.545  53.193  1.00  0.00     0.033 A 
HETATM   12  C1  UNL     1      26.824   0.031  53.900  1.00  0.00     0.038 A 
HETATM   13  C15 UNL     1      26.822   1.390  54.126  1.00  0.00     0.033 A 
HETATM   14  C14 UNL     1      25.806   2.188  53.648  1.00  0.00     0.039 A 
BRANCH  12  15
HETATM   15  N1  UNL     1      27.952  -0.654  54.482  1.00  0.00    -0.323 N 
HETATM   16 BR1  UNL     1      29.468   0.123  53.632  1.00  0.00     0.047 Br
HETATM   17  H1  UNL     1      28.036  -1.397  55.203  1.00  0.00     0.174 HD
ENDBRANCH  12  15
ENDBRANCH   8   9
ENDBRANCH   1   8
BRANCH   7  18
HETATM   18  N2  UNL     1      24.894   3.616  50.488  1.00  0.00    -0.337 N 
HETATM   19  H7  UNL     1      25.298   3.556  51.455  1.00  0.00     0.167 HD
BRANCH  18  20
HETATM   20  C11 UNL     1      25.665   4.574  49.793  1.00  0.00     0.162 C 
HETATM   21  C12 UNL     1      25.297   5.831  49.867  1.00  0.00     0.157 C 
HETATM   22  N3  UNL     1      26.105   6.809  49.919  1.00  0.00    -0.168 NA
HETATM   23  N4  UNL     1      27.286   6.716  49.150  1.00  0.00    -0.271 N 
HETATM   24  C13 UNL     1      27.607   5.404  48.708  1.00  0.00     0.228 C 
HETATM   25  H8  UNL     1      27.844   7.565  48.946  1.00  0.00     0.190 HD
HETATM   26  N5  UNL     1      26.849   4.367  49.001  1.00  0.00    -0.222 NA
ENDBRANCH  18  20
ENDBRANCH   7  18
TORSDOF 5
ENDMDL
MODEL 6
REMARK VINA RESULT:      -7.1      2.689      6.071
REMARK  5 active torsions:
REMARK  status: ('A' for Active; 'I' for Inactive)
REMARK    1  A    between atoms: N1_2  and  C1_3 
REMARK    2  A    between atoms: C4_6  and  O1_7 
REMARK    3  A    between atoms: O1_7  and  C5_8 
REMARK    4  A    between atoms: C10_14  and  N2_15 
REMARK    5  A    between atoms: N2_15  and  C11_16 
ROOT
HETATM    1  C5  UNL     1      23.661   2.705  51.427  1.00  0.00     0.120 A 
HETATM    2  C6  UNL     1      23.805   3.851  50.644  1.00  0.00     0.047 A 
HETATM    3 BR2  UNL     1      25.372   4.114  49.599  1.00  0.00    -0.048 Br
HETATM    4  C7  UNL     1      22.808   4.809  50.612  1.00  0.00     0.022 A 
HETATM    5  C8  UNL     1      21.668   4.612  51.362  1.00  0.00     0.004 A 
HETATM    6  C9  UNL     1      21.463   3.487  52.160  1.00  0.00     0.032 A 
HETATM    7  C10 UNL     1      22.486   2.565  52.161  1.00  0.00     0.069 A 
ENDROOT
BRANCH   1   8
HETATM    8  O1  UNL     1      24.612   1.742  51.502  1.00  0.00    -0.307 OA
BRANCH   8   9
HETATM    9  C4  UNL     1      25.572   1.437  52.394  1.00  0.00     0.076 A 
HETATM   10  C3  UNL     1      25.888   0.083  52.169  1.00  0.00     0.039 A 
HETATM   11  C2  UNL     1      26.857  -0.589  52.917  1.00  0.00     0.033 A 
HETATM   12  C1  UNL     1      27.517   0.092  53.896  1.00  0.00     0.038 A 
HETATM   13  C15 UNL     1      27.223   1.417  54.133  1.00  0.00     0.033 A 
HETATM   14  C14 UNL     1      26.267   2.076  53.392  1.00  0.00     0.039 A 
BRANCH  12  15
HETATM   15  N1  UNL     1      28.530  -0.444  54.770  1.00  0.00    -0.323 N 
HETATM   16 BR1  UNL     1      29.930  -0.983  53.598  1.00  0.00     0.047 Br
HETATM   17  H1  UNL     1      28.595  -0.551  55.801  1.00  0.00     0.174 HD
ENDBRANCH  12  15
ENDBRANCH   8   9
ENDBRANCH   1   8
BRANCH   7  18
HETATM   18  N2  UNL     1      22.362   1.402  52.938  1.00  0.00    -0.337 N 
HETATM   19  H7  UNL     1      23.088   1.112  53.638  1.00  0.00     0.167 HD
BRANCH  18  20
HETATM   20  C11 UNL     1      21.345   0.423  52.989  1.00  0.00     0.162 C 
HETATM   21  C12 UNL     1      21.586  -0.680  53.656  1.00  0.00     0.157 C 
HETATM   22  N3  UNL     1      20.719  -1.300  54.346  1.00  0.00    -0.168 NA
HETATM   23  N4  UNL     1      19.399  -1.339  53.846  1.00  0.00    -0.271 N 
HETATM   24  C13 UNL     1      19.117  -0.381  52.835  1.00  0.00     0.228 C 
HETATM   25  H8  UNL     1      18.722  -2.032  54.214  1.00  0.00     0.190 HD
HETATM   26  N5  UNL     1      20.028   0.469  52.409  1.00  0.00    -0.222 NA
ENDBRANCH  18  20
ENDBRANCH   7  18
TORSDOF 5
ENDMDL
MODEL 7
REMARK VINA RESULT:      -7.1      2.250      4.940
REMARK  5 active torsions:
REMARK  status: ('A' for Active; 'I' for Inactive)
REMARK    1  A    between atoms: N1_2  and  C1_3 
REMARK    2  A    between atoms: C4_6  and  O1_7 
REMARK    3  A    between atoms: O1_7  and  C5_8 
REMARK    4  A    between atoms: C10_14  and  N2_15 
REMARK    5  A    between atoms: N2_15  and  C11_16 
ROOT
HETATM    1  C5  UNL     1      23.005   1.237  52.745  1.00  0.00     0.120 A 
HETATM    2  C6  UNL     1      21.658   1.154  53.100  1.00  0.00     0.047 A 
HETATM    3 BR2  UNL     1      20.419   2.464  52.496  1.00  0.00    -0.048 Br
HETATM    4  C7  UNL     1      21.204   0.114  53.891  1.00  0.00     0.022 A 
HETATM    5  C8  UNL     1      22.102  -0.841  54.319  1.00  0.00     0.004 A 
HETATM    6  C9  UNL     1      23.457  -0.816  53.995  1.00  0.00     0.032 A 
HETATM    7  C10 UNL     1      23.861   0.241  53.209  1.00  0.00     0.069 A 
ENDROOT
BRANCH   1   8
HETATM    8  O1  UNL     1      23.503   2.241  51.982  1.00  0.00    -0.307 OA
BRANCH   8   9
HETATM    9  C4  UNL     1      23.240   2.700  50.745  1.00  0.00     0.076 A 
HETATM   10  C3  UNL     1      23.520   4.080  50.781  1.00  0.00     0.039 A 
HETATM   11  C2  UNL     1      23.363   4.900  49.662  1.00  0.00     0.033 A 
HETATM   12  C1  UNL     1      22.923   4.343  48.498  1.00  0.00     0.038 A 
HETATM   13  C15 UNL     1      22.643   2.995  48.441  1.00  0.00     0.033 A 
HETATM   14  C14 UNL     1      22.800   2.189  49.548  1.00  0.00     0.039 A 
BRANCH  12  15
HETATM   15  N1  UNL     1      22.690   5.038  47.257  1.00  0.00    -0.323 N 
HETATM   16 BR1  UNL     1      21.741   3.786  46.183  1.00  0.00     0.047 Br
HETATM   17  H1  UNL     1      22.926   5.993  46.923  1.00  0.00     0.174 HD
ENDBRANCH  12  15
ENDBRANCH   8   9
ENDBRANCH   1   8
BRANCH   7  18
HETATM   18  N2  UNL     1      25.210   0.344  52.836  1.00  0.00    -0.337 N 
HETATM   19  H7  UNL     1      25.582  -0.071  51.947  1.00  0.00     0.167 HD
BRANCH  18  20
HETATM   20  C11 UNL     1      26.306   0.966  53.475  1.00  0.00     0.162 C 
HETATM   21  C12 UNL     1      26.704   0.478  54.626  1.00  0.00     0.157 C 
HETATM   22  N3  UNL     1      27.919   0.414  54.990  1.00  0.00    -0.168 NA
HETATM   23  N4  UNL     1      28.765   1.483  54.622  1.00  0.00    -0.271 N 
HETATM   24  C13 UNL     1      28.258   2.312  53.584  1.00  0.00     0.228 C 
HETATM   25  H8  UNL     1      29.674   1.618  55.099  1.00  0.00     0.190 HD
HETATM   26  N5  UNL     1      27.088   2.087  53.023  1.00  0.00    -0.222 NA
ENDBRANCH  18  20
ENDBRANCH   7  18
TORSDOF 5
ENDMDL
MODEL 8
REMARK VINA RESULT:      -6.9      1.883      2.514
REMARK  5 active torsions:
REMARK  status: ('A' for Active; 'I' for Inactive)
REMARK    1  A    between atoms: N1_2  and  C1_3 
REMARK    2  A    between atoms: C4_6  and  O1_7 
REMARK    3  A    between atoms: O1_7  and  C5_8 
REMARK    4  A    between atoms: C10_14  and  N2_15 
REMARK    5  A    between atoms: N2_15  and  C11_16 
ROOT
HETATM    1  C5  UNL     1      23.147   2.232  50.477  1.00  0.00     0.120 A 
HETATM    2  C6  UNL     1      23.098   2.808  49.206  1.00  0.00     0.047 A 
HETATM    3 BR2  UNL     1      22.086   1.994  47.818  1.00  0.00    -0.048 Br
HETATM    4  C7  UNL     1      23.779   3.982  48.941  1.00  0.00     0.022 A 
HETATM    5  C8  UNL     1      24.504   4.577  49.952  1.00  0.00     0.004 A 
HETATM    6  C9  UNL     1      24.588   4.054  51.242  1.00  0.00     0.032 A 
HETATM    7  C10 UNL     1      23.896   2.882  51.455  1.00  0.00     0.069 A 
ENDROOT
BRANCH   1   8
HETATM    8  O1  UNL     1      22.507   1.078  50.786  1.00  0.00    -0.307 OA
BRANCH   8   9
HETATM    9  C4  UNL     1      21.229   0.754  51.053  1.00  0.00     0.076 A 
HETATM   10  C3  UNL     1      21.253   0.099  52.299  1.00  0.00     0.039 A 
HETATM   11  C2  UNL     1      20.092  -0.386  52.907  1.00  0.00     0.033 A 
HETATM   12  C1  UNL     1      18.900  -0.218  52.268  1.00  0.00     0.038 A 
HETATM   13  C15 UNL     1      18.854   0.420  51.048  1.00  0.00     0.033 A 
HETATM   14  C14 UNL     1      20.002   0.897  50.453  1.00  0.00     0.039 A 
BRANCH  12  15
HETATM   15  N1  UNL     1      17.613  -0.666  52.739  1.00  0.00    -0.323 N 
HETATM   16 BR1  UNL     1      17.973  -2.326  53.597  1.00  0.00     0.047 Br
HETATM   17  H1  UNL     1      16.658  -0.260  52.689  1.00  0.00     0.174 HD
ENDBRANCH  12  15
ENDBRANCH   8   9
ENDBRANCH   1   8
BRANCH   7  18
HETATM   18  N2  UNL     1      23.927   2.286  52.725  1.00  0.00    -0.337 N 
HETATM   19  H7  UNL     1      23.219   2.504  53.468  1.00  0.00     0.167 HD
BRANCH  18  20
HETATM   20  C11 UNL     1      24.812   1.337  53.285  1.00  0.00     0.162 C 
HETATM   21  C12 UNL     1      25.976   1.762  53.717  1.00  0.00     0.157 C 
HETATM   22  N3  UNL     1      26.560   1.310  54.750  1.00  0.00    -0.168 NA
HETATM   23  N4  UNL     1      26.447  -0.074  55.006  1.00  0.00    -0.271 N 
HETATM   24  C13 UNL     1      25.401  -0.727  54.298  1.00  0.00     0.228 C 
HETATM   25  H8  UNL     1      27.099  -0.539  55.663  1.00  0.00     0.190 HD
HETATM   26  N5  UNL     1      24.609  -0.075  53.471  1.00  0.00    -0.222 NA
ENDBRANCH  18  20
ENDBRANCH   7  18
TORSDOF 5
ENDMDL
MODEL 9
REMARK VINA RESULT:      -6.9      3.544      6.943
REMARK  5 active torsions:
REMARK  status: ('A' for Active; 'I' for Inactive)
REMARK    1  A    between atoms: N1_2  and  C1_3 
REMARK    2  A    between atoms: C4_6  and  O1_7 
REMARK    3  A    between atoms: O1_7  and  C5_8 
REMARK    4  A    between atoms: C10_14  and  N2_15 
REMARK    5  A    between atoms: N2_15  and  C11_16 
ROOT
HETATM    1  C5  UNL     1      22.781   0.480  53.525  1.00  0.00     0.120 A 
HETATM    2  C6  UNL     1      22.728  -0.639  54.359  1.00  0.00     0.047 A 
HETATM    3 BR2  UNL     1      24.248  -1.150  55.381  1.00  0.00    -0.048 Br
HETATM    4  C7  UNL     1      21.569  -1.385  54.460  1.00  0.00     0.022 A 
HETATM    5  C8  UNL     1      20.464  -1.006  53.726  1.00  0.00     0.004 A 
HETATM    6  C9  UNL     1      20.453   0.101  52.879  1.00  0.00     0.032 A 
HETATM    7  C10 UNL     1      21.632   0.810  52.810  1.00  0.00     0.069 A 
ENDROOT
BRANCH   1   8
HETATM    8  O1  UNL     1      23.895   1.238  53.383  1.00  0.00    -0.307 OA
BRANCH   8   9
HETATM    9  C4  UNL     1      25.202   0.966  53.217  1.00  0.00     0.076 A 
HETATM   10  C3  UNL     1      25.895   2.001  53.874  1.00  0.00     0.039 A 
HETATM   11  C2  UNL     1      27.291   2.053  53.915  1.00  0.00     0.033 A 
HETATM   12  C1  UNL     1      28.001   1.068  53.296  1.00  0.00     0.038 A 
HETATM   13  C15 UNL     1      27.342   0.046  52.647  1.00  0.00     0.033 A 
HETATM   14  C14 UNL     1      25.966  -0.001  52.609  1.00  0.00     0.039 A 
BRANCH  12  15
HETATM   15  N1  UNL     1      29.437   0.971  53.225  1.00  0.00    -0.323 N 
HETATM   16 BR1  UNL     1      29.808  -0.860  53.592  1.00  0.00     0.047 Br
HETATM   17  H1  UNL     1      30.186   1.661  53.021  1.00  0.00     0.174 HD
ENDBRANCH  12  15
ENDBRANCH   8   9
ENDBRANCH   1   8
BRANCH   7  18
HETATM   18  N2  UNL     1      21.708   1.940  51.981  1.00  0.00    -0.337 N 
HETATM   19  H7  UNL     1      21.727   2.918  52.362  1.00  0.00     0.167 HD
BRANCH  18  20
HETATM   20  C11 UNL     1      21.778   2.057  50.575  1.00  0.00     0.162 C 
HETATM   21  C12 UNL     1      22.413   3.090  50.075  1.00  0.00     0.157 C 
HETATM   22  N3  UNL     1      23.124   3.048  49.024  1.00  0.00    -0.168 NA
HETATM   23  N4  UNL     1      22.673   2.226  47.968  1.00  0.00    -0.271 N 
HETATM   24  C13 UNL     1      21.692   1.266  48.339  1.00  0.00     0.228 C 
HETATM   25  H8  UNL     1      23.052   2.348  47.012  1.00  0.00     0.190 HD
HETATM   26  N5  UNL     1      21.249   1.167  49.575  1.00  0.00    -0.222 NA
ENDBRANCH  18  20
ENDBRANCH   7  18
TORSDOF 5
ENDMDL
