MODEL 1
REMARK VINA RESULT:      -7.8      0.000      0.000
REMARK  8 active torsions:
REMARK  status: ('A' for Active; 'I' for Inactive)
REMARK    1  A    between atoms: C3_3  and  O1_4 
REMARK    2  A    between atoms: C8_11  and  N3_12 
REMARK    3  A    between atoms: N3_12  and  C9_13 
REMARK    4  A    between atoms: C11_15  and  C12_16 
REMARK    5  A    between atoms: C19_23  and  O2_24 
REMARK    6  A    between atoms: O2_24  and  C20_25 
REMARK    7  A    between atoms: C20_25  and  C21_26 
REMARK    8  A    between atoms: C21_26  and  C22_27 
ROOT
HETATM    1  C1  UNL     1      26.051  -0.848  52.595  1.00  0.00     0.044 C 
HETATM    2  C2  UNL     1      25.182   0.131  52.722  1.00  0.00    -0.013 C 
HETATM    3  C3  UNL     1      24.026  -0.130  53.563  1.00  0.00     0.075 C 
HETATM    4  C5  UNL     1      23.003   0.697  53.443  1.00  0.00     0.069 C 
HETATM    5  C6  UNL     1      23.059   1.831  52.500  1.00  0.00     0.073 A 
HETATM    6  N1  UNL     1      21.848   2.448  52.424  1.00  0.00    -0.241 NA
HETATM    7  C7  UNL     1      21.727   3.414  51.474  1.00  0.00     0.235 A 
HETATM    8  N2  UNL     1      22.760   3.713  50.679  1.00  0.00    -0.224 NA
HETATM    9  C8  UNL     1      23.944   3.089  50.779  1.00  0.00     0.136 A 
HETATM   10  C18 UNL     1      24.158   2.103  51.712  1.00  0.00     0.049 A 
HETATM   11  C19 UNL     1      25.443   1.427  52.002  1.00  0.00     0.192 C 
ENDROOT
BRANCH   9  12
HETATM   12  N3  UNL     1      24.948   3.440  49.862  1.00  0.00    -0.369 N 
HETATM   13  H8  UNL     1      24.962   2.886  48.986  1.00  0.00     0.161 HD
BRANCH  12  14
HETATM   14  C9  UNL     1      25.996   4.405  49.794  1.00  0.00     0.092 A 
HETATM   15  C10 UNL     1      25.610   5.820  50.147  1.00  0.00     0.037 A 
HETATM   16  C11 UNL     1      25.982   5.434  48.722  1.00  0.00     0.043 A 
BRANCH  16  17
HETATM   17  C12 UNL     1      27.261   6.029  48.256  1.00  0.00    -0.052 A 
HETATM   18  C13 UNL     1      27.357   7.291  47.680  1.00  0.00     0.007 A 
HETATM   19  C14 UNL     1      28.619   7.694  47.298  1.00  0.00     0.001 A 
HETATM   20  C15 UNL     1      29.787   6.978  47.428  1.00  0.00     0.000 A 
HETATM   21  C16 UNL     1      29.651   5.717  48.010  1.00  0.00     0.001 A 
HETATM   22  C17 UNL     1      28.418   5.291  48.399  1.00  0.00     0.007 A 
ENDBRANCH  16  17
ENDBRANCH  12  14
ENDBRANCH   9  12
BRANCH  11  23
HETATM   23  O2  UNL     1      26.212   2.234  52.873  1.00  0.00    -0.376 OA
BRANCH  23  24
HETATM   24  C20 UNL     1      27.530   2.355  52.581  1.00  0.00     0.175 C 
BRANCH  24  25
HETATM   25  C21 UNL     1      28.367   2.433  53.879  1.00  0.00     0.095 C 
BRANCH  25  26
HETATM   26  C22 UNL     1      28.957   1.110  54.185  1.00  0.00     0.233 C 
HETATM   27  O3  UNL     1      28.306   0.621  55.078  1.00  0.00    -0.307 OA
ENDBRANCH  25  26
ENDBRANCH  24  25
ENDBRANCH  23  24
ENDBRANCH  11  23
BRANCH   3  28
HETATM   28  O1  UNL     1      24.043  -1.222  54.442  1.00  0.00    -0.356 OA
HETATM   29  C4  UNL     1      22.959  -1.417  55.356  1.00  0.00     0.210 C 
ENDBRANCH   3  28
TORSDOF 8
ENDMDL
MODEL 2
REMARK VINA RESULT:      -7.6      2.746      7.046
REMARK  8 active torsions:
REMARK  status: ('A' for Active; 'I' for Inactive)
REMARK    1  A    between atoms: C3_3  and  O1_4 
REMARK    2  A    between atoms: C8_11  and  N3_12 
REMARK    3  A    between atoms: N3_12  and  C9_13 
REMARK    4  A    between atoms: C11_15  and  C12_16 
REMARK    5  A    between atoms: C19_23  and  O2_24 
REMARK    6  A    between atoms: O2_24  and  C20_25 
REMARK    7  A    between atoms: C20_25  and  C21_26 
REMARK    8  A    between atoms: C21_26  and  C22_27 
ROOT
HETATM    1  C1  UNL     1      25.865  -0.283  55.549  1.00  0.00     0.044 C 
HETATM    2  C2  UNL     1      26.042   0.189  54.334  1.00  0.00    -0.013 C 
HETATM    3  C3  UNL     1      27.410   0.236  53.846  1.00  0.00     0.075 C 
HETATM    4  C5  UNL     1      27.639   0.991  52.787  1.00  0.00     0.069 C 
HETATM    5  C6  UNL     1      26.540   1.736  52.141  1.00  0.00     0.073 A 
HETATM    6  N1  UNL     1      27.027   2.567  51.180  1.00  0.00    -0.241 NA
HETATM    7  C7  UNL     1      26.131   3.420  50.615  1.00  0.00     0.235 A 
HETATM    8  N2  UNL     1      24.853   3.415  51.010  1.00  0.00    -0.224 NA
HETATM    9  C8  UNL     1      24.400   2.582  51.960  1.00  0.00     0.136 A 
HETATM   10  C18 UNL     1      25.234   1.684  52.581  1.00  0.00     0.049 A 
HETATM   11  C19 UNL     1      24.836   0.637  53.551  1.00  0.00     0.192 C 
ENDROOT
BRANCH   9  12
HETATM   12  N3  UNL     1      23.052   2.693  52.338  1.00  0.00    -0.369 N 
HETATM   13  H8  UNL     1      22.890   2.949  53.329  1.00  0.00     0.161 HD
BRANCH  12  14
HETATM   14  C9  UNL     1      21.784   2.556  51.700  1.00  0.00     0.092 A 
HETATM   15  C10 UNL     1      20.715   3.521  52.149  1.00  0.00     0.037 A 
HETATM   16  C11 UNL     1      20.624   2.036  52.469  1.00  0.00     0.043 A 
BRANCH  16  17
HETATM   17  C12 UNL     1      19.523   1.338  51.759  1.00  0.00    -0.052 A 
HETATM   18  C13 UNL     1      18.993   1.768  50.548  1.00  0.00     0.007 A 
HETATM   19  C14 UNL     1      17.970   1.008  50.022  1.00  0.00     0.001 A 
HETATM   20  C15 UNL     1      17.423  -0.129  50.571  1.00  0.00     0.000 A 
HETATM   21  C16 UNL     1      17.980  -0.531  51.786  1.00  0.00     0.001 A 
HETATM   22  C17 UNL     1      18.991   0.199  52.331  1.00  0.00     0.007 A 
ENDBRANCH  16  17
ENDBRANCH  12  14
ENDBRANCH   9  12
BRANCH  11  23
HETATM   23  O2  UNL     1      24.356  -0.494  52.851  1.00  0.00    -0.376 OA
BRANCH  23  24
HETATM   24  C20 UNL     1      23.013  -0.671  52.834  1.00  0.00     0.175 C 
BRANCH  24  25
HETATM   25  C21 UNL     1      22.412  -0.380  54.229  1.00  0.00     0.095 C 
BRANCH  25  26
HETATM   26  C22 UNL     1      21.899  -1.631  54.833  1.00  0.00     0.233 C 
HETATM   27  O3  UNL     1      22.676  -1.960  55.697  1.00  0.00    -0.307 OA
ENDBRANCH  25  26
ENDBRANCH  24  25
ENDBRANCH  23  24
ENDBRANCH  11  23
BRANCH   3  28
HETATM   28  O1  UNL     1      28.404  -0.502  54.503  1.00  0.00    -0.356 OA
HETATM   29  C4  UNL     1      29.627  -0.809  53.827  1.00  0.00     0.210 C 
ENDBRANCH   3  28
TORSDOF 8
ENDMDL
MODEL 3
REMARK VINA RESULT:      -7.6      3.889      6.286
REMARK  8 active torsions:
REMARK  status: ('A' for Active; 'I' for Inactive)
REMARK    1  A    between atoms: C3_3  and  O1_4 
REMARK    2  A    between atoms: C8_11  and  N3_12 
REMARK    3  A    between atoms: N3_12  and  C9_13 
REMARK    4  A    between atoms: C11_15  and  C12_16 
REMARK    5  A    between atoms: C19_23  and  O2_24 
REMARK    6  A    between atoms: O2_24  and  C20_25 
REMARK    7  A    between atoms: C20_25  and  C21_26 
REMARK    8  A    between atoms: C21_26  and  C22_27 
ROOT
HETATM    1  C1  UNL     1      19.045   0.247  51.238  1.00  0.00     0.044 C 
HETATM    2  C2  UNL     1      19.691   1.323  51.632  1.00  0.00    -0.013 C 
HETATM    3  C3  UNL     1      18.940   2.567  51.644  1.00  0.00     0.075 C 
HETATM    4  C5  UNL     1      19.640   3.684  51.718  1.00  0.00     0.069 C 
HETATM    5  C6  UNL     1      21.113   3.647  51.794  1.00  0.00     0.073 A 
HETATM    6  N1  UNL     1      21.627   4.903  51.699  1.00  0.00    -0.241 NA
HETATM    7  C7  UNL     1      22.981   4.990  51.603  1.00  0.00     0.235 A 
HETATM    8  N2  UNL     1      23.731   3.882  51.603  1.00  0.00    -0.224 NA
HETATM    9  C8  UNL     1      23.195   2.655  51.700  1.00  0.00     0.136 A 
HETATM   10  C18 UNL     1      21.837   2.473  51.805  1.00  0.00     0.049 A 
HETATM   11  C19 UNL     1      21.135   1.190  52.037  1.00  0.00     0.192 C 
ENDROOT
BRANCH   9  12
HETATM   12  N3  UNL     1      24.065   1.555  51.637  1.00  0.00    -0.369 N 
HETATM   13  H8  UNL     1      24.041   1.020  50.750  1.00  0.00     0.161 HD
BRANCH  12  14
HETATM   14  C9  UNL     1      25.030   0.949  52.496  1.00  0.00     0.092 A 
HETATM   15  C10 UNL     1      25.505   1.795  53.652  1.00  0.00     0.037 A 
HETATM   16  C11 UNL     1      26.431   1.445  52.496  1.00  0.00     0.043 A 
BRANCH  16  17
HETATM   17  C12 UNL     1      27.537   0.528  52.873  1.00  0.00    -0.052 A 
HETATM   18  C13 UNL     1      28.752   0.960  53.392  1.00  0.00     0.007 A 
HETATM   19  C14 UNL     1      29.675  -0.021  53.687  1.00  0.00     0.001 A 
HETATM   20  C15 UNL     1      29.517  -1.377  53.520  1.00  0.00     0.000 A 
HETATM   21  C16 UNL     1      28.286  -1.773  52.997  1.00  0.00     0.001 A 
HETATM   22  C17 UNL     1      27.353  -0.828  52.695  1.00  0.00     0.007 A 
ENDBRANCH  16  17
ENDBRANCH  12  14
ENDBRANCH   9  12
BRANCH  11  23
HETATM   23  O2  UNL     1      21.150   0.889  53.419  1.00  0.00    -0.376 OA
BRANCH  23  24
HETATM   24  C20 UNL     1      20.951  -0.407  53.760  1.00  0.00     0.175 C 
BRANCH  24  25
HETATM   25  C21 UNL     1      22.285  -1.189  53.709  1.00  0.00     0.095 C 
BRANCH  25  26
HETATM   26  C22 UNL     1      23.019  -1.026  54.986  1.00  0.00     0.233 C 
HETATM   27  O3  UNL     1      22.691  -1.935  55.710  1.00  0.00    -0.307 OA
ENDBRANCH  25  26
ENDBRANCH  24  25
ENDBRANCH  23  24
ENDBRANCH  11  23
BRANCH   3  28
HETATM   28  O1  UNL     1      17.540   2.529  51.576  1.00  0.00    -0.356 OA
HETATM   29  C4  UNL     1      16.873   2.964  50.388  1.00  0.00     0.210 C 
ENDBRANCH   3  28
TORSDOF 8
ENDMDL
MODEL 4
REMARK VINA RESULT:      -7.6      4.169      6.670
REMARK  8 active torsions:
REMARK  status: ('A' for Active; 'I' for Inactive)
REMARK    1  A    between atoms: C3_3  and  O1_4 
REMARK    2  A    between atoms: C8_11  and  N3_12 
REMARK    3  A    between atoms: N3_12  and  C9_13 
REMARK    4  A    between atoms: C11_15  and  C12_16 
REMARK    5  A    between atoms: C19_23  and  O2_24 
REMARK    6  A    between atoms: O2_24  and  C20_25 
REMARK    7  A    between atoms: C20_25  and  C21_26 
REMARK    8  A    between atoms: C21_26  and  C22_27 
ROOT
HETATM    1  C1  UNL     1      18.979   2.246  51.262  1.00  0.00     0.044 C 
HETATM    2  C2  UNL     1      19.529   1.179  51.800  1.00  0.00    -0.013 C 
HETATM    3  C3  UNL     1      18.623   0.204  52.382  1.00  0.00     0.075 C 
HETATM    4  C5  UNL     1      19.154  -0.690  53.197  1.00  0.00     0.069 C 
HETATM    5  C6  UNL     1      20.602  -0.683  53.482  1.00  0.00     0.073 A 
HETATM    6  N1  UNL     1      20.899  -1.578  54.463  1.00  0.00    -0.241 NA
HETATM    7  C7  UNL     1      22.180  -1.559  54.923  1.00  0.00     0.235 A 
HETATM    8  N2  UNL     1      23.066  -0.694  54.416  1.00  0.00    -0.224 NA
HETATM    9  C8  UNL     1      22.744   0.176  53.447  1.00  0.00     0.136 A 
HETATM   10  C18 UNL     1      21.476   0.224  52.920  1.00  0.00     0.049 A 
HETATM   11  C19 UNL     1      21.028   1.048  51.773  1.00  0.00     0.192 C 
ENDROOT
BRANCH   9  12
HETATM   12  N3  UNL     1      23.734   1.077  53.021  1.00  0.00    -0.369 N 
HETATM   13  H8  UNL     1      23.384   1.930  52.550  1.00  0.00     0.161 HD
BRANCH  12  14
HETATM   14  C9  UNL     1      25.158   1.149  53.074  1.00  0.00     0.092 A 
HETATM   15  C10 UNL     1      25.848   1.484  51.775  1.00  0.00     0.037 A 
HETATM   16  C11 UNL     1      25.974   0.104  52.404  1.00  0.00     0.043 A 
BRANCH  16  17
HETATM   17  C12 UNL     1      27.338  -0.201  52.907  1.00  0.00    -0.052 A 
HETATM   18  C13 UNL     1      28.155   0.735  53.530  1.00  0.00     0.007 A 
HETATM   19  C14 UNL     1      29.396   0.291  53.937  1.00  0.00     0.001 A 
HETATM   20  C15 UNL     1      29.905  -0.979  53.788  1.00  0.00     0.000 A 
HETATM   21  C16 UNL     1      29.057  -1.890  53.158  1.00  0.00     0.001 A 
HETATM   22  C17 UNL     1      27.825  -1.482  52.746  1.00  0.00     0.007 A 
ENDBRANCH  16  17
ENDBRANCH  12  14
ENDBRANCH   9  12
BRANCH  11  23
HETATM   23  O2  UNL     1      21.363   0.394  50.565  1.00  0.00    -0.376 OA
BRANCH  23  24
HETATM   24  C20 UNL     1      21.575   1.185  49.486  1.00  0.00     0.175 C 
BRANCH  24  25
HETATM   25  C21 UNL     1      22.853   2.036  49.683  1.00  0.00     0.095 C 
BRANCH  25  26
HETATM   26  C22 UNL     1      22.495   3.467  49.818  1.00  0.00     0.233 C 
HETATM   27  O3  UNL     1      22.928   3.850  50.878  1.00  0.00    -0.307 OA
ENDBRANCH  25  26
ENDBRANCH  24  25
ENDBRANCH  23  24
ENDBRANCH  11  23
BRANCH   3  28
HETATM   28  O1  UNL     1      17.259   0.250  52.063  1.00  0.00    -0.356 OA
HETATM   29  C4  UNL     1      16.330  -0.562  52.788  1.00  0.00     0.210 C 
ENDBRANCH   3  28
TORSDOF 8
ENDMDL
MODEL 5
REMARK VINA RESULT:      -7.5      3.705      7.959
REMARK  8 active torsions:
REMARK  status: ('A' for Active; 'I' for Inactive)
REMARK    1  A    between atoms: C3_3  and  O1_4 
REMARK    2  A    between atoms: C8_11  and  N3_12 
REMARK    3  A    between atoms: N3_12  and  C9_13 
REMARK    4  A    between atoms: C11_15  and  C12_16 
REMARK    5  A    between atoms: C19_23  and  O2_24 
REMARK    6  A    between atoms: O2_24  and  C20_25 
REMARK    7  A    between atoms: C20_25  and  C21_26 
REMARK    8  A    between atoms: C21_26  and  C22_27 
ROOT
HETATM    1  C1  UNL     1      26.766   1.595  51.316  1.00  0.00     0.044 C 
HETATM    2  C2  UNL     1      26.255   1.163  52.449  1.00  0.00    -0.013 C 
HETATM    3  C3  UNL     1      27.171   0.514  53.371  1.00  0.00     0.075 C 
HETATM    4  C5  UNL     1      26.632  -0.201  54.342  1.00  0.00     0.069 C 
HETATM    5  C6  UNL     1      25.165  -0.314  54.468  1.00  0.00     0.073 A 
HETATM    6  N1  UNL     1      24.839  -1.221  55.429  1.00  0.00    -0.241 NA
HETATM    7  C7  UNL     1      23.518  -1.528  55.537  1.00  0.00     0.235 A 
HETATM    8  N2  UNL     1      22.622  -0.952  54.728  1.00  0.00    -0.224 NA
HETATM    9  C8  UNL     1      22.974  -0.059  53.790  1.00  0.00     0.136 A 
HETATM   10  C18 UNL     1      24.285   0.314  53.613  1.00  0.00     0.049 A 
HETATM   11  C19 UNL     1      24.785   1.370  52.703  1.00  0.00     0.192 C 
ENDROOT
BRANCH   9  12
HETATM   12  N3  UNL     1      21.964   0.447  52.957  1.00  0.00    -0.369 N 
HETATM   13  H8  UNL     1      21.934   1.479  52.871  1.00  0.00     0.161 HD
BRANCH  12  14
HETATM   14  C9  UNL     1      20.924  -0.096  52.145  1.00  0.00     0.092 A 
HETATM   15  C10 UNL     1      20.918   0.344  50.702  1.00  0.00     0.037 A 
HETATM   16  C11 UNL     1      19.826   0.784  51.667  1.00  0.00     0.043 A 
BRANCH  16  17
HETATM   17  C12 UNL     1      18.493   0.202  51.367  1.00  0.00    -0.052 A 
HETATM   18  C13 UNL     1      17.813  -0.649  52.231  1.00  0.00     0.007 A 
HETATM   19  C14 UNL     1      16.585  -1.106  51.800  1.00  0.00     0.001 A 
HETATM   20  C15 UNL     1      15.968  -0.805  50.607  1.00  0.00     0.000 A 
HETATM   21  C16 UNL     1      16.680   0.051  49.767  1.00  0.00     0.001 A 
HETATM   22  C17 UNL     1      17.895   0.519  50.164  1.00  0.00     0.007 A 
ENDBRANCH  16  17
ENDBRANCH  12  14
ENDBRANCH   9  12
BRANCH  11  23
HETATM   23  O2  UNL     1      24.649   2.632  53.327  1.00  0.00    -0.376 OA
BRANCH  23  24
HETATM   24  C20 UNL     1      24.194   3.645  52.551  1.00  0.00     0.175 C 
BRANCH  24  25
HETATM   25  C21 UNL     1      23.352   3.091  51.377  1.00  0.00     0.095 C 
BRANCH  25  26
HETATM   26  C22 UNL     1      22.046   3.787  51.316  1.00  0.00     0.233 C 
HETATM   27  O3  UNL     1      21.509   3.645  52.389  1.00  0.00    -0.307 OA
ENDBRANCH  25  26
ENDBRANCH  24  25
ENDBRANCH  23  24
ENDBRANCH  11  23
BRANCH   3  28
HETATM   28  O1  UNL     1      28.553   0.669  53.196  1.00  0.00    -0.356 OA
HETATM   29  C4  UNL     1      29.449  -0.336  53.679  1.00  0.00     0.210 C 
ENDBRANCH   3  28
TORSDOF 8
ENDMDL
MODEL 6
REMARK VINA RESULT:      -7.3      2.535      4.327
REMARK  8 active torsions:
REMARK  status: ('A' for Active; 'I' for Inactive)
REMARK    1  A    between atoms: C3_3  and  O1_4 
REMARK    2  A    between atoms: C8_11  and  N3_12 
REMARK    3  A    between atoms: N3_12  and  C9_13 
REMARK    4  A    between atoms: C11_15  and  C12_16 
REMARK    5  A    between atoms: C19_23  and  O2_24 
REMARK    6  A    between atoms: O2_24  and  C20_25 
REMARK    7  A    between atoms: C20_25  and  C21_26 
REMARK    8  A    between atoms: C21_26  and  C22_27 
ROOT
HETATM    1  C1  UNL     1      20.234   2.209  52.564  1.00  0.00     0.044 C 
HETATM    2  C2  UNL     1      21.312   1.459  52.490  1.00  0.00    -0.013 C 
HETATM    3  C3  UNL     1      21.419   0.375  53.452  1.00  0.00     0.075 C 
HETATM    4  C5  UNL     1      22.613  -0.169  53.604  1.00  0.00     0.069 C 
HETATM    5  C6  UNL     1      23.766   0.311  52.819  1.00  0.00     0.073 A 
HETATM    6  N1  UNL     1      24.915  -0.275  53.252  1.00  0.00    -0.241 NA
HETATM    7  C7  UNL     1      26.069   0.197  52.709  1.00  0.00     0.235 A 
HETATM    8  N2  UNL     1      26.037   1.183  51.806  1.00  0.00    -0.224 NA
HETATM    9  C8  UNL     1      24.887   1.741  51.396  1.00  0.00     0.136 A 
HETATM   10  C18 UNL     1      23.673   1.324  51.887  1.00  0.00     0.049 A 
HETATM   11  C19 UNL     1      22.337   1.771  51.432  1.00  0.00     0.192 C 
ENDROOT
BRANCH   9  12
HETATM   12  N3  UNL     1      24.966   2.806  50.484  1.00  0.00    -0.369 N 
HETATM   13  H8  UNL     1      24.261   2.792  49.724  1.00  0.00     0.161 HD
BRANCH  12  14
HETATM   14  C9  UNL     1      25.780   3.965  50.314  1.00  0.00     0.092 A 
HETATM   15  C10 UNL     1      25.064   5.290  50.404  1.00  0.00     0.037 A 
HETATM   16  C11 UNL     1      25.639   4.791  49.086  1.00  0.00     0.043 A 
BRANCH  16  17
HETATM   17  C12 UNL     1      26.795   5.587  48.599  1.00  0.00    -0.052 A 
HETATM   18  C13 UNL     1      26.695   6.906  48.172  1.00  0.00     0.007 A 
HETATM   19  C14 UNL     1      27.863   7.502  47.746  1.00  0.00     0.001 A 
HETATM   20  C15 UNL     1      29.112   6.926  47.700  1.00  0.00     0.000 A 
HETATM   21  C16 UNL     1      29.173   5.602  48.136  1.00  0.00     0.001 A 
HETATM   22  C17 UNL     1      28.037   4.986  48.563  1.00  0.00     0.007 A 
ENDBRANCH  16  17
ENDBRANCH  12  14
ENDBRANCH   9  12
BRANCH  11  23
HETATM   23  O2  UNL     1      21.968   1.047  50.274  1.00  0.00    -0.376 OA
BRANCH  23  24
HETATM   24  C20 UNL     1      21.423   1.762  49.261  1.00  0.00     0.175 C 
BRANCH  24  25
HETATM   25  C21 UNL     1      22.477   2.034  48.162  1.00  0.00     0.095 C 
BRANCH  25  26
HETATM   26  C22 UNL     1      22.118   3.255  47.405  1.00  0.00     0.233 C 
HETATM   27  O3  UNL     1      22.365   4.204  48.110  1.00  0.00    -0.307 OA
ENDBRANCH  25  26
ENDBRANCH  24  25
ENDBRANCH  23  24
ENDBRANCH  11  23
BRANCH   3  28
HETATM   28  O1  UNL     1      20.281  -0.036  54.160  1.00  0.00    -0.356 OA
HETATM   29  C4  UNL     1      19.505  -1.139  53.682  1.00  0.00     0.210 C 
ENDBRANCH   3  28
TORSDOF 8
ENDMDL
MODEL 7
REMARK VINA RESULT:      -7.3      3.465      5.583
REMARK  8 active torsions:
REMARK  status: ('A' for Active; 'I' for Inactive)
REMARK    1  A    between atoms: C3_3  and  O1_4 
REMARK    2  A    between atoms: C8_11  and  N3_12 
REMARK    3  A    between atoms: N3_12  and  C9_13 
REMARK    4  A    between atoms: C11_15  and  C12_16 
REMARK    5  A    between atoms: C19_23  and  O2_24 
REMARK    6  A    between atoms: O2_24  and  C20_25 
REMARK    7  A    between atoms: C20_25  and  C21_26 
REMARK    8  A    between atoms: C21_26  and  C22_27 
ROOT
HETATM    1  C1  UNL     1      26.549   1.679  51.422  1.00  0.00     0.044 C 
HETATM    2  C2  UNL     1      25.760   1.213  52.366  1.00  0.00    -0.013 C 
HETATM    3  C3  UNL     1      26.278   0.116  53.165  1.00  0.00     0.075 C 
HETATM    4  C5  UNL     1      25.401  -0.565  53.881  1.00  0.00     0.069 C 
HETATM    5  C6  UNL     1      23.970  -0.205  53.859  1.00  0.00     0.073 A 
HETATM    6  N1  UNL     1      23.236  -1.132  54.533  1.00  0.00    -0.241 NA
HETATM    7  C7  UNL     1      21.884  -0.996  54.457  1.00  0.00     0.235 A 
HETATM    8  N2  UNL     1      21.345   0.004  53.750  1.00  0.00    -0.224 NA
HETATM    9  C8  UNL     1      22.096   0.904  53.097  1.00  0.00     0.136 A 
HETATM   10  C18 UNL     1      23.468   0.846  53.122  1.00  0.00     0.049 A 
HETATM   11  C19 UNL     1      24.404   1.841  52.547  1.00  0.00     0.192 C 
ENDROOT
BRANCH   9  12
HETATM   12  N3  UNL     1      21.431   1.883  52.340  1.00  0.00    -0.369 N 
HETATM   13  H8  UNL     1      21.187   2.750  52.852  1.00  0.00     0.161 HD
BRANCH  12  14
HETATM   14  C9  UNL     1      20.991   2.025  50.990  1.00  0.00     0.092 A 
HETATM   15  C10 UNL     1      21.123   0.797  50.123  1.00  0.00     0.037 A 
HETATM   16  C11 UNL     1      21.987   2.028  49.887  1.00  0.00     0.043 A 
BRANCH  16  17
HETATM   17  C12 UNL     1      21.679   2.740  48.620  1.00  0.00    -0.052 A 
HETATM   18  C13 UNL     1      22.368   2.527  47.431  1.00  0.00     0.007 A 
HETATM   19  C14 UNL     1      21.960   3.272  46.345  1.00  0.00     0.001 A 
HETATM   20  C15 UNL     1      20.944   4.201  46.319  1.00  0.00     0.000 A 
HETATM   21  C16 UNL     1      20.276   4.387  47.529  1.00  0.00     0.001 A 
HETATM   22  C17 UNL     1      20.656   3.666  48.620  1.00  0.00     0.007 A 
ENDBRANCH  16  17
ENDBRANCH  12  14
ENDBRANCH   9  12
BRANCH  11  23
HETATM   23  O2  UNL     1      24.564   2.914  53.455  1.00  0.00    -0.376 OA
BRANCH  23  24
HETATM   24  C20 UNL     1      23.888   4.053  53.172  1.00  0.00     0.175 C 
BRANCH  24  25
HETATM   25  C21 UNL     1      23.970   4.370  51.660  1.00  0.00     0.095 C 
BRANCH  25  26
HETATM   26  C22 UNL     1      22.919   5.344  51.287  1.00  0.00     0.233 C 
HETATM   27  O3  UNL     1      21.950   5.111  51.970  1.00  0.00    -0.307 OA
ENDBRANCH  25  26
ENDBRANCH  24  25
ENDBRANCH  23  24
ENDBRANCH  11  23
BRANCH   3  28
HETATM   28  O1  UNL     1      27.651  -0.167  53.144  1.00  0.00    -0.356 OA
HETATM   29  C4  UNL     1      28.422  -0.043  54.343  1.00  0.00     0.210 C 
ENDBRANCH   3  28
TORSDOF 8
ENDMDL
MODEL 8
REMARK VINA RESULT:      -7.2      4.772     10.012
REMARK  8 active torsions:
REMARK  status: ('A' for Active; 'I' for Inactive)
REMARK    1  A    between atoms: C3_3  and  O1_4 
REMARK    2  A    between atoms: C8_11  and  N3_12 
REMARK    3  A    between atoms: N3_12  and  C9_13 
REMARK    4  A    between atoms: C11_15  and  C12_16 
REMARK    5  A    between atoms: C19_23  and  O2_24 
REMARK    6  A    between atoms: O2_24  and  C20_25 
REMARK    7  A    between atoms: C20_25  and  C21_26 
REMARK    8  A    between atoms: C21_26  and  C22_27 
ROOT
HETATM    1  C1  UNL     1      22.674   1.831  50.063  1.00  0.00     0.044 C 
HETATM    2  C2  UNL     1      22.916   1.467  51.304  1.00  0.00    -0.013 C 
HETATM    3  C3  UNL     1      24.312   1.343  51.686  1.00  0.00     0.075 C 
HETATM    4  C5  UNL     1      24.568   0.679  52.799  1.00  0.00     0.069 C 
HETATM    5  C6  UNL     1      23.472   0.108  53.604  1.00  0.00     0.073 A 
HETATM    6  N1  UNL     1      23.970  -0.664  54.608  1.00  0.00    -0.241 NA
HETATM    7  C7  UNL     1      23.058  -1.370  55.329  1.00  0.00     0.235 A 
HETATM    8  N2  UNL     1      21.755  -1.285  55.038  1.00  0.00    -0.224 NA
HETATM    9  C8  UNL     1      21.293  -0.513  54.043  1.00  0.00     0.136 A 
HETATM   10  C18 UNL     1      22.141   0.237  53.265  1.00  0.00     0.049 A 
HETATM   11  C19 UNL     1      21.750   1.214  52.223  1.00  0.00     0.192 C 
ENDROOT
BRANCH   9  12
HETATM   12  N3  UNL     1      19.912  -0.536  53.785  1.00  0.00    -0.369 N 
HETATM   13  H8  UNL     1      19.369   0.237  54.210  1.00  0.00     0.161 HD
BRANCH  12  14
HETATM   14  C9  UNL     1      19.011  -1.363  53.051  1.00  0.00     0.092 A 
HETATM   15  C10 UNL     1      18.085  -0.645  52.100  1.00  0.00     0.037 A 
HETATM   16  C11 UNL     1      17.557  -1.321  53.358  1.00  0.00     0.043 A 
BRANCH  16  17
HETATM   17  C12 UNL     1      16.712  -2.512  53.086  1.00  0.00    -0.052 A 
HETATM   18  C13 UNL     1      15.532  -2.468  52.352  1.00  0.00     0.007 A 
HETATM   19  C14 UNL     1      14.865  -3.664  52.194  1.00  0.00     0.001 A 
HETATM   20  C15 UNL     1      15.246  -4.891  52.687  1.00  0.00     0.000 A 
HETATM   21  C16 UNL     1      16.434  -4.896  53.418  1.00  0.00     0.001 A 
HETATM   22  C17 UNL     1      17.117  -3.732  53.592  1.00  0.00     0.007 A 
ENDBRANCH  16  17
ENDBRANCH  12  14
ENDBRANCH   9  12
BRANCH  11  23
HETATM   23  O2  UNL     1      21.430   2.449  52.833  1.00  0.00    -0.376 OA
BRANCH  23  24
HETATM   24  C20 UNL     1      20.148   2.870  52.712  1.00  0.00     0.175 C 
BRANCH  24  25
HETATM   25  C21 UNL     1      20.022   3.893  51.558  1.00  0.00     0.095 C 
BRANCH  25  26
HETATM   26  C22 UNL     1      18.630   3.921  51.054  1.00  0.00     0.233 C 
HETATM   27  O3  UNL     1      17.897   3.778  52.004  1.00  0.00    -0.307 OA
ENDBRANCH  25  26
ENDBRANCH  24  25
ENDBRANCH  23  24
ENDBRANCH  11  23
BRANCH   3  28
HETATM   28  O1  UNL     1      25.304   1.916  50.877  1.00  0.00    -0.356 OA
HETATM   29  C4  UNL     1      26.550   2.316  51.455  1.00  0.00     0.210 C 
ENDBRANCH   3  28
TORSDOF 8
ENDMDL
MODEL 9
REMARK VINA RESULT:      -7.2      2.822      6.685
REMARK  8 active torsions:
REMARK  status: ('A' for Active; 'I' for Inactive)
REMARK    1  A    between atoms: C3_3  and  O1_4 
REMARK    2  A    between atoms: C8_11  and  N3_12 
REMARK    3  A    between atoms: N3_12  and  C9_13 
REMARK    4  A    between atoms: C11_15  and  C12_16 
REMARK    5  A    between atoms: C19_23  and  O2_24 
REMARK    6  A    between atoms: O2_24  and  C20_25 
REMARK    7  A    between atoms: C20_25  and  C21_26 
REMARK    8  A    between atoms: C21_26  and  C22_27 
ROOT
HETATM    1  C1  UNL     1      23.799   7.758  50.985  1.00  0.00     0.044 C 
HETATM    2  C2  UNL     1      23.221   6.580  50.893  1.00  0.00    -0.013 C 
HETATM    3  C3  UNL     1      21.839   6.566  50.446  1.00  0.00     0.075 C 
HETATM    4  C5  UNL     1      21.156   5.454  50.656  1.00  0.00     0.069 C 
HETATM    5  C6  UNL     1      21.792   4.293  51.308  1.00  0.00     0.073 A 
HETATM    6  N1  UNL     1      20.868   3.328  51.567  1.00  0.00    -0.241 NA
HETATM    7  C7  UNL     1      21.299   2.269  52.304  1.00  0.00     0.235 A 
HETATM    8  N2  UNL     1      22.565   2.215  52.732  1.00  0.00    -0.224 NA
HETATM    9  C8  UNL     1      23.455   3.182  52.458  1.00  0.00     0.136 A 
HETATM   10  C18 UNL     1      23.109   4.286  51.718  1.00  0.00     0.049 A 
HETATM   11  C19 UNL     1      24.020   5.354  51.249  1.00  0.00     0.192 C 
ENDROOT
BRANCH   9  12
HETATM   12  N3  UNL     1      24.745   3.055  52.999  1.00  0.00    -0.369 N 
HETATM   13  H8  UNL     1      24.907   3.568  53.885  1.00  0.00     0.161 HD
BRANCH  12  14
HETATM   14  C9  UNL     1      25.948   2.370  52.656  1.00  0.00     0.092 A 
HETATM   15  C10 UNL     1      25.845   1.394  51.510  1.00  0.00     0.037 A 
HETATM   16  C11 UNL     1      26.074   0.916  52.936  1.00  0.00     0.043 A 
BRANCH  16  17
HETATM   17  C12 UNL     1      27.418   0.323  53.159  1.00  0.00    -0.052 A 
HETATM   18  C13 UNL     1      28.541   1.068  53.499  1.00  0.00     0.007 A 
HETATM   19  C14 UNL     1      29.715   0.364  53.667  1.00  0.00     0.001 A 
HETATM   20  C15 UNL     1      29.886  -0.995  53.533  1.00  0.00     0.000 A 
HETATM   21  C16 UNL     1      28.738  -1.709  53.191  1.00  0.00     0.001 A 
HETATM   22  C17 UNL     1      27.563  -1.043  53.018  1.00  0.00     0.007 A 
ENDBRANCH  16  17
ENDBRANCH  12  14
ENDBRANCH   9  12
BRANCH  11  23
HETATM   23  O2  UNL     1      24.673   4.931  50.067  1.00  0.00    -0.376 OA
BRANCH  23  24
HETATM   24  C20 UNL     1      26.026   4.882  50.107  1.00  0.00     0.175 C 
BRANCH  24  25
HETATM   25  C21 UNL     1      26.605   4.760  48.678  1.00  0.00     0.095 C 
BRANCH  25  26
HETATM   26  C22 UNL     1      27.761   5.672  48.518  1.00  0.00     0.233 C 
HETATM   27  O3  UNL     1      28.763   5.000  48.573  1.00  0.00    -0.307 OA
ENDBRANCH  25  26
ENDBRANCH  24  25
ENDBRANCH  23  24
ENDBRANCH  11  23
BRANCH   3  28
HETATM   28  O1  UNL     1      21.300   7.703  49.827  1.00  0.00    -0.356 OA
HETATM   29  C4  UNL     1      20.903   7.645  48.454  1.00  0.00     0.210 C 
ENDBRANCH   3  28
TORSDOF 8
ENDMDL
