MODEL 1
REMARK VINA RESULT:      -8.2      0.000      0.000
REMARK  5 active torsions:
REMARK  status: ('A' for Active; 'I' for Inactive)
REMARK    1  A    between atoms: C3_4  and  C4_5 
REMARK    2  A    between atoms: C8_11  and  N3_12 
REMARK    3  A    between atoms: N3_12  and  C9_13 
REMARK    4  A    between atoms: C14_18  and  C15_19 
REMARK       I    between atoms: C15_19  and  N4_21 
REMARK    5  A    between atoms: N4_21  and  O2_22 
ROOT
HETATM    1  C4  UNL     1      24.292   2.232  51.683  1.00  0.00    -0.003 A 
HETATM    2  C5  UNL     1      23.541   1.244  52.145  1.00  0.00     0.019 A 
HETATM    3  C6  UNL     1      24.073   0.554  53.111  1.00  0.00     0.084 A 
HETATM    4  N1  UNL     1      23.585  -0.505  53.800  1.00  0.00    -0.240 NA
HETATM    5  C7  UNL     1      24.408  -0.999  54.764  1.00  0.00     0.236 A 
HETATM    6  N2  UNL     1      25.644  -0.508  55.060  1.00  0.00    -0.224 NA
HETATM    7  C8  UNL     1      26.103   0.544  54.361  1.00  0.00     0.141 A 
HETATM    8  C12 UNL     1      25.317   1.083  53.380  1.00  0.00     0.041 A 
HETATM    9  C13 UNL     1      25.482   2.090  52.541  1.00  0.00     0.031 A 
ENDROOT
BRANCH   1  10
HETATM   10  C3  UNL     1      24.000   3.202  50.602  1.00  0.00     0.034 A 
HETATM   11  S1  UNL     1      22.405   3.811  50.082  1.00  0.00    -0.088 SA
HETATM   12  C2  UNL     1      23.763   4.482  49.156  1.00  0.00     0.013 A 
HETATM   13  C1  UNL     1      23.407   5.332  48.220  1.00  0.00     0.032 C 
HETATM   14  C14 UNL     1      24.855   3.811  49.805  1.00  0.00     0.068 A 
BRANCH  14  15
HETATM   15  C15 UNL     1      26.282   3.865  49.581  1.00  0.00     0.277 C 
HETATM   16  O1  UNL     1      26.897   2.794  49.393  1.00  0.00    -0.265 OA
HETATM   17  N4  UNL     1      27.029   5.050  49.559  1.00  0.00    -0.233 N 
HETATM   18  H11 UNL     1      26.579   5.966  49.707  1.00  0.00     0.197 HD
BRANCH  17  19
HETATM   19  O2  UNL     1      28.355   4.916  49.334  1.00  0.00    -0.287 OA
HETATM   20  H12 UNL     1      28.561   3.984  49.075  1.00  0.00     0.244 HD
ENDBRANCH  17  19
ENDBRANCH  14  15
ENDBRANCH   1  10
BRANCH   7  21
HETATM   21  N3  UNL     1      27.381   1.089  54.634  1.00  0.00    -0.350 N 
HETATM   22  H4  UNL     1      27.514   2.119  54.693  1.00  0.00     0.166 HD
BRANCH  21  23
HETATM   23  C9  UNL     1      28.521   0.265  54.836  1.00  0.00     0.085 C 
HETATM   24  C10 UNL     1      28.980  -0.360  53.752  1.00  0.00    -0.014 C 
HETATM   25  C11 UNL     1      30.148  -1.281  53.654  1.00  0.00     0.037 C 
ENDBRANCH  21  23
ENDBRANCH   7  21
TORSDOF 5
ENDMDL
MODEL 2
REMARK VINA RESULT:      -8.2      3.909      6.331
REMARK  5 active torsions:
REMARK  status: ('A' for Active; 'I' for Inactive)
REMARK    1  A    between atoms: C3_4  and  C4_5 
REMARK    2  A    between atoms: C8_11  and  N3_12 
REMARK    3  A    between atoms: N3_12  and  C9_13 
REMARK    4  A    between atoms: C14_18  and  C15_19 
REMARK       I    between atoms: C15_19  and  N4_21 
REMARK    5  A    between atoms: N4_21  and  O2_22 
ROOT
HETATM    1  C4  UNL     1      24.601   0.128  53.582  1.00  0.00    -0.003 A 
HETATM    2  C5  UNL     1      24.020  -0.819  54.303  1.00  0.00     0.019 A 
HETATM    3  C6  UNL     1      22.735  -0.926  54.137  1.00  0.00     0.084 A 
HETATM    4  N1  UNL     1      21.847  -1.775  54.708  1.00  0.00    -0.240 NA
HETATM    5  C7  UNL     1      20.557  -1.620  54.308  1.00  0.00     0.236 A 
HETATM    6  N2  UNL     1      20.126  -0.696  53.404  1.00  0.00    -0.224 NA
HETATM    7  C8  UNL     1      21.028   0.133  52.853  1.00  0.00     0.141 A 
HETATM    8  C12 UNL     1      22.341   0.023  53.217  1.00  0.00     0.041 A 
HETATM    9  C13 UNL     1      23.435   0.674  52.863  1.00  0.00     0.031 A 
ENDROOT
BRANCH   1  10
HETATM   10  C3  UNL     1      26.029   0.518  53.527  1.00  0.00     0.034 A 
HETATM   11  S1  UNL     1      26.734   2.131  53.823  1.00  0.00    -0.088 SA
HETATM   12  C2  UNL     1      27.936   0.888  53.420  1.00  0.00     0.013 A 
HETATM   13  C1  UNL     1      29.175   1.326  53.396  1.00  0.00     0.032 C 
HETATM   14  C14 UNL     1      27.068  -0.244  53.251  1.00  0.00     0.068 A 
BRANCH  14  15
HETATM   15  C15 UNL     1      27.346  -1.622  52.911  1.00  0.00     0.277 C 
HETATM   16  O1  UNL     1      26.571  -2.210  52.128  1.00  0.00    -0.265 OA
HETATM   17  N4  UNL     1      28.437  -2.348  53.405  1.00  0.00    -0.233 N 
HETATM   18  H11 UNL     1      29.112  -1.919  54.055  1.00  0.00     0.197 HD
BRANCH  17  19
HETATM   19  O2  UNL     1      28.544  -3.627  52.981  1.00  0.00    -0.287 OA
HETATM   20  H12 UNL     1      28.815  -3.646  52.030  1.00  0.00     0.244 HD
ENDBRANCH  17  19
ENDBRANCH  14  15
ENDBRANCH   1  10
BRANCH   7  21
HETATM   21  N3  UNL     1      20.627   1.109  51.908  1.00  0.00    -0.350 N 
HETATM   22  H4  UNL     1      20.338   2.059  52.220  1.00  0.00     0.166 HD
BRANCH  21  23
HETATM   23  C9  UNL     1      20.602   0.839  50.514  1.00  0.00     0.085 C 
HETATM   24  C10 UNL     1      21.540   1.451  49.791  1.00  0.00    -0.014 C 
HETATM   25  C11 UNL     1      21.763   1.363  48.319  1.00  0.00     0.037 C 
ENDBRANCH  21  23
ENDBRANCH   7  21
TORSDOF 5
ENDMDL
MODEL 3
REMARK VINA RESULT:      -8.2      1.807      1.890
REMARK  5 active torsions:
REMARK  status: ('A' for Active; 'I' for Inactive)
REMARK    1  A    between atoms: C3_4  and  C4_5 
REMARK    2  A    between atoms: C8_11  and  N3_12 
REMARK    3  A    between atoms: N3_12  and  C9_13 
REMARK    4  A    between atoms: C14_18  and  C15_19 
REMARK       I    between atoms: C15_19  and  N4_21 
REMARK    5  A    between atoms: N4_21  and  O2_22 
ROOT
HETATM    1  C4  UNL     1      23.772   1.647  51.843  1.00  0.00    -0.003 A 
HETATM    2  C5  UNL     1      23.183   0.664  52.506  1.00  0.00     0.019 A 
HETATM    3  C6  UNL     1      23.887   0.153  53.472  1.00  0.00     0.084 A 
HETATM    4  N1  UNL     1      23.590  -0.849  54.334  1.00  0.00    -0.240 NA
HETATM    5  C7  UNL     1      24.562  -1.142  55.239  1.00  0.00     0.236 A 
HETATM    6  N2  UNL     1      25.767  -0.511  55.321  1.00  0.00    -0.224 NA
HETATM    7  C8  UNL     1      26.035   0.479  54.453  1.00  0.00     0.141 A 
HETATM    8  C12 UNL     1      25.093   0.818  53.521  1.00  0.00     0.041 A 
HETATM    9  C13 UNL     1      25.059   1.721  52.557  1.00  0.00     0.031 A 
ENDROOT
BRANCH   1  10
HETATM   10  C3  UNL     1      23.263   2.442  50.701  1.00  0.00     0.034 A 
HETATM   11  S1  UNL     1      22.231   1.885  49.356  1.00  0.00    -0.088 SA
HETATM   12  C2  UNL     1      22.666   3.603  49.258  1.00  0.00     0.013 A 
HETATM   13  C1  UNL     1      22.169   4.225  48.213  1.00  0.00     0.032 C 
HETATM   14  C14 UNL     1      23.467   3.718  50.444  1.00  0.00     0.068 A 
BRANCH  14  15
HETATM   15  C15 UNL     1      24.167   4.844  51.022  1.00  0.00     0.277 C 
HETATM   16  O1  UNL     1      25.285   5.153  50.556  1.00  0.00    -0.265 OA
HETATM   17  N4  UNL     1      23.672   5.619  52.078  1.00  0.00    -0.233 N 
HETATM   18  H11 UNL     1      22.756   5.415  52.505  1.00  0.00     0.197 HD
BRANCH  17  19
HETATM   19  O2  UNL     1      24.460   6.636  52.493  1.00  0.00    -0.287 OA
HETATM   20  H12 UNL     1      24.132   6.987  53.358  1.00  0.00     0.244 HD
ENDBRANCH  17  19
ENDBRANCH  14  15
ENDBRANCH   1  10
BRANCH   7  21
HETATM   21  N3  UNL     1      27.274   1.164  54.501  1.00  0.00    -0.350 N 
HETATM   22  H4  UNL     1      27.305   2.203  54.446  1.00  0.00     0.166 HD
BRANCH  21  23
HETATM   23  C9  UNL     1      28.509   0.474  54.624  1.00  0.00     0.085 C 
HETATM   24  C10 UNL     1      28.771  -0.414  53.666  1.00  0.00    -0.014 C 
HETATM   25  C11 UNL     1      29.976  -1.282  53.528  1.00  0.00     0.037 C 
ENDBRANCH  21  23
ENDBRANCH   7  21
TORSDOF 5
ENDMDL
MODEL 4
REMARK VINA RESULT:      -8.1      1.356      3.230
REMARK  5 active torsions:
REMARK  status: ('A' for Active; 'I' for Inactive)
REMARK    1  A    between atoms: C3_4  and  C4_5 
REMARK    2  A    between atoms: C8_11  and  N3_12 
REMARK    3  A    between atoms: N3_12  and  C9_13 
REMARK    4  A    between atoms: C14_18  and  C15_19 
REMARK       I    between atoms: C15_19  and  N4_21 
REMARK    5  A    between atoms: N4_21  and  O2_22 
ROOT
HETATM    1  C4  UNL     1      25.817   2.313  51.371  1.00  0.00    -0.003 A 
HETATM    2  C5  UNL     1      27.060   2.550  51.764  1.00  0.00     0.019 A 
HETATM    3  C6  UNL     1      27.531   1.707  52.635  1.00  0.00     0.084 A 
HETATM    4  N1  UNL     1      28.744   1.657  53.236  1.00  0.00    -0.240 NA
HETATM    5  C7  UNL     1      28.916   0.629  54.109  1.00  0.00     0.236 A 
HETATM    6  N2  UNL     1      27.976  -0.312  54.402  1.00  0.00    -0.224 NA
HETATM    7  C8  UNL     1      26.781  -0.238  53.791  1.00  0.00     0.141 A 
HETATM    8  C12 UNL     1      26.551   0.774  52.901  1.00  0.00     0.041 A 
HETATM    9  C13 UNL     1      25.509   1.108  52.161  1.00  0.00     0.031 A 
ENDROOT
BRANCH   1  10
HETATM   10  C3  UNL     1      24.984   3.065  50.404  1.00  0.00     0.034 A 
HETATM   11  S1  UNL     1      23.250   2.836  50.046  1.00  0.00    -0.088 SA
HETATM   12  C2  UNL     1      24.010   4.131  49.100  1.00  0.00     0.013 A 
HETATM   13  C1  UNL     1      23.194   4.741  48.270  1.00  0.00     0.032 C 
HETATM   14  C14 UNL     1      25.350   4.053  49.613  1.00  0.00     0.068 A 
BRANCH  14  15
HETATM   15  C15 UNL     1      26.540   4.813  49.303  1.00  0.00     0.277 C 
HETATM   16  O1  UNL     1      27.496   4.225  48.755  1.00  0.00    -0.265 OA
HETATM   17  N4  UNL     1      26.695   6.178  49.578  1.00  0.00    -0.233 N 
HETATM   18  H11 UNL     1      25.942   6.718  50.029  1.00  0.00     0.197 HD
BRANCH  17  19
HETATM   19  O2  UNL     1      27.876   6.729  49.219  1.00  0.00    -0.287 OA
HETATM   20  H12 UNL     1      28.221   6.287  48.404  1.00  0.00     0.244 HD
ENDBRANCH  17  19
ENDBRANCH  14  15
ENDBRANCH   1  10
BRANCH   7  21
HETATM   21  N3  UNL     1      25.772  -1.195  54.063  1.00  0.00    -0.350 N 
HETATM   22  H4  UNL     1      25.820  -2.146  53.645  1.00  0.00     0.166 HD
BRANCH  21  23
HETATM   23  C9  UNL     1      24.667  -0.901  54.906  1.00  0.00     0.085 C 
HETATM   24  C10 UNL     1      23.466  -0.992  54.335  1.00  0.00    -0.014 C 
HETATM   25  C11 UNL     1      22.136  -0.746  54.961  1.00  0.00     0.037 C 
ENDBRANCH  21  23
ENDBRANCH   7  21
TORSDOF 5
ENDMDL
MODEL 5
REMARK VINA RESULT:      -7.7      3.549      5.564
REMARK  5 active torsions:
REMARK  status: ('A' for Active; 'I' for Inactive)
REMARK    1  A    between atoms: C3_4  and  C4_5 
REMARK    2  A    between atoms: C8_11  and  N3_12 
REMARK    3  A    between atoms: N3_12  and  C9_13 
REMARK    4  A    between atoms: C14_18  and  C15_19 
REMARK       I    between atoms: C15_19  and  N4_21 
REMARK    5  A    between atoms: N4_21  and  O2_22 
ROOT
HETATM    1  C4  UNL     1      22.559   1.325  51.474  1.00  0.00    -0.003 A 
HETATM    2  C5  UNL     1      23.029   2.133  50.535  1.00  0.00     0.019 A 
HETATM    3  C6  UNL     1      24.295   2.411  50.632  1.00  0.00     0.084 A 
HETATM    4  N1  UNL     1      25.081   3.191  49.852  1.00  0.00    -0.240 NA
HETATM    5  C7  UNL     1      26.383   3.270  50.236  1.00  0.00     0.236 A 
HETATM    6  N2  UNL     1      26.918   2.636  51.317  1.00  0.00    -0.224 NA
HETATM    7  C8  UNL     1      26.115   1.868  52.073  1.00  0.00     0.141 A 
HETATM    8  C12 UNL     1      24.795   1.751  51.734  1.00  0.00     0.041 A 
HETATM    9  C13 UNL     1      23.781   1.090  52.263  1.00  0.00     0.031 A 
ENDROOT
BRANCH   1  10
HETATM   10  C3  UNL     1      21.182   0.812  51.662  1.00  0.00     0.034 A 
HETATM   11  S1  UNL     1      19.787   0.998  50.565  1.00  0.00    -0.088 SA
HETATM   12  C2  UNL     1      19.420   0.080  52.039  1.00  0.00     0.013 A 
HETATM   13  C1  UNL     1      18.175  -0.336  52.118  1.00  0.00     0.032 C 
HETATM   14  C14 UNL     1      20.708   0.114  52.674  1.00  0.00     0.068 A 
BRANCH  14  15
HETATM   15  C15 UNL     1      21.172  -0.436  53.928  1.00  0.00     0.277 C 
HETATM   16  O1  UNL     1      21.056   0.256  54.962  1.00  0.00    -0.265 OA
HETATM   17  N4  UNL     1      21.750  -1.705  54.063  1.00  0.00    -0.233 N 
HETATM   18  H11 UNL     1      21.873  -2.323  53.248  1.00  0.00     0.197 HD
BRANCH  17  19
HETATM   19  O2  UNL     1      22.128  -2.059  55.312  1.00  0.00    -0.287 OA
HETATM   20  H12 UNL     1      21.602  -1.553  55.980  1.00  0.00     0.244 HD
ENDBRANCH  17  19
ENDBRANCH  14  15
ENDBRANCH   1  10
BRANCH   7  21
HETATM   21  N3  UNL     1      26.626   1.188  53.206  1.00  0.00    -0.350 N 
HETATM   22  H4  UNL     1      26.490   1.579  54.161  1.00  0.00     0.166 HD
BRANCH  21  23
HETATM   23  C9  UNL     1      27.335  -0.037  53.091  1.00  0.00     0.085 C 
HETATM   24  C10 UNL     1      28.592  -0.020  53.533  1.00  0.00    -0.014 C 
HETATM   25  C11 UNL     1      29.573  -1.142  53.543  1.00  0.00     0.037 C 
ENDBRANCH  21  23
ENDBRANCH   7  21
TORSDOF 5
ENDMDL
MODEL 6
REMARK VINA RESULT:      -7.7      3.099      6.147
REMARK  5 active torsions:
REMARK  status: ('A' for Active; 'I' for Inactive)
REMARK    1  A    between atoms: C3_4  and  C4_5 
REMARK    2  A    between atoms: C8_11  and  N3_12 
REMARK    3  A    between atoms: N3_12  and  C9_13 
REMARK    4  A    between atoms: C14_18  and  C15_19 
REMARK       I    between atoms: C15_19  and  N4_21 
REMARK    5  A    between atoms: N4_21  and  O2_22 
ROOT
HETATM    1  C4  UNL     1      25.217   0.091  52.852  1.00  0.00    -0.003 A 
HETATM    2  C5  UNL     1      24.055  -0.223  53.403  1.00  0.00     0.019 A 
HETATM    3  C6  UNL     1      23.078   0.588  53.125  1.00  0.00     0.084 A 
HETATM    4  N1  UNL     1      21.781   0.562  53.517  1.00  0.00    -0.240 NA
HETATM    5  C7  UNL     1      21.010   1.575  53.039  1.00  0.00     0.236 A 
HETATM    6  N2  UNL     1      21.452   2.573  52.224  1.00  0.00    -0.224 NA
HETATM    7  C8  UNL     1      22.743   2.575  51.850  1.00  0.00     0.141 A 
HETATM    8  C12 UNL     1      23.565   1.580  52.300  1.00  0.00     0.041 A 
HETATM    9  C13 UNL     1      24.846   1.313  52.116  1.00  0.00     0.031 A 
ENDROOT
BRANCH   1  10
HETATM   10  C3  UNL     1      26.521  -0.606  52.957  1.00  0.00     0.034 A 
HETATM   11  S1  UNL     1      26.911  -2.275  52.462  1.00  0.00    -0.088 SA
HETATM   12  C2  UNL     1      28.287  -1.396  53.156  1.00  0.00     0.013 A 
HETATM   13  C1  UNL     1      29.400  -2.093  53.208  1.00  0.00     0.032 C 
HETATM   14  C14 UNL     1      27.655  -0.137  53.436  1.00  0.00     0.068 A 
BRANCH  14  15
HETATM   15  C15 UNL     1      28.168   1.084  54.017  1.00  0.00     0.277 C 
HETATM   16  O1  UNL     1      27.353   1.932  54.437  1.00  0.00    -0.265 OA
HETATM   17  N4  UNL     1      29.531   1.384  54.140  1.00  0.00    -0.233 N 
HETATM   18  H11 UNL     1      30.252   0.725  53.811  1.00  0.00     0.197 HD
BRANCH  17  19
HETATM   19  O2  UNL     1      29.832   2.573  54.709  1.00  0.00    -0.287 OA
HETATM   20  H12 UNL     1      29.425   2.629  55.609  1.00  0.00     0.244 HD
ENDBRANCH  17  19
ENDBRANCH  14  15
ENDBRANCH   1  10
BRANCH   7  21
HETATM   21  N3  UNL     1      23.247   3.592  51.003  1.00  0.00    -0.350 N 
HETATM   22  H4  UNL     1      23.886   4.323  51.379  1.00  0.00     0.166 HD
BRANCH  21  23
HETATM   23  C9  UNL     1      22.908   3.658  49.626  1.00  0.00     0.085 C 
HETATM   24  C10 UNL     1      22.814   2.487  48.997  1.00  0.00    -0.014 C 
HETATM   25  C11 UNL     1      22.478   2.241  47.566  1.00  0.00     0.037 C 
ENDBRANCH  21  23
ENDBRANCH   7  21
TORSDOF 5
ENDMDL
MODEL 7
REMARK VINA RESULT:      -7.5      2.748      6.545
REMARK  5 active torsions:
REMARK  status: ('A' for Active; 'I' for Inactive)
REMARK    1  A    between atoms: C3_4  and  C4_5 
REMARK    2  A    between atoms: C8_11  and  N3_12 
REMARK    3  A    between atoms: N3_12  and  C9_13 
REMARK    4  A    between atoms: C14_18  and  C15_19 
REMARK       I    between atoms: C15_19  and  N4_21 
REMARK    5  A    between atoms: N4_21  and  O2_22 
ROOT
HETATM    1  C4  UNL     1      24.781   3.519  50.419  1.00  0.00    -0.003 A 
HETATM    2  C5  UNL     1      24.026   4.405  49.787  1.00  0.00     0.019 A 
HETATM    3  C6  UNL     1      24.680   5.310  49.122  1.00  0.00     0.084 A 
HETATM    4  N1  UNL     1      24.226   6.346  48.377  1.00  0.00    -0.240 NA
HETATM    5  C7  UNL     1      25.190   7.116  47.805  1.00  0.00     0.236 A 
HETATM    6  N2  UNL     1      26.530   6.911  47.935  1.00  0.00    -0.224 NA
HETATM    7  C8  UNL     1      26.953   5.875  48.680  1.00  0.00     0.141 A 
HETATM    8  C12 UNL     1      26.028   5.067  49.279  1.00  0.00     0.041 A 
HETATM    9  C13 UNL     1      26.125   3.999  50.052  1.00  0.00     0.031 A 
ENDROOT
BRANCH   1  10
HETATM   10  C3  UNL     1      24.370   2.369  51.258  1.00  0.00     0.034 A 
HETATM   11  S1  UNL     1      22.808   1.506  51.240  1.00  0.00    -0.088 SA
HETATM   12  C2  UNL     1      23.965   0.866  52.424  1.00  0.00     0.013 A 
HETATM   13  C1  UNL     1      23.513  -0.153  53.121  1.00  0.00     0.032 C 
HETATM   14  C14 UNL     1      25.071   1.749  52.186  1.00  0.00     0.068 A 
BRANCH  14  15
HETATM   15  C15 UNL     1      26.383   1.828  52.790  1.00  0.00     0.277 C 
HETATM   16  O1  UNL     1      27.270   1.043  52.393  1.00  0.00    -0.265 OA
HETATM   17  N4  UNL     1      26.728   2.734  53.802  1.00  0.00    -0.233 N 
HETATM   18  H11 UNL     1      26.041   3.406  54.172  1.00  0.00     0.197 HD
BRANCH  17  19
HETATM   19  O2  UNL     1      28.001   2.669  54.252  1.00  0.00    -0.287 OA
HETATM   20  H12 UNL     1      28.160   3.380  54.921  1.00  0.00     0.244 HD
ENDBRANCH  17  19
ENDBRANCH  14  15
ENDBRANCH   1  10
BRANCH   7  21
HETATM   21  N3  UNL     1      28.337   5.623  48.844  1.00  0.00    -0.350 N 
HETATM   22  H4  UNL     1      28.674   5.005  49.610  1.00  0.00     0.166 HD
BRANCH  21  23
HETATM   23  C9  UNL     1      29.312   6.193  47.983  1.00  0.00     0.085 C 
HETATM   24  C10 UNL     1      30.478   5.550  47.925  1.00  0.00    -0.014 C 
HETATM   25  C11 UNL     1      31.679   5.906  47.117  1.00  0.00     0.037 C 
ENDBRANCH  21  23
ENDBRANCH   7  21
TORSDOF 5
ENDMDL
MODEL 8
REMARK VINA RESULT:      -7.5      6.847     10.106
REMARK  5 active torsions:
REMARK  status: ('A' for Active; 'I' for Inactive)
REMARK    1  A    between atoms: C3_4  and  C4_5 
REMARK    2  A    between atoms: C8_11  and  N3_12 
REMARK    3  A    between atoms: N3_12  and  C9_13 
REMARK    4  A    between atoms: C14_18  and  C15_19 
REMARK       I    between atoms: C15_19  and  N4_21 
REMARK    5  A    between atoms: N4_21  and  O2_22 
ROOT
HETATM    1  C4  UNL     1      31.982   6.518  47.327  1.00  0.00    -0.003 A 
HETATM    2  C5  UNL     1      32.145   7.626  48.034  1.00  0.00     0.019 A 
HETATM    3  C6  UNL     1      31.046   8.168  48.469  1.00  0.00     0.084 A 
HETATM    4  N1  UNL     1      30.856   9.286  49.209  1.00  0.00    -0.240 NA
HETATM    5  C7  UNL     1      29.560   9.577  49.498  1.00  0.00     0.236 A 
HETATM    6  N2  UNL     1      28.487   8.837  49.100  1.00  0.00    -0.224 NA
HETATM    7  C8  UNL     1      28.705   7.732  48.366  1.00  0.00     0.141 A 
HETATM    8  C12 UNL     1      29.989   7.390  48.046  1.00  0.00     0.041 A 
HETATM    9  C13 UNL     1      30.514   6.392  47.358  1.00  0.00     0.031 A 
ENDROOT
BRANCH   1  10
HETATM   10  C3  UNL     1      33.005   5.656  46.689  1.00  0.00     0.034 A 
HETATM   11  S1  UNL     1      32.907   4.829  45.111  1.00  0.00    -0.088 SA
HETATM   12  C2  UNL     1      34.434   4.549  45.972  1.00  0.00     0.013 A 
HETATM   13  C1  UNL     1      35.279   3.774  45.329  1.00  0.00     0.032 C 
HETATM   14  C14 UNL     1      34.193   5.326  47.154  1.00  0.00     0.068 A 
BRANCH  14  15
HETATM   15  C15 UNL     1      35.009   5.571  48.323  1.00  0.00     0.277 C 
HETATM   16  O1  UNL     1      35.581   6.677  48.429  1.00  0.00    -0.265 OA
HETATM   17  N4  UNL     1      35.203   4.643  49.354  1.00  0.00    -0.233 N 
HETATM   18  H11 UNL     1      34.758   3.714  49.324  1.00  0.00     0.197 HD
BRANCH  17  19
HETATM   19  O2  UNL     1      35.998   5.040  50.373  1.00  0.00    -0.287 OA
HETATM   20  H12 UNL     1      35.534   4.903  51.236  1.00  0.00     0.244 HD
ENDBRANCH  17  19
ENDBRANCH  14  15
ENDBRANCH   1  10
BRANCH   7  21
HETATM   21  N3  UNL     1      27.621   6.932  47.930  1.00  0.00    -0.350 N 
HETATM   22  H4  UNL     1      27.315   6.955  46.935  1.00  0.00     0.166 HD
BRANCH  21  23
HETATM   23  C9  UNL     1      26.915   6.076  48.816  1.00  0.00     0.085 C 
HETATM   24  C10 UNL     1      27.242   4.786  48.755  1.00  0.00    -0.014 C 
HETATM   25  C11 UNL     1      26.679   3.660  49.554  1.00  0.00     0.037 C 
ENDBRANCH  21  23
ENDBRANCH   7  21
TORSDOF 5
ENDMDL
MODEL 9
REMARK VINA RESULT:      -7.4      3.019      5.300
REMARK  5 active torsions:
REMARK  status: ('A' for Active; 'I' for Inactive)
REMARK    1  A    between atoms: C3_4  and  C4_5 
REMARK    2  A    between atoms: C8_11  and  N3_12 
REMARK    3  A    between atoms: N3_12  and  C9_13 
REMARK    4  A    between atoms: C14_18  and  C15_19 
REMARK       I    between atoms: C15_19  and  N4_21 
REMARK    5  A    between atoms: N4_21  and  O2_22 
ROOT
HETATM    1  C4  UNL     1      24.106   0.039  53.576  1.00  0.00    -0.003 A 
HETATM    2  C5  UNL     1      25.073  -0.620  54.199  1.00  0.00     0.019 A 
HETATM    3  C6  UNL     1      26.266  -0.131  54.034  1.00  0.00     0.084 A 
HETATM    4  N1  UNL     1      27.458  -0.551  54.521  1.00  0.00    -0.240 NA
HETATM    5  C7  UNL     1      28.531   0.198  54.153  1.00  0.00     0.236 A 
HETATM    6  N2  UNL     1      28.477   1.300  53.354  1.00  0.00    -0.224 NA
HETATM    7  C8  UNL     1      27.281   1.695  52.885  1.00  0.00     0.141 A 
HETATM    8  C12 UNL     1      26.165   0.980  53.223  1.00  0.00     0.041 A 
HETATM    9  C13 UNL     1      24.884   1.111  52.929  1.00  0.00     0.031 A 
ENDROOT
BRANCH   1  10
HETATM   10  C3  UNL     1      22.652  -0.240  53.549  1.00  0.00     0.034 A 
HETATM   11  S1  UNL     1      21.721  -1.295  54.647  1.00  0.00    -0.088 SA
HETATM   12  C2  UNL     1      20.732  -0.516  53.396  1.00  0.00     0.013 A 
HETATM   13  C1  UNL     1      19.455  -0.823  53.451  1.00  0.00     0.032 C 
HETATM   14  C14 UNL     1      21.750   0.232  52.713  1.00  0.00     0.068 A 
BRANCH  14  15
HETATM   15  C15 UNL     1      21.685   1.117  51.571  1.00  0.00     0.277 C 
HETATM   16  O1  UNL     1      21.681   0.614  50.427  1.00  0.00    -0.265 OA
HETATM   17  N4  UNL     1      21.625   2.513  51.661  1.00  0.00    -0.233 N 
HETATM   18  H11 UNL     1      21.625   2.988  52.576  1.00  0.00     0.197 HD
BRANCH  17  19
HETATM   19  O2  UNL     1      21.568   3.186  50.490  1.00  0.00    -0.287 OA
HETATM   20  H12 UNL     1      20.822   3.835  50.509  1.00  0.00     0.244 HD
ENDBRANCH  17  19
ENDBRANCH  14  15
ENDBRANCH   1  10
BRANCH   7  21
HETATM   21  N3  UNL     1      27.174   2.835  52.051  1.00  0.00    -0.350 N 
HETATM   22  H4  UNL     1      27.527   3.759  52.374  1.00  0.00     0.166 HD
BRANCH  21  23
HETATM   23  C9  UNL     1      26.591   2.768  50.759  1.00  0.00     0.085 C 
HETATM   24  C10 UNL     1      25.630   3.659  50.512  1.00  0.00    -0.014 C 
HETATM   25  C11 UNL     1      24.842   3.832  49.259  1.00  0.00     0.037 C 
ENDBRANCH  21  23
ENDBRANCH   7  21
TORSDOF 5
ENDMDL
