MODEL 1
REMARK VINA RESULT:      -9.5      0.000      0.000
REMARK  3 active torsions:
REMARK  status: ('A' for Active; 'I' for Inactive)
REMARK    1  A    between atoms: C6_8  and  N3_9 
REMARK    2  A    between atoms: N3_9  and  C7_10 
REMARK    3  A    between atoms: C15_20  and  N4_21 
ROOT
HETATM    1  C1  UNL     1      19.026   1.735  50.245  1.00  0.00     0.046 C 
HETATM    2  C2  UNL     1      20.001   1.496  51.335  1.00  0.00    -0.058 C 
HETATM    3  C3  UNL     1      20.591   0.268  51.436  1.00  0.00     0.037 C 
HETATM    4  C4  UNL     1      21.592  -0.038  52.490  1.00  0.00     0.072 A 
HETATM    5  N1  UNL     1      21.142  -0.793  53.490  1.00  0.00    -0.241 NA
HETATM    6  C5  UNL     1      21.909  -1.151  54.535  1.00  0.00     0.236 A 
HETATM    7  N2  UNL     1      23.184  -0.754  54.608  1.00  0.00    -0.224 NA
HETATM    8  C6  UNL     1      23.649   0.008  53.605  1.00  0.00     0.142 A 
HETATM    9  C13 UNL     1      22.927   0.417  52.503  1.00  0.00     0.041 A 
HETATM   10  C14 UNL     1      23.743   1.263  51.548  1.00  0.00     0.045 C 
HETATM   11  C15 UNL     1      23.320   2.485  51.017  1.00  0.00     0.032 C 
HETATM   12  C21 UNL     1      22.089   2.866  51.510  1.00  0.00     0.224 C 
HETATM   13  O1  UNL     1      21.102   3.548  52.095  1.00  0.00    -0.381 OA
HETATM   14  C22 UNL     1      20.339   2.342  52.439  1.00  0.00     0.202 C 
ENDROOT
BRANCH   8  15
HETATM   15  N3  UNL     1      25.006   0.381  53.787  1.00  0.00    -0.340 N 
HETATM   16  H6  UNL     1      25.224   1.323  54.198  1.00  0.00     0.167 HD
BRANCH  15  17
HETATM   17  C7  UNL     1      26.157  -0.376  53.480  1.00  0.00     0.035 A 
HETATM   18  C8  UNL     1      26.249  -1.625  52.912  1.00  0.00     0.032 A 
HETATM   19  C9  UNL     1      27.393  -2.329  52.655  1.00  0.00     0.046 A 
HETATM   20  C10 UNL     1      28.579  -1.745  52.991  1.00  0.00     0.138 A 
HETATM   21  F1  UNL     1      29.745  -2.392  52.763  1.00  0.00    -0.204 F 
HETATM   22  C11 UNL     1      28.604  -0.497  53.565  1.00  0.00     0.074 A 
HETATM   23 CL1  UNL     1      30.148   0.210  53.978  1.00  0.00    -0.081 Cl
HETATM   24  C12 UNL     1      27.424   0.141  53.790  1.00  0.00     0.056 A 
ENDBRANCH  15  17
ENDBRANCH   8  15
BRANCH  11  25
HETATM   25  N4  UNL     1      24.136   3.188  50.143  1.00  0.00    -0.382 N 
HETATM   26  C16 UNL     1      23.720   4.015  49.040  1.00  0.00     0.123 C 
HETATM   27  C17 UNL     1      24.317   5.401  49.240  1.00  0.00     0.020 C 
HETATM   28  C18 UNL     1      25.822   5.267  49.221  1.00  0.00     0.003 C 
HETATM   29  C19 UNL     1      26.317   3.870  49.395  1.00  0.00     0.020 C 
HETATM   30  C20 UNL     1      25.559   3.055  50.395  1.00  0.00     0.123 C 
ENDBRANCH  11  25
TORSDOF 3
ENDMDL
MODEL 2
REMARK VINA RESULT:      -9.5      2.434      3.911
REMARK  3 active torsions:
REMARK  status: ('A' for Active; 'I' for Inactive)
REMARK    1  A    between atoms: C6_8  and  N3_9 
REMARK    2  A    between atoms: N3_9  and  C7_10 
REMARK    3  A    between atoms: C15_20  and  N4_21 
ROOT
HETATM    1  C1  UNL     1      21.871   4.731  46.721  1.00  0.00     0.046 C 
HETATM    2  C2  UNL     1      22.384   4.385  48.067  1.00  0.00    -0.058 C 
HETATM    3  C3  UNL     1      22.833   3.116  48.297  1.00  0.00     0.037 C 
HETATM    4  C4  UNL     1      23.378   2.703  49.615  1.00  0.00     0.072 A 
HETATM    5  N1  UNL     1      22.564   1.946  50.348  1.00  0.00    -0.241 NA
HETATM    6  C5  UNL     1      22.891   1.497  51.573  1.00  0.00     0.236 A 
HETATM    7  N2  UNL     1      24.077   1.801  52.112  1.00  0.00    -0.224 NA
HETATM    8  C6  UNL     1      24.907   2.563  51.383  1.00  0.00     0.142 A 
HETATM    9  C13 UNL     1      24.644   3.061  50.122  1.00  0.00     0.041 A 
HETATM   10  C14 UNL     1      25.789   3.881  49.565  1.00  0.00     0.045 C 
HETATM   11  C15 UNL     1      25.648   5.148  48.993  1.00  0.00     0.032 C 
HETATM   12  C21 UNL     1      24.344   5.598  49.044  1.00  0.00     0.224 C 
HETATM   13  O1  UNL     1      23.252   6.326  49.284  1.00  0.00    -0.381 OA
HETATM   14  C22 UNL     1      22.354   5.165  49.268  1.00  0.00     0.202 C 
ENDROOT
BRANCH   8  15
HETATM   15  N3  UNL     1      26.129   2.833  52.050  1.00  0.00    -0.340 N 
HETATM   16  H6  UNL     1      26.432   3.831  52.175  1.00  0.00     0.167 HD
BRANCH  15  17
HETATM   17  C7  UNL     1      27.036   1.900  52.599  1.00  0.00     0.035 A 
HETATM   18  C8  UNL     1      28.193   2.126  53.307  1.00  0.00     0.032 A 
HETATM   19  C9  UNL     1      29.053   1.183  53.799  1.00  0.00     0.046 A 
HETATM   20  C10 UNL     1      28.745  -0.126  53.575  1.00  0.00     0.138 A 
HETATM   21  F1  UNL     1      29.557  -1.105  54.036  1.00  0.00    -0.204 F 
HETATM   22  C11 UNL     1      27.611  -0.467  52.879  1.00  0.00     0.074 A 
HETATM   23 CL1  UNL     1      27.258  -2.158  52.617  1.00  0.00    -0.081 Cl
HETATM   24  C12 UNL     1      26.805   0.528  52.420  1.00  0.00     0.056 A 
ENDBRANCH  15  17
ENDBRANCH   8  15
BRANCH  11  25
HETATM   25  N4  UNL     1      26.757   5.823  48.503  1.00  0.00    -0.382 N 
HETATM   26  C16 UNL     1      26.796   7.159  47.969  1.00  0.00     0.123 C 
HETATM   27  C17 UNL     1      27.824   7.953  48.762  1.00  0.00     0.020 C 
HETATM   28  C18 UNL     1      29.172   7.299  48.565  1.00  0.00     0.003 C 
HETATM   29  C19 UNL     1      29.108   5.916  48.008  1.00  0.00     0.020 C 
HETATM   30  C20 UNL     1      27.998   5.072  48.549  1.00  0.00     0.123 C 
ENDBRANCH  11  25
TORSDOF 3
ENDMDL
MODEL 3
REMARK VINA RESULT:      -9.5      1.893      4.942
REMARK  3 active torsions:
REMARK  status: ('A' for Active; 'I' for Inactive)
REMARK    1  A    between atoms: C6_8  and  N3_9 
REMARK    2  A    between atoms: N3_9  and  C7_10 
REMARK    3  A    between atoms: C15_20  and  N4_21 
ROOT
HETATM    1  C1  UNL     1      21.181   4.445  47.833  1.00  0.00     0.046 C 
HETATM    2  C2  UNL     1      22.363   3.759  48.405  1.00  0.00    -0.058 C 
HETATM    3  C3  UNL     1      23.208   4.462  49.215  1.00  0.00     0.037 C 
HETATM    4  C4  UNL     1      24.401   3.836  49.839  1.00  0.00     0.072 A 
HETATM    5  N1  UNL     1      25.565   4.165  49.282  1.00  0.00    -0.241 NA
HETATM    6  C5  UNL     1      26.743   3.677  49.710  1.00  0.00     0.236 A 
HETATM    7  N2  UNL     1      26.789   2.822  50.738  1.00  0.00    -0.224 NA
HETATM    8  C6  UNL     1      25.622   2.482  51.309  1.00  0.00     0.142 A 
HETATM    9  C13 UNL     1      24.376   2.939  50.927  1.00  0.00     0.041 A 
HETATM   10  C14 UNL     1      23.258   2.372  51.777  1.00  0.00     0.045 C 
HETATM   11  C15 UNL     1      22.090   1.800  51.265  1.00  0.00     0.032 C 
HETATM   12  C21 UNL     1      22.094   1.759  49.886  1.00  0.00     0.224 C 
HETATM   13  O1  UNL     1      22.049   1.338  48.620  1.00  0.00    -0.381 OA
HETATM   14  C22 UNL     1      22.867   2.449  48.119  1.00  0.00     0.202 C 
ENDROOT
BRANCH   8  15
HETATM   15  N3  UNL     1      25.784   1.566  52.379  1.00  0.00    -0.340 N 
HETATM   16  H6  UNL     1      24.940   1.273  52.932  1.00  0.00     0.167 HD
BRANCH  15  17
HETATM   17  C7  UNL     1      26.980   0.963  52.824  1.00  0.00     0.035 A 
HETATM   18  C8  UNL     1      28.099   1.549  53.368  1.00  0.00     0.032 A 
HETATM   19  C9  UNL     1      29.247   0.920  53.763  1.00  0.00     0.046 A 
HETATM   20  C10 UNL     1      29.306  -0.433  53.610  1.00  0.00     0.138 A 
HETATM   21  F1  UNL     1      30.416  -1.113  53.981  1.00  0.00    -0.204 F 
HETATM   22  C11 UNL     1      28.244  -1.122  53.077  1.00  0.00     0.074 A 
HETATM   23 CL1  UNL     1      28.367  -2.857  52.900  1.00  0.00    -0.081 Cl
HETATM   24  C12 UNL     1      27.136  -0.426  52.706  1.00  0.00     0.056 A 
ENDBRANCH  15  17
ENDBRANCH   8  15
BRANCH  11  25
HETATM   25  N4  UNL     1      21.116   1.311  52.124  1.00  0.00    -0.382 N 
HETATM   26  C16 UNL     1      19.689   1.444  51.986  1.00  0.00     0.123 C 
HETATM   27  C17 UNL     1      19.083   0.048  52.002  1.00  0.00     0.020 C 
HETATM   28  C18 UNL     1      19.397  -0.582  53.338  1.00  0.00     0.003 C 
HETATM   29  C19 UNL     1      20.476   0.108  54.104  1.00  0.00     0.020 C 
HETATM   30  C20 UNL     1      21.624   0.589  53.277  1.00  0.00     0.123 C 
ENDBRANCH  11  25
TORSDOF 3
ENDMDL
MODEL 4
REMARK VINA RESULT:      -9.4      1.616      2.171
REMARK  3 active torsions:
REMARK  status: ('A' for Active; 'I' for Inactive)
REMARK    1  A    between atoms: C6_8  and  N3_9 
REMARK    2  A    between atoms: N3_9  and  C7_10 
REMARK    3  A    between atoms: C15_20  and  N4_21 
ROOT
HETATM    1  C1  UNL     1      20.347   2.528  48.560  1.00  0.00     0.046 C 
HETATM    2  C2  UNL     1      21.141   2.403  49.805  1.00  0.00    -0.058 C 
HETATM    3  C3  UNL     1      21.854   1.258  50.022  1.00  0.00     0.037 C 
HETATM    4  C4  UNL     1      22.687   1.070  51.237  1.00  0.00     0.072 A 
HETATM    5  N1  UNL     1      22.170   0.255  52.153  1.00  0.00    -0.241 NA
HETATM    6  C5  UNL     1      22.783  -0.015  53.319  1.00  0.00     0.236 A 
HETATM    7  N2  UNL     1      23.966   0.540  53.607  1.00  0.00    -0.224 NA
HETATM    8  C6  UNL     1      24.499   1.364  52.691  1.00  0.00     0.142 A 
HETATM    9  C13 UNL     1      23.932   1.689  51.475  1.00  0.00     0.041 A 
HETATM   10  C14 UNL     1      24.788   2.640  50.665  1.00  0.00     0.045 C 
HETATM   11  C15 UNL     1      24.314   3.805  50.055  1.00  0.00     0.032 C 
HETATM   12  C21 UNL     1      22.978   4.023  50.322  1.00  0.00     0.224 C 
HETATM   13  O1  UNL     1      21.827   4.570  50.719  1.00  0.00    -0.381 OA
HETATM   14  C22 UNL     1      21.174   3.274  50.941  1.00  0.00     0.202 C 
ENDROOT
BRANCH   8  15
HETATM   15  N3  UNL     1      25.745   1.903  53.100  1.00  0.00    -0.340 N 
HETATM   16  H6  UNL     1      25.823   2.937  53.266  1.00  0.00     0.167 HD
BRANCH  15  17
HETATM   17  C7  UNL     1      26.952   1.207  53.330  1.00  0.00     0.035 A 
HETATM   18  C8  UNL     1      28.153   1.683  53.801  1.00  0.00     0.032 A 
HETATM   19  C9  UNL     1      29.305   0.969  53.984  1.00  0.00     0.046 A 
HETATM   20  C10 UNL     1      29.278  -0.358  53.673  1.00  0.00     0.138 A 
HETATM   21  F1  UNL     1      30.386  -1.118  53.831  1.00  0.00    -0.204 F 
HETATM   22  C11 UNL     1      28.128  -0.939  53.194  1.00  0.00     0.074 A 
HETATM   23 CL1  UNL     1      28.142  -2.644  52.809  1.00  0.00    -0.081 Cl
HETATM   24  C12 UNL     1      27.022  -0.163  53.038  1.00  0.00     0.056 A 
ENDBRANCH  15  17
ENDBRANCH   8  15
BRANCH  11  25
HETATM   25  N4  UNL     1      25.174   4.614  49.326  1.00  0.00    -0.382 N 
HETATM   26  C16 UNL     1      24.829   5.784  48.562  1.00  0.00     0.123 C 
HETATM   27  C17 UNL     1      25.667   6.946  49.075  1.00  0.00     0.020 C 
HETATM   28  C18 UNL     1      27.122   6.610  48.842  1.00  0.00     0.003 C 
HETATM   29  C19 UNL     1      27.381   5.170  48.551  1.00  0.00     0.020 C 
HETATM   30  C20 UNL     1      26.568   4.210  49.360  1.00  0.00     0.123 C 
ENDBRANCH  11  25
TORSDOF 3
ENDMDL
MODEL 5
REMARK VINA RESULT:      -9.3      2.291      3.554
REMARK  3 active torsions:
REMARK  status: ('A' for Active; 'I' for Inactive)
REMARK    1  A    between atoms: C6_8  and  N3_9 
REMARK    2  A    between atoms: N3_9  and  C7_10 
REMARK    3  A    between atoms: C15_20  and  N4_21 
ROOT
HETATM    1  C1  UNL     1      21.915   3.608  45.612  1.00  0.00     0.046 C 
HETATM    2  C2  UNL     1      21.819   3.347  47.068  1.00  0.00    -0.058 C 
HETATM    3  C3  UNL     1      22.195   2.124  47.546  1.00  0.00     0.037 C 
HETATM    4  C4  UNL     1      22.144   1.799  48.995  1.00  0.00     0.072 A 
HETATM    5  N1  UNL     1      21.137   1.008  49.358  1.00  0.00    -0.241 NA
HETATM    6  C5  UNL     1      20.931   0.626  50.631  1.00  0.00     0.236 A 
HETATM    7  N2  UNL     1      21.752   1.038  51.603  1.00  0.00    -0.224 NA
HETATM    8  C6  UNL     1      22.773   1.836  51.249  1.00  0.00     0.142 A 
HETATM    9  C13 UNL     1      23.049   2.270  49.968  1.00  0.00     0.041 A 
HETATM   10  C14 UNL     1      24.275   3.155  49.901  1.00  0.00     0.045 C 
HETATM   11  C15 UNL     1      24.324   4.388  49.244  1.00  0.00     0.032 C 
HETATM   12  C21 UNL     1      23.102   4.738  48.707  1.00  0.00     0.224 C 
HETATM   13  O1  UNL     1      21.974   5.389  48.413  1.00  0.00    -0.381 OA
HETATM   14  C22 UNL     1      21.235   4.163  48.089  1.00  0.00     0.202 C 
ENDROOT
BRANCH   8  15
HETATM   15  N3  UNL     1      23.573   2.221  52.355  1.00  0.00    -0.340 N 
HETATM   16  H6  UNL     1      23.369   3.129  52.841  1.00  0.00     0.167 HD
BRANCH  15  17
HETATM   17  C7  UNL     1      24.658   1.516  52.921  1.00  0.00     0.035 A 
HETATM   18  C8  UNL     1      24.695   0.236  53.423  1.00  0.00     0.032 A 
HETATM   19  C9  UNL     1      25.770  -0.396  53.984  1.00  0.00     0.046 A 
HETATM   20  C10 UNL     1      26.939   0.301  54.060  1.00  0.00     0.138 A 
HETATM   21  F1  UNL     1      28.039  -0.269  54.606  1.00  0.00    -0.204 F 
HETATM   22  C11 UNL     1      27.016   1.589  53.588  1.00  0.00     0.074 A 
HETATM   23 CL1  UNL     1      28.536   2.443  53.708  1.00  0.00    -0.081 Cl
HETATM   24  C12 UNL     1      25.903   2.150  53.043  1.00  0.00     0.056 A 
ENDBRANCH  15  17
ENDBRANCH   8  15
BRANCH  11  25
HETATM   25  N4  UNL     1      25.497   5.128  49.231  1.00  0.00    -0.382 N 
HETATM   26  C16 UNL     1      26.795   4.709  49.691  1.00  0.00     0.123 C 
HETATM   27  C17 UNL     1      27.777   4.869  48.540  1.00  0.00     0.020 C 
HETATM   28  C18 UNL     1      27.829   6.334  48.171  1.00  0.00     0.003 C 
HETATM   29  C19 UNL     1      26.702   7.145  48.717  1.00  0.00     0.020 C 
HETATM   30  C20 UNL     1      25.369   6.468  48.685  1.00  0.00     0.123 C 
ENDBRANCH  11  25
TORSDOF 3
ENDMDL
MODEL 6
REMARK VINA RESULT:      -8.7      2.647      4.433
REMARK  3 active torsions:
REMARK  status: ('A' for Active; 'I' for Inactive)
REMARK    1  A    between atoms: C6_8  and  N3_9 
REMARK    2  A    between atoms: N3_9  and  C7_10 
REMARK    3  A    between atoms: C15_20  and  N4_21 
ROOT
HETATM    1  C1  UNL     1      22.158   7.891  49.227  1.00  0.00     0.046 C 
HETATM    2  C2  UNL     1      22.786   6.747  49.928  1.00  0.00    -0.058 C 
HETATM    3  C3  UNL     1      22.577   5.485  49.450  1.00  0.00     0.037 C 
HETATM    4  C4  UNL     1      23.189   4.292  50.089  1.00  0.00     0.072 A 
HETATM    5  N1  UNL     1      22.354   3.552  50.815  1.00  0.00    -0.241 NA
HETATM    6  C5  UNL     1      22.744   2.447  51.475  1.00  0.00     0.236 A 
HETATM    7  N2  UNL     1      24.018   2.041  51.423  1.00  0.00    -0.224 NA
HETATM    8  C6  UNL     1      24.870   2.779  50.694  1.00  0.00     0.142 A 
HETATM    9  C13 UNL     1      24.547   3.922  49.991  1.00  0.00     0.041 A 
HETATM   10  C14 UNL     1      25.734   4.518  49.264  1.00  0.00     0.045 C 
HETATM   11  C15 UNL     1      26.094   5.868  49.315  1.00  0.00     0.032 C 
HETATM   12  C21 UNL     1      25.274   6.592  50.156  1.00  0.00     0.224 C 
HETATM   13  O1  UNL     1      24.821   7.373  51.139  1.00  0.00    -0.381 OA
HETATM   14  C22 UNL     1      23.499   6.736  51.169  1.00  0.00     0.202 C 
ENDROOT
BRANCH   8  15
HETATM   15  N3  UNL     1      26.193   2.266  50.715  1.00  0.00    -0.340 N 
HETATM   16  H6  UNL     1      26.835   2.481  49.913  1.00  0.00     0.167 HD
BRANCH  15  17
HETATM   17  C7  UNL     1      26.793   1.471  51.716  1.00  0.00     0.035 A 
HETATM   18  C8  UNL     1      26.587   0.143  52.010  1.00  0.00     0.032 A 
HETATM   19  C9  UNL     1      27.180  -0.578  53.009  1.00  0.00     0.046 A 
HETATM   20  C10 UNL     1      28.073   0.071  53.808  1.00  0.00     0.138 A 
HETATM   21  F1  UNL     1      28.692  -0.588  54.816  1.00  0.00    -0.204 F 
HETATM   22  C11 UNL     1      28.355   1.400  53.603  1.00  0.00     0.074 A 
HETATM   23 CL1  UNL     1      29.507   2.190  54.654  1.00  0.00    -0.081 Cl
HETATM   24  C12 UNL     1      27.725   2.051  52.589  1.00  0.00     0.056 A 
ENDBRANCH  15  17
ENDBRANCH   8  15
BRANCH  11  25
HETATM   25  N4  UNL     1      27.197   6.325  48.609  1.00  0.00    -0.382 N 
HETATM   26  C16 UNL     1      27.355   7.610  47.979  1.00  0.00     0.123 C 
HETATM   27  C17 UNL     1      28.612   8.259  48.540  1.00  0.00     0.020 C 
HETATM   28  C18 UNL     1      29.789   7.381  48.183  1.00  0.00     0.003 C 
HETATM   29  C19 UNL     1      29.418   6.004  47.746  1.00  0.00     0.020 C 
HETATM   30  C20 UNL     1      28.297   5.381  48.515  1.00  0.00     0.123 C 
ENDBRANCH  11  25
TORSDOF 3
ENDMDL
MODEL 7
REMARK VINA RESULT:      -8.7      1.519      1.848
REMARK  3 active torsions:
REMARK  status: ('A' for Active; 'I' for Inactive)
REMARK    1  A    between atoms: C6_8  and  N3_9 
REMARK    2  A    between atoms: N3_9  and  C7_10 
REMARK    3  A    between atoms: C15_20  and  N4_21 
ROOT
HETATM    1  C1  UNL     1      18.299  -0.303  52.091  1.00  0.00     0.046 C 
HETATM    2  C2  UNL     1      19.583  -0.068  52.791  1.00  0.00    -0.058 C 
HETATM    3  C3  UNL     1      20.553  -1.028  52.732  1.00  0.00     0.037 C 
HETATM    4  C4  UNL     1      21.871  -0.853  53.393  1.00  0.00     0.072 A 
HETATM    5  N1  UNL     1      22.035  -1.551  54.515  1.00  0.00    -0.241 NA
HETATM    6  C5  UNL     1      23.160  -1.500  55.249  1.00  0.00     0.236 A 
HETATM    7  N2  UNL     1      24.183  -0.726  54.869  1.00  0.00    -0.224 NA
HETATM    8  C6  UNL     1      24.030  -0.016  53.739  1.00  0.00     0.142 A 
HETATM    9  C13 UNL     1      22.909  -0.017  52.933  1.00  0.00     0.041 A 
HETATM   10  C14 UNL     1      23.055   0.886  51.726  1.00  0.00     0.045 C 
HETATM   11  C15 UNL     1      22.103   1.828  51.325  1.00  0.00     0.032 C 
HETATM   12  C21 UNL     1      21.031   1.884  52.193  1.00  0.00     0.224 C 
HETATM   13  O1  UNL     1      20.104   2.312  53.053  1.00  0.00    -0.381 OA
HETATM   14  C22 UNL     1      19.939   0.996  53.682  1.00  0.00     0.202 C 
ENDROOT
BRANCH   8  15
HETATM   15  N3  UNL     1      25.167   0.776  53.434  1.00  0.00    -0.340 N 
HETATM   16  H6  UNL     1      25.028   1.776  53.145  1.00  0.00     0.167 HD
BRANCH  15  17
HETATM   17  C7  UNL     1      26.523   0.386  53.468  1.00  0.00     0.035 A 
HETATM   18  C8  UNL     1      27.097  -0.801  53.076  1.00  0.00     0.032 A 
HETATM   19  C9  UNL     1      28.419  -1.139  53.152  1.00  0.00     0.046 A 
HETATM   20  C10 UNL     1      29.276  -0.212  53.668  1.00  0.00     0.138 A 
HETATM   21  F1  UNL     1      30.597  -0.489  53.771  1.00  0.00    -0.204 F 
HETATM   22  C11 UNL     1      28.811   1.009  54.091  1.00  0.00     0.074 A 
HETATM   23 CL1  UNL     1      29.948   2.165  54.744  1.00  0.00    -0.081 Cl
HETATM   24  C12 UNL     1      27.481   1.272  53.983  1.00  0.00     0.056 A 
ENDBRANCH  15  17
ENDBRANCH   8  15
BRANCH  11  25
HETATM   25  N4  UNL     1      22.321   2.608  50.199  1.00  0.00    -0.382 N 
HETATM   26  C16 UNL     1      21.357   2.973  49.194  1.00  0.00     0.123 C 
HETATM   27  C17 UNL     1      21.330   4.492  49.097  1.00  0.00     0.020 C 
HETATM   28  C18 UNL     1      22.700   4.957  48.665  1.00  0.00     0.003 C 
HETATM   29  C19 UNL     1      23.772   3.928  48.809  1.00  0.00     0.020 C 
HETATM   30  C20 UNL     1      23.680   3.095  50.047  1.00  0.00     0.123 C 
ENDBRANCH  11  25
TORSDOF 3
ENDMDL
MODEL 8
REMARK VINA RESULT:      -8.4      2.575      5.522
REMARK  3 active torsions:
REMARK  status: ('A' for Active; 'I' for Inactive)
REMARK    1  A    between atoms: C6_8  and  N3_9 
REMARK    2  A    between atoms: N3_9  and  C7_10 
REMARK    3  A    between atoms: C15_20  and  N4_21 
ROOT
HETATM    1  C1  UNL     1      20.329   3.793  46.394  1.00  0.00     0.046 C 
HETATM    2  C2  UNL     1      21.536   3.687  47.245  1.00  0.00    -0.058 C 
HETATM    3  C3  UNL     1      21.941   4.780  47.958  1.00  0.00     0.037 C 
HETATM    4  C4  UNL     1      23.130   4.741  48.847  1.00  0.00     0.072 A 
HETATM    5  N1  UNL     1      24.210   5.353  48.367  1.00  0.00    -0.241 NA
HETATM    6  C5  UNL     1      25.378   5.400  49.033  1.00  0.00     0.236 A 
HETATM    7  N2  UNL     1      25.498   4.821  50.232  1.00  0.00    -0.224 NA
HETATM    8  C6  UNL     1      24.415   4.201  50.728  1.00  0.00     0.142 A 
HETATM    9  C13 UNL     1      23.186   4.110  50.107  1.00  0.00     0.041 A 
HETATM   10  C14 UNL     1      22.167   3.350  50.931  1.00  0.00     0.045 C 
HETATM   11  C15 UNL     1      21.363   2.318  50.438  1.00  0.00     0.032 C 
HETATM   12  C21 UNL     1      21.643   2.029  49.118  1.00  0.00     0.224 C 
HETATM   13  O1  UNL     1      21.977   1.395  47.991  1.00  0.00    -0.381 OA
HETATM   14  C22 UNL     1      22.477   2.612  47.339  1.00  0.00     0.202 C 
ENDROOT
BRANCH   8  15
HETATM   15  N3  UNL     1      24.654   3.614  51.997  1.00  0.00    -0.340 N 
HETATM   16  H6  UNL     1      24.454   4.174  52.863  1.00  0.00     0.167 HD
BRANCH  15  17
HETATM   17  C7  UNL     1      25.145   2.318  52.268  1.00  0.00     0.035 A 
HETATM   18  C8  UNL     1      26.301   1.717  51.828  1.00  0.00     0.032 A 
HETATM   19  C9  UNL     1      26.722   0.446  52.103  1.00  0.00     0.046 A 
HETATM   20  C10 UNL     1      25.923  -0.323  52.897  1.00  0.00     0.138 A 
HETATM   21  F1  UNL     1      26.284  -1.591  53.203  1.00  0.00    -0.204 F 
HETATM   22  C11 UNL     1      24.744   0.178  53.393  1.00  0.00     0.074 A 
HETATM   23 CL1  UNL     1      23.754  -0.845  54.407  1.00  0.00    -0.081 Cl
HETATM   24  C12 UNL     1      24.393   1.452  53.076  1.00  0.00     0.056 A 
ENDBRANCH  15  17
ENDBRANCH   8  15
BRANCH  11  25
HETATM   25  N4  UNL     1      20.452   1.683  51.268  1.00  0.00    -0.382 N 
HETATM   26  C16 UNL     1      19.097   2.084  51.541  1.00  0.00     0.123 C 
HETATM   27  C17 UNL     1      18.181   0.919  51.195  1.00  0.00     0.020 C 
HETATM   28  C18 UNL     1      18.546  -0.243  52.089  1.00  0.00     0.003 C 
HETATM   29  C19 UNL     1      19.869  -0.106  52.766  1.00  0.00     0.020 C 
HETATM   30  C20 UNL     1      20.950   0.483  51.917  1.00  0.00     0.123 C 
ENDBRANCH  11  25
TORSDOF 3
ENDMDL
MODEL 9
REMARK VINA RESULT:      -8.4      3.959      6.153
REMARK  3 active torsions:
REMARK  status: ('A' for Active; 'I' for Inactive)
REMARK    1  A    between atoms: C6_8  and  N3_9 
REMARK    2  A    between atoms: N3_9  and  C7_10 
REMARK    3  A    between atoms: C15_20  and  N4_21 
ROOT
HETATM    1  C1  UNL     1      20.458   2.339  52.512  1.00  0.00     0.046 C 
HETATM    2  C2  UNL     1      21.846   2.765  52.216  1.00  0.00    -0.058 C 
HETATM    3  C3  UNL     1      22.769   1.818  51.877  1.00  0.00     0.037 C 
HETATM    4  C4  UNL     1      24.173   2.172  51.548  1.00  0.00     0.072 A 
HETATM    5  N1  UNL     1      25.061   1.892  52.499  1.00  0.00    -0.241 NA
HETATM    6  C5  UNL     1      26.373   2.161  52.376  1.00  0.00     0.236 A 
HETATM    7  N2  UNL     1      26.845   2.734  51.263  1.00  0.00    -0.224 NA
HETATM    8  C6  UNL     1      25.960   3.022  50.296  1.00  0.00     0.142 A 
HETATM    9  C13 UNL     1      24.602   2.777  50.349  1.00  0.00     0.041 A 
HETATM   10  C14 UNL     1      23.879   3.213  49.092  1.00  0.00     0.045 C 
HETATM   11  C15 UNL     1      22.715   3.987  49.078  1.00  0.00     0.032 C 
HETATM   12  C21 UNL     1      22.327   4.361  50.349  1.00  0.00     0.224 C 
HETATM   13  O1  UNL     1      21.983   5.078  51.421  1.00  0.00    -0.381 OA
HETATM   14  C22 UNL     1      22.441   4.058  52.372  1.00  0.00     0.202 C 
ENDROOT
BRANCH   8  15
HETATM   15  N3  UNL     1      26.563   3.635  49.168  1.00  0.00    -0.340 N 
HETATM   16  H6  UNL     1      26.791   3.045  48.329  1.00  0.00     0.167 HD
BRANCH  15  17
HETATM   17  C7  UNL     1      26.913   4.993  49.009  1.00  0.00     0.035 A 
HETATM   18  C8  UNL     1      28.034   5.539  48.427  1.00  0.00     0.032 A 
HETATM   19  C9  UNL     1      28.338   6.868  48.319  1.00  0.00     0.046 A 
HETATM   20  C10 UNL     1      27.447   7.761  48.836  1.00  0.00     0.138 A 
HETATM   21  F1  UNL     1      27.693   9.090  48.760  1.00  0.00    -0.204 F 
HETATM   22  C11 UNL     1      26.293   7.325  49.440  1.00  0.00     0.074 A 
HETATM   23 CL1  UNL     1      25.181   8.508  50.088  1.00  0.00    -0.081 Cl
HETATM   24  C12 UNL     1      26.060   5.987  49.510  1.00  0.00     0.056 A 
ENDBRANCH  15  17
ENDBRANCH   8  15
BRANCH  11  25
HETATM   25  N4  UNL     1      22.118   4.333  47.875  1.00  0.00    -0.382 N 
HETATM   26  C16 UNL     1      21.679   5.642  47.467  1.00  0.00     0.123 C 
HETATM   27  C17 UNL     1      22.368   5.982  46.154  1.00  0.00     0.020 C 
HETATM   28  C18 UNL     1      21.934   4.967  45.122  1.00  0.00     0.003 C 
HETATM   29  C19 UNL     1      21.296   3.745  45.693  1.00  0.00     0.020 C 
HETATM   30  C20 UNL     1      21.932   3.233  46.947  1.00  0.00     0.123 C 
ENDBRANCH  11  25
TORSDOF 3
ENDMDL
