MODEL 1
REMARK VINA RESULT:      -8.9      0.000      0.000
REMARK  6 active torsions:
REMARK  status: ('A' for Active; 'I' for Inactive)
REMARK    1  A    between atoms: C5_7  and  N3_8 
REMARK    2  A    between atoms: N3_8  and  C6_9 
REMARK    3  A    between atoms: C13_18  and  O1_19 
REMARK    4  A    between atoms: O1_19  and  C14_20 
REMARK    5  A    between atoms: N4_23  and  S1_24 
REMARK    6  A    between atoms: C19_29  and  O4_30 
ROOT
HETATM    1  C1  UNL     1      19.206  -0.178  52.713  1.00  0.00     0.054 C 
HETATM    2  C2  UNL     1      20.670  -0.178  52.805  1.00  0.00     0.002 A 
HETATM    3  C3  UNL     1      21.520  -0.585  53.721  1.00  0.00     0.083 A 
HETATM    4  N1  UNL     1      21.678  -1.145  54.922  1.00  0.00    -0.240 NA
HETATM    5  C4  UNL     1      22.918  -1.350  55.435  1.00  0.00     0.236 A 
HETATM    6  N2  UNL     1      23.982  -0.977  54.711  1.00  0.00    -0.223 NA
HETATM    7  C5  UNL     1      23.934  -0.408  53.499  1.00  0.00     0.144 A 
HETATM    8  C12 UNL     1      22.658  -0.228  53.036  1.00  0.00     0.073 A 
HETATM    9  C13 UNL     1      21.838   0.207  52.062  1.00  0.00     0.094 A 
ENDROOT
BRANCH   9  10
HETATM   10  O1  UNL     1      22.057   0.795  50.826  1.00  0.00    -0.342 OA
BRANCH  10  11
HETATM   11  C14 UNL     1      22.715   2.046  50.794  1.00  0.00     0.161 C 
HETATM   12  C15 UNL     1      23.045   2.473  49.380  1.00  0.00     0.055 C 
HETATM   13  C16 UNL     1      23.947   3.674  49.533  1.00  0.00     0.137 C 
HETATM   14  N4  UNL     1      23.236   4.743  50.120  1.00  0.00    -0.308 N 
HETATM   15  C18 UNL     1      22.378   4.505  51.201  1.00  0.00     0.169 C 
HETATM   16  C19 UNL     1      21.909   3.133  51.445  1.00  0.00     0.166 C 
BRANCH  14  17
HETATM   17  S1  UNL     1      24.137   6.198  50.216  1.00  0.00     0.224 S 
HETATM   18  C17 UNL     1      25.787   5.986  49.595  1.00  0.00     0.186 C 
HETATM   19  O2  UNL     1      24.165   6.750  51.612  1.00  0.00    -0.206 OA
HETATM   20  O3  UNL     1      23.454   7.231  49.352  1.00  0.00    -0.206 OA
ENDBRANCH  14  17
BRANCH  16  21
HETATM   21  O4  UNL     1      20.619   3.034  50.868  1.00  0.00    -0.391 OA
HETATM   22  H20 UNL     1      20.403   3.951  50.566  1.00  0.00     0.210 HD
ENDBRANCH  16  21
ENDBRANCH  10  11
ENDBRANCH   9  10
BRANCH   7  23
HETATM   23  N3  UNL     1      25.032  -0.002  52.703  1.00  0.00    -0.340 N 
HETATM   24  H5  UNL     1      24.813   0.500  51.808  1.00  0.00     0.167 HD
BRANCH  23  25
HETATM   25  C6  UNL     1      26.408  -0.189  52.972  1.00  0.00     0.035 A 
HETATM   26  C7  UNL     1      27.115  -1.356  52.796  1.00  0.00     0.032 A 
HETATM   27  C8  UNL     1      28.456  -1.534  53.059  1.00  0.00     0.046 A 
HETATM   28  C9  UNL     1      29.174  -0.461  53.540  1.00  0.00     0.138 A 
HETATM   29  F1  UNL     1      30.493  -0.588  53.813  1.00  0.00    -0.204 F 
HETATM   30  C10 UNL     1      28.518   0.734  53.737  1.00  0.00     0.074 A 
HETATM   31 CL1  UNL     1      29.408   2.104  54.345  1.00  0.00    -0.081 Cl
HETATM   32  C11 UNL     1      27.177   0.847  53.455  1.00  0.00     0.056 A 
ENDBRANCH  23  25
ENDBRANCH   7  23
TORSDOF 6
ENDMDL
MODEL 2
REMARK VINA RESULT:      -8.9      3.213      4.992
REMARK  6 active torsions:
REMARK  status: ('A' for Active; 'I' for Inactive)
REMARK    1  A    between atoms: C5_7  and  N3_8 
REMARK    2  A    between atoms: N3_8  and  C6_9 
REMARK    3  A    between atoms: C13_18  and  O1_19 
REMARK    4  A    between atoms: O1_19  and  C14_20 
REMARK    5  A    between atoms: N4_23  and  S1_24 
REMARK    6  A    between atoms: C19_29  and  O4_30 
ROOT
HETATM    1  C1  UNL     1      22.771   4.144  47.973  1.00  0.00     0.054 C 
HETATM    2  C2  UNL     1      23.608   3.769  49.118  1.00  0.00     0.002 A 
HETATM    3  C3  UNL     1      23.351   3.239  50.293  1.00  0.00     0.083 A 
HETATM    4  N1  UNL     1      22.416   2.769  51.122  1.00  0.00    -0.240 NA
HETATM    5  C4  UNL     1      22.750   2.295  52.349  1.00  0.00     0.236 A 
HETATM    6  N2  UNL     1      24.040   2.308  52.712  1.00  0.00    -0.223 NA
HETATM    7  C5  UNL     1      25.054   2.756  51.959  1.00  0.00     0.144 A 
HETATM    8  C12 UNL     1      24.654   3.221  50.735  1.00  0.00     0.073 A 
HETATM    9  C13 UNL     1      24.979   3.764  49.548  1.00  0.00     0.094 A 
ENDROOT
BRANCH   9  10
HETATM   10  O1  UNL     1      26.180   4.158  48.979  1.00  0.00    -0.342 OA
BRANCH  10  11
HETATM   11  C14 UNL     1      26.378   5.537  48.734  1.00  0.00     0.161 C 
HETATM   12  C15 UNL     1      26.055   6.377  49.951  1.00  0.00     0.055 C 
HETATM   13  C16 UNL     1      26.071   7.803  49.458  1.00  0.00     0.137 C 
HETATM   14  N4  UNL     1      27.376   8.163  49.056  1.00  0.00    -0.308 N 
HETATM   15  C18 UNL     1      28.150   7.269  48.306  1.00  0.00     0.169 C 
HETATM   16  C19 UNL     1      27.781   5.845  48.299  1.00  0.00     0.166 C 
BRANCH  14  17
HETATM   17  S1  UNL     1      27.527   9.810  48.603  1.00  0.00     0.224 S 
HETATM   18  C17 UNL     1      27.139  10.052  46.888  1.00  0.00     0.186 C 
HETATM   19  O2  UNL     1      28.890  10.356  48.919  1.00  0.00    -0.206 OA
HETATM   20  O3  UNL     1      26.537  10.612  49.412  1.00  0.00    -0.206 OA
ENDBRANCH  14  17
BRANCH  16  21
HETATM   21  O4  UNL     1      28.613   5.203  49.249  1.00  0.00    -0.391 OA
HETATM   22  H20 UNL     1      28.301   5.536  50.127  1.00  0.00     0.210 HD
ENDBRANCH  16  21
ENDBRANCH  10  11
ENDBRANCH   9  10
BRANCH   7  23
HETATM   23  N3  UNL     1      26.425   2.786  52.306  1.00  0.00    -0.340 N 
HETATM   24  H5  UNL     1      26.909   3.717  52.263  1.00  0.00     0.167 HD
BRANCH  23  25
HETATM   25  C6  UNL     1      27.237   1.700  52.712  1.00  0.00     0.035 A 
HETATM   26  C7  UNL     1      28.435   1.791  53.382  1.00  0.00     0.032 A 
HETATM   27  C8  UNL     1      29.221   0.731  53.776  1.00  0.00     0.046 A 
HETATM   28  C9  UNL     1      28.789  -0.544  53.484  1.00  0.00     0.138 A 
HETATM   29  F1  UNL     1      29.528  -1.617  53.850  1.00  0.00    -0.204 F 
HETATM   30  C10 UNL     1      27.596  -0.697  52.813  1.00  0.00     0.074 A 
HETATM   31 CL1  UNL     1      27.031  -2.303  52.434  1.00  0.00    -0.081 Cl
HETATM   32  C11 UNL     1      26.856   0.402  52.447  1.00  0.00     0.056 A 
ENDBRANCH  23  25
ENDBRANCH   7  23
TORSDOF 6
ENDMDL
MODEL 3
REMARK VINA RESULT:      -8.9      1.759      2.392
REMARK  6 active torsions:
REMARK  status: ('A' for Active; 'I' for Inactive)
REMARK    1  A    between atoms: C5_7  and  N3_8 
REMARK    2  A    between atoms: N3_8  and  C6_9 
REMARK    3  A    between atoms: C13_18  and  O1_19 
REMARK    4  A    between atoms: O1_19  and  C14_20 
REMARK    5  A    between atoms: N4_23  and  S1_24 
REMARK    6  A    between atoms: C19_29  and  O4_30 
ROOT
HETATM    1  C1  UNL     1      20.200   2.497  51.717  1.00  0.00     0.054 C 
HETATM    2  C2  UNL     1      21.318   1.662  52.169  1.00  0.00     0.002 A 
HETATM    3  C3  UNL     1      21.477   0.828  53.172  1.00  0.00     0.083 A 
HETATM    4  N1  UNL     1      20.923   0.257  54.244  1.00  0.00    -0.240 NA
HETATM    5  C4  UNL     1      21.623  -0.627  55.000  1.00  0.00     0.236 A 
HETATM    6  N2  UNL     1      22.883  -0.914  54.650  1.00  0.00    -0.223 NA
HETATM    7  C5  UNL     1      23.532  -0.399  53.596  1.00  0.00     0.144 A 
HETATM    8  C12 UNL     1      22.775   0.484  52.874  1.00  0.00     0.073 A 
HETATM    9  C13 UNL     1      22.672   1.325  51.829  1.00  0.00     0.094 A 
ENDROOT
BRANCH   9  10
HETATM   10  O1  UNL     1      23.548   1.704  50.823  1.00  0.00    -0.342 OA
BRANCH  10  11
HETATM   11  C14 UNL     1      23.700   3.086  50.562  1.00  0.00     0.161 C 
HETATM   12  C15 UNL     1      23.867   3.884  51.836  1.00  0.00     0.055 C 
HETATM   13  C16 UNL     1      23.764   5.329  51.411  1.00  0.00     0.137 C 
HETATM   14  N4  UNL     1      24.853   5.668  50.579  1.00  0.00    -0.308 N 
HETATM   15  C18 UNL     1      25.272   4.783  49.577  1.00  0.00     0.169 C 
HETATM   16  C19 UNL     1      24.868   3.372  49.662  1.00  0.00     0.166 C 
BRANCH  14  17
HETATM   17  S1  UNL     1      24.900   7.327  50.148  1.00  0.00     0.224 S 
HETATM   18  C17 UNL     1      24.457   7.571  48.446  1.00  0.00     0.186 C 
HETATM   19  O2  UNL     1      26.237   7.945  50.440  1.00  0.00    -0.206 OA
HETATM   20  O3  UNL     1      23.886   8.060  50.992  1.00  0.00    -0.206 OA
ENDBRANCH  14  17
BRANCH  16  21
HETATM   21  O4  UNL     1      25.956   2.669  50.233  1.00  0.00    -0.391 OA
HETATM   22  H20 UNL     1      25.687   2.499  51.170  1.00  0.00     0.210 HD
ENDBRANCH  16  21
ENDBRANCH  10  11
ENDBRANCH   9  10
BRANCH   7  23
HETATM   23  N3  UNL     1      24.860  -0.677  53.193  1.00  0.00    -0.340 N 
HETATM   24  H5  UNL     1      25.027  -1.584  52.692  1.00  0.00     0.167 HD
BRANCH  23  25
HETATM   25  C6  UNL     1      26.006   0.131  53.383  1.00  0.00     0.035 A 
HETATM   26  C7  UNL     1      26.011   1.487  53.612  1.00  0.00     0.032 A 
HETATM   27  C8  UNL     1      27.130   2.269  53.797  1.00  0.00     0.046 A 
HETATM   28  C9  UNL     1      28.365   1.661  53.753  1.00  0.00     0.138 A 
HETATM   29  F1  UNL     1      29.493   2.388  53.929  1.00  0.00    -0.204 F 
HETATM   30  C10 UNL     1      28.422   0.304  53.526  1.00  0.00     0.074 A 
HETATM   31 CL1  UNL     1      29.975  -0.486  53.467  1.00  0.00    -0.081 Cl
HETATM   32  C11 UNL     1      27.268  -0.422  53.349  1.00  0.00     0.056 A 
ENDBRANCH  23  25
ENDBRANCH   7  23
TORSDOF 6
ENDMDL
MODEL 4
REMARK VINA RESULT:      -8.6      2.139      3.375
REMARK  6 active torsions:
REMARK  status: ('A' for Active; 'I' for Inactive)
REMARK    1  A    between atoms: C5_7  and  N3_8 
REMARK    2  A    between atoms: N3_8  and  C6_9 
REMARK    3  A    between atoms: C13_18  and  O1_19 
REMARK    4  A    between atoms: O1_19  and  C14_20 
REMARK    5  A    between atoms: N4_23  and  S1_24 
REMARK    6  A    between atoms: C19_29  and  O4_30 
ROOT
HETATM    1  C1  UNL     1      22.011   1.997  47.953  1.00  0.00     0.054 C 
HETATM    2  C2  UNL     1      22.356   1.817  49.367  1.00  0.00     0.002 A 
HETATM    3  C3  UNL     1      21.709   1.327  50.401  1.00  0.00     0.083 A 
HETATM    4  N1  UNL     1      20.577   0.779  50.848  1.00  0.00    -0.240 NA
HETATM    5  C4  UNL     1      20.441   0.432  52.153  1.00  0.00     0.236 A 
HETATM    6  N2  UNL     1      21.467   0.652  52.986  1.00  0.00    -0.223 NA
HETATM    7  C5  UNL     1      22.643   1.195  52.641  1.00  0.00     0.144 A 
HETATM    8  C12 UNL     1      22.719   1.523  51.314  1.00  0.00     0.073 A 
HETATM    9  C13 UNL     1      23.431   2.035  50.294  1.00  0.00     0.094 A 
ENDROOT
BRANCH   9  10
HETATM   10  O1  UNL     1      24.710   2.563  50.197  1.00  0.00    -0.342 OA
BRANCH  10  11
HETATM   11  C14 UNL     1      24.842   3.913  49.798  1.00  0.00     0.161 C 
HETATM   12  C15 UNL     1      24.370   4.866  50.874  1.00  0.00     0.055 C 
HETATM   13  C16 UNL     1      24.338   6.222  50.211  1.00  0.00     0.137 C 
HETATM   14  N4  UNL     1      25.647   6.623  49.865  1.00  0.00    -0.308 N 
HETATM   15  C18 UNL     1      26.534   5.703  49.291  1.00  0.00     0.169 C 
HETATM   16  C19 UNL     1      26.254   4.266  49.433  1.00  0.00     0.166 C 
BRANCH  14  17
HETATM   17  S1  UNL     1      25.734   8.211  49.224  1.00  0.00     0.224 S 
HETATM   18  C17 UNL     1      26.944   9.192  50.075  1.00  0.00     0.186 C 
HETATM   19  O2  UNL     1      24.397   8.894  49.235  1.00  0.00    -0.206 OA
HETATM   20  O3  UNL     1      26.161   8.111  47.780  1.00  0.00    -0.206 OA
ENDBRANCH  14  17
BRANCH  16  21
HETATM   21  O4  UNL     1      27.043   3.802  50.514  1.00  0.00    -0.391 OA
HETATM   22  H20 UNL     1      27.904   4.282  50.427  1.00  0.00     0.210 HD
ENDBRANCH  16  21
ENDBRANCH  10  11
ENDBRANCH   9  10
BRANCH   7  23
HETATM   23  N3  UNL     1      23.749   1.443  53.488  1.00  0.00    -0.340 N 
HETATM   24  H5  UNL     1      23.587   2.070  54.314  1.00  0.00     0.167 HD
BRANCH  23  25
HETATM   25  C6  UNL     1      25.066   0.941  53.358  1.00  0.00     0.035 A 
HETATM   26  C7  UNL     1      25.410  -0.352  53.034  1.00  0.00     0.032 A 
HETATM   27  C8  UNL     1      26.693  -0.837  52.908  1.00  0.00     0.046 A 
HETATM   28  C9  UNL     1      27.741   0.032  53.118  1.00  0.00     0.138 A 
HETATM   29  F1  UNL     1      29.019  -0.399  53.005  1.00  0.00    -0.204 F 
HETATM   30  C10 UNL     1      27.457   1.339  53.444  1.00  0.00     0.074 A 
HETATM   31 CL1  UNL     1      28.770   2.455  53.714  1.00  0.00    -0.081 Cl
HETATM   32  C11 UNL     1      26.154   1.762  53.556  1.00  0.00     0.056 A 
ENDBRANCH  23  25
ENDBRANCH   7  23
TORSDOF 6
ENDMDL
MODEL 5
REMARK VINA RESULT:      -8.5      3.528      5.556
REMARK  6 active torsions:
REMARK  status: ('A' for Active; 'I' for Inactive)
REMARK    1  A    between atoms: C5_7  and  N3_8 
REMARK    2  A    between atoms: N3_8  and  C6_9 
REMARK    3  A    between atoms: C13_18  and  O1_19 
REMARK    4  A    between atoms: O1_19  and  C14_20 
REMARK    5  A    between atoms: N4_23  and  S1_24 
REMARK    6  A    between atoms: C19_29  and  O4_30 
ROOT
HETATM    1  C1  UNL     1      28.023   0.580  54.534  1.00  0.00     0.054 C 
HETATM    2  C2  UNL     1      26.662   0.266  54.086  1.00  0.00     0.002 A 
HETATM    3  C3  UNL     1      25.637  -0.330  54.653  1.00  0.00     0.083 A 
HETATM    4  N1  UNL     1      25.167  -0.936  55.745  1.00  0.00    -0.240 NA
HETATM    5  C4  UNL     1      23.895  -1.410  55.783  1.00  0.00     0.236 A 
HETATM    6  N2  UNL     1      23.121  -1.258  54.700  1.00  0.00    -0.223 NA
HETATM    7  C5  UNL     1      23.494  -0.667  53.557  1.00  0.00     0.144 A 
HETATM    8  C12 UNL     1      24.784  -0.210  53.580  1.00  0.00     0.073 A 
HETATM    9  C13 UNL     1      25.798   0.409  52.947  1.00  0.00     0.094 A 
ENDROOT
BRANCH   9  10
HETATM   10  O1  UNL     1      25.934   0.963  51.684  1.00  0.00    -0.342 OA
BRANCH  10  11
HETATM   11  C14 UNL     1      25.145   2.093  51.368  1.00  0.00     0.161 C 
HETATM   12  C15 UNL     1      24.722   2.849  52.608  1.00  0.00     0.055 C 
HETATM   13  C16 UNL     1      23.703   3.853  52.127  1.00  0.00     0.137 C 
HETATM   14  N4  UNL     1      24.315   4.795  51.272  1.00  0.00    -0.308 N 
HETATM   15  C18 UNL     1      25.232   4.369  50.302  1.00  0.00     0.169 C 
HETATM   16  C19 UNL     1      25.853   3.045  50.447  1.00  0.00     0.166 C 
BRANCH  14  17
HETATM   17  S1  UNL     1      23.267   6.058  50.776  1.00  0.00     0.224 S 
HETATM   18  C17 UNL     1      22.976   6.014  49.025  1.00  0.00     0.186 C 
HETATM   19  O2  UNL     1      23.778   7.407  51.192  1.00  0.00    -0.206 OA
HETATM   20  O3  UNL     1      21.938   5.863  51.464  1.00  0.00    -0.206 OA
ENDBRANCH  14  17
BRANCH  16  21
HETATM   21  O4  UNL     1      27.124   3.252  51.035  1.00  0.00    -0.391 OA
HETATM   22  H20 UNL     1      27.452   4.100  50.642  1.00  0.00     0.210 HD
ENDBRANCH  16  21
ENDBRANCH  10  11
ENDBRANCH   9  10
BRANCH   7  23
HETATM   23  N3  UNL     1      22.708  -0.486  52.394  1.00  0.00    -0.340 N 
HETATM   24  H5  UNL     1      22.769  -1.229  51.656  1.00  0.00     0.167 HD
BRANCH  23  25
HETATM   25  C6  UNL     1      21.835   0.589  52.102  1.00  0.00     0.035 A 
HETATM   26  C7  UNL     1      21.124   1.327  53.020  1.00  0.00     0.032 A 
HETATM   27  C8  UNL     1      20.276   2.372  52.731  1.00  0.00     0.046 A 
HETATM   28  C9  UNL     1      20.109   2.730  51.411  1.00  0.00     0.138 A 
HETATM   29  F1  UNL     1      19.285   3.751  51.077  1.00  0.00    -0.204 F 
HETATM   30  C10 UNL     1      20.796   2.026  50.447  1.00  0.00     0.074 A 
HETATM   31 CL1  UNL     1      20.599   2.463  48.770  1.00  0.00    -0.081 Cl
HETATM   32  C11 UNL     1      21.628   0.991  50.800  1.00  0.00     0.056 A 
ENDBRANCH  23  25
ENDBRANCH   7  23
TORSDOF 6
ENDMDL
MODEL 6
REMARK VINA RESULT:      -8.4      3.507      5.618
REMARK  6 active torsions:
REMARK  status: ('A' for Active; 'I' for Inactive)
REMARK    1  A    between atoms: C5_7  and  N3_8 
REMARK    2  A    between atoms: N3_8  and  C6_9 
REMARK    3  A    between atoms: C13_18  and  O1_19 
REMARK    4  A    between atoms: O1_19  and  C14_20 
REMARK    5  A    between atoms: N4_23  and  S1_24 
REMARK    6  A    between atoms: C19_29  and  O4_30 
ROOT
HETATM    1  C1  UNL     1      29.005   1.240  53.743  1.00  0.00     0.054 C 
HETATM    2  C2  UNL     1      27.613   0.820  53.555  1.00  0.00     0.002 A 
HETATM    3  C3  UNL     1      26.743   0.198  54.321  1.00  0.00     0.083 A 
HETATM    4  N1  UNL     1      26.510  -0.369  55.506  1.00  0.00    -0.240 NA
HETATM    5  C4  UNL     1      25.300  -0.915  55.788  1.00  0.00     0.236 A 
HETATM    6  N2  UNL     1      24.343  -0.875  54.851  1.00  0.00    -0.223 NA
HETATM    7  C5  UNL     1      24.473  -0.331  53.633  1.00  0.00     0.144 A 
HETATM    8  C12 UNL     1      25.714   0.203  53.409  1.00  0.00     0.073 A 
HETATM    9  C13 UNL     1      26.559   0.842  52.579  1.00  0.00     0.094 A 
ENDROOT
BRANCH   9  10
HETATM   10  O1  UNL     1      26.438   1.327  51.286  1.00  0.00    -0.342 OA
BRANCH  10  11
HETATM   11  C14 UNL     1      26.167   2.705  51.117  1.00  0.00     0.161 C 
HETATM   12  C15 UNL     1      26.412   3.156  49.694  1.00  0.00     0.055 C 
HETATM   13  C16 UNL     1      26.326   4.662  49.740  1.00  0.00     0.137 C 
HETATM   14  N4  UNL     1      25.013   5.064  50.069  1.00  0.00    -0.308 N 
HETATM   15  C18 UNL     1      24.309   4.399  51.081  1.00  0.00     0.169 C 
HETATM   16  C19 UNL     1      24.760   3.062  51.497  1.00  0.00     0.166 C 
BRANCH  14  17
HETATM   17  S1  UNL     1      24.778   6.761  50.016  1.00  0.00     0.224 S 
HETATM   18  C17 UNL     1      26.308   7.622  49.752  1.00  0.00     0.186 C 
HETATM   19  O2  UNL     1      24.091   7.271  51.251  1.00  0.00    -0.206 OA
HETATM   20  O3  UNL     1      23.871   7.074  48.851  1.00  0.00    -0.206 OA
ENDBRANCH  14  17
BRANCH  16  21
HETATM   21  O4  UNL     1      23.944   2.126  50.816  1.00  0.00    -0.391 OA
HETATM   22  H20 UNL     1      24.107   2.296  49.855  1.00  0.00     0.210 HD
ENDBRANCH  16  21
ENDBRANCH  10  11
ENDBRANCH   9  10
BRANCH   7  23
HETATM   23  N3  UNL     1      23.489  -0.267  52.618  1.00  0.00    -0.340 N 
HETATM   24  H5  UNL     1      23.826  -0.126  51.634  1.00  0.00     0.167 HD
BRANCH  23  25
HETATM   25  C6  UNL     1      22.086  -0.375  52.769  1.00  0.00     0.035 A 
HETATM   26  C7  UNL     1      21.430  -1.084  53.749  1.00  0.00     0.032 A 
HETATM   27  C8  UNL     1      20.064  -1.186  53.892  1.00  0.00     0.046 A 
HETATM   28  C9  UNL     1      19.263  -0.526  52.985  1.00  0.00     0.138 A 
HETATM   29  F1  UNL     1      17.915  -0.597  53.085  1.00  0.00    -0.204 F 
HETATM   30  C10 UNL     1      19.864   0.200  51.982  1.00  0.00     0.074 A 
HETATM   31 CL1  UNL     1      18.869   1.042  50.825  1.00  0.00    -0.081 Cl
HETATM   32  C11 UNL     1      21.235   0.262  51.893  1.00  0.00     0.056 A 
ENDBRANCH  23  25
ENDBRANCH   7  23
TORSDOF 6
ENDMDL
MODEL 7
REMARK VINA RESULT:      -8.4      3.627      5.829
REMARK  6 active torsions:
REMARK  status: ('A' for Active; 'I' for Inactive)
REMARK    1  A    between atoms: C5_7  and  N3_8 
REMARK    2  A    between atoms: N3_8  and  C6_9 
REMARK    3  A    between atoms: C13_18  and  O1_19 
REMARK    4  A    between atoms: O1_19  and  C14_20 
REMARK    5  A    between atoms: N4_23  and  S1_24 
REMARK    6  A    between atoms: C19_29  and  O4_30 
ROOT
HETATM    1  C1  UNL     1      22.482   5.689  46.984  1.00  0.00     0.054 C 
HETATM    2  C2  UNL     1      22.826   5.257  48.343  1.00  0.00     0.002 A 
HETATM    3  C3  UNL     1      22.115   4.988  49.416  1.00  0.00     0.083 A 
HETATM    4  N1  UNL     1      20.895   4.918  49.953  1.00  0.00    -0.240 NA
HETATM    5  C4  UNL     1      20.727   4.543  51.247  1.00  0.00     0.236 A 
HETATM    6  N2  UNL     1      21.811   4.245  51.975  1.00  0.00    -0.223 NA
HETATM    7  C5  UNL     1      23.076   4.284  51.533  1.00  0.00     0.144 A 
HETATM    8  C12 UNL     1      23.180   4.668  50.224  1.00  0.00     0.073 A 
HETATM    9  C13 UNL     1      23.962   4.930  49.160  1.00  0.00     0.094 A 
ENDROOT
BRANCH   9  10
HETATM   10  O1  UNL     1      25.332   4.890  48.953  1.00  0.00    -0.342 OA
BRANCH  10  11
HETATM   11  C14 UNL     1      26.010   6.116  48.766  1.00  0.00     0.161 C 
HETATM   12  C15 UNL     1      25.943   6.990  49.999  1.00  0.00     0.055 C 
HETATM   13  C16 UNL     1      26.481   8.330  49.560  1.00  0.00     0.137 C 
HETATM   14  N4  UNL     1      27.847   8.218  49.222  1.00  0.00    -0.308 N 
HETATM   15  C18 UNL     1      28.295   7.124  48.470  1.00  0.00     0.169 C 
HETATM   16  C19 UNL     1      27.453   5.921  48.396  1.00  0.00     0.166 C 
BRANCH  14  17
HETATM   17  S1  UNL     1      28.587   9.715  48.835  1.00  0.00     0.224 S 
HETATM   18  C17 UNL     1      30.270   9.775  49.397  1.00  0.00     0.186 C 
HETATM   19  O2  UNL     1      27.808  10.881  49.374  1.00  0.00    -0.206 OA
HETATM   20  O3  UNL     1      28.602   9.857  47.332  1.00  0.00    -0.206 OA
ENDBRANCH  14  17
BRANCH  16  21
HETATM   21  O4  UNL     1      27.960   5.008  49.353  1.00  0.00    -0.391 OA
HETATM   22  H20 UNL     1      27.469   4.165  49.188  1.00  0.00     0.210 HD
ENDBRANCH  16  21
ENDBRANCH  10  11
ENDBRANCH   9  10
BRANCH   7  23
HETATM   23  N3  UNL     1      24.245   3.977  52.269  1.00  0.00    -0.340 N 
HETATM   24  H5  UNL     1      24.632   4.731  52.887  1.00  0.00     0.167 HD
BRANCH  23  25
HETATM   25  C6  UNL     1      24.966   2.759  52.275  1.00  0.00     0.035 A 
HETATM   26  C7  UNL     1      26.081   2.476  51.520  1.00  0.00     0.032 A 
HETATM   27  C8  UNL     1      26.780   1.289  51.529  1.00  0.00     0.046 A 
HETATM   28  C9  UNL     1      26.344   0.281  52.361  1.00  0.00     0.138 A 
HETATM   29  F1  UNL     1      26.998  -0.902  52.405  1.00  0.00    -0.204 F 
HETATM   30  C10 UNL     1      25.231   0.508  53.141  1.00  0.00     0.074 A 
HETATM   31 CL1  UNL     1      24.662  -0.753  54.201  1.00  0.00    -0.081 Cl
HETATM   32  C11 UNL     1      24.576   1.716  53.086  1.00  0.00     0.056 A 
ENDBRANCH  23  25
ENDBRANCH   7  23
TORSDOF 6
ENDMDL
MODEL 8
REMARK VINA RESULT:      -8.3      4.049      6.323
REMARK  6 active torsions:
REMARK  status: ('A' for Active; 'I' for Inactive)
REMARK    1  A    between atoms: C5_7  and  N3_8 
REMARK    2  A    between atoms: N3_8  and  C6_9 
REMARK    3  A    between atoms: C13_18  and  O1_19 
REMARK    4  A    between atoms: O1_19  and  C14_20 
REMARK    5  A    between atoms: N4_23  and  S1_24 
REMARK    6  A    between atoms: C19_29  and  O4_30 
ROOT
HETATM    1  C1  UNL     1      22.462  -0.602  54.653  1.00  0.00     0.054 C 
HETATM    2  C2  UNL     1      21.922  -0.074  53.395  1.00  0.00     0.002 A 
HETATM    3  C3  UNL     1      20.728  -0.087  52.845  1.00  0.00     0.083 A 
HETATM    4  N1  UNL     1      19.455  -0.473  52.958  1.00  0.00    -0.240 NA
HETATM    5  C4  UNL     1      18.554  -0.188  51.984  1.00  0.00     0.236 A 
HETATM    6  N2  UNL     1      18.969   0.490  50.905  1.00  0.00    -0.223 NA
HETATM    7  C5  UNL     1      20.220   0.922  50.694  1.00  0.00     0.144 A 
HETATM    8  C12 UNL     1      21.080   0.604  51.710  1.00  0.00     0.073 A 
HETATM    9  C13 UNL     1      22.324   0.651  52.222  1.00  0.00     0.094 A 
ENDROOT
BRANCH   9  10
HETATM   10  O1  UNL     1      23.518   1.195  51.773  1.00  0.00    -0.342 OA
BRANCH  10  11
HETATM   11  C14 UNL     1      24.692   0.916  52.510  1.00  0.00     0.161 C 
HETATM   12  C15 UNL     1      25.845   0.533  51.608  1.00  0.00     0.055 C 
HETATM   13  C16 UNL     1      26.922   0.032  52.539  1.00  0.00     0.137 C 
HETATM   14  N4  UNL     1      27.385   1.086  53.356  1.00  0.00    -0.308 N 
HETATM   15  C18 UNL     1      26.473   1.981  53.931  1.00  0.00     0.169 C 
HETATM   16  C19 UNL     1      25.119   2.074  53.364  1.00  0.00     0.166 C 
BRANCH  14  17
HETATM   17  S1  UNL     1      28.705   0.651  54.360  1.00  0.00     0.224 S 
HETATM   18  C17 UNL     1      29.979  -0.173  53.439  1.00  0.00     0.186 C 
HETATM   19  O2  UNL     1      28.269  -0.188  55.527  1.00  0.00    -0.206 OA
HETATM   20  O3  UNL     1      29.299   1.916  54.930  1.00  0.00    -0.206 OA
ENDBRANCH  14  17
BRANCH  16  21
HETATM   21  O4  UNL     1      25.116   3.195  52.498  1.00  0.00    -0.391 OA
HETATM   22  H20 UNL     1      25.847   3.775  52.828  1.00  0.00     0.210 HD
ENDBRANCH  16  21
ENDBRANCH  10  11
ENDBRANCH   9  10
BRANCH   7  23
HETATM   23  N3  UNL     1      20.696   1.640  49.571  1.00  0.00    -0.340 N 
HETATM   24  H5  UNL     1      20.337   1.346  48.629  1.00  0.00     0.167 HD
BRANCH  23  25
HETATM   25  C6  UNL     1      21.608   2.722  49.562  1.00  0.00     0.035 A 
HETATM   26  C7  UNL     1      22.850   2.728  48.969  1.00  0.00     0.032 A 
HETATM   27  C8  UNL     1      23.733   3.784  48.962  1.00  0.00     0.046 A 
HETATM   28  C9  UNL     1      23.363   4.949  49.598  1.00  0.00     0.138 A 
HETATM   29  F1  UNL     1      24.198   6.014  49.618  1.00  0.00    -0.204 F 
HETATM   30  C10 UNL     1      22.130   5.001  50.209  1.00  0.00     0.074 A 
HETATM   31 CL1  UNL     1      21.641   6.466  51.019  1.00  0.00    -0.081 Cl
HETATM   32  C11 UNL     1      21.292   3.911  50.181  1.00  0.00     0.056 A 
ENDBRANCH  23  25
ENDBRANCH   7  23
TORSDOF 6
ENDMDL
MODEL 9
REMARK VINA RESULT:      -8.2      3.524      5.488
REMARK  6 active torsions:
REMARK  status: ('A' for Active; 'I' for Inactive)
REMARK    1  A    between atoms: C5_7  and  N3_8 
REMARK    2  A    between atoms: N3_8  and  C6_9 
REMARK    3  A    between atoms: C13_18  and  O1_19 
REMARK    4  A    between atoms: O1_19  and  C14_20 
REMARK    5  A    between atoms: N4_23  and  S1_24 
REMARK    6  A    between atoms: C19_29  and  O4_30 
ROOT
HETATM    1  C1  UNL     1      24.739  -1.073  55.573  1.00  0.00     0.054 C 
HETATM    2  C2  UNL     1      25.112  -0.278  54.399  1.00  0.00     0.002 A 
HETATM    3  C3  UNL     1      26.156   0.464  54.102  1.00  0.00     0.083 A 
HETATM    4  N1  UNL     1      27.335   0.939  54.507  1.00  0.00    -0.240 NA
HETATM    5  C4  UNL     1      28.068   1.754  53.707  1.00  0.00     0.236 A 
HETATM    6  N2  UNL     1      27.583   2.074  52.500  1.00  0.00    -0.223 NA
HETATM    7  C5  UNL     1      26.414   1.653  51.998  1.00  0.00     0.144 A 
HETATM    8  C12 UNL     1      25.722   0.836  52.850  1.00  0.00     0.073 A 
HETATM    9  C13 UNL     1      24.629   0.089  53.097  1.00  0.00     0.094 A 
ENDROOT
BRANCH   9  10
HETATM   10  O1  UNL     1      23.490  -0.200  52.362  1.00  0.00    -0.342 OA
BRANCH  10  11
HETATM   11  C14 UNL     1      22.624   0.868  52.033  1.00  0.00     0.161 C 
HETATM   12  C15 UNL     1      21.886   0.616  50.737  1.00  0.00     0.055 C 
HETATM   13  C16 UNL     1      21.213   1.926  50.407  1.00  0.00     0.137 C 
HETATM   14  N4  UNL     1      20.232   2.225  51.376  1.00  0.00    -0.308 N 
HETATM   15  C18 UNL     1      20.504   2.025  52.735  1.00  0.00     0.169 C 
HETATM   16  C19 UNL     1      21.615   1.138  53.112  1.00  0.00     0.166 C 
BRANCH  14  17
HETATM   17  S1  UNL     1      19.317   3.631  51.019  1.00  0.00     0.224 S 
HETATM   18  C17 UNL     1      18.619   3.558  49.389  1.00  0.00     0.186 C 
HETATM   19  O2  UNL     1      20.126   4.885  51.192  1.00  0.00    -0.206 OA
HETATM   20  O3  UNL     1      18.174   3.710  52.002  1.00  0.00    -0.206 OA
ENDBRANCH  14  17
BRANCH  16  21
HETATM   21  O4  UNL     1      21.047  -0.123  53.412  1.00  0.00    -0.391 OA
HETATM   22  H20 UNL     1      20.094  -0.042  53.156  1.00  0.00     0.210 HD
ENDBRANCH  16  21
ENDBRANCH  10  11
ENDBRANCH   9  10
BRANCH   7  23
HETATM   23  N3  UNL     1      25.868   1.966  50.730  1.00  0.00    -0.340 N 
HETATM   24  H5  UNL     1      25.476   1.171  50.169  1.00  0.00     0.167 HD
BRANCH  23  25
HETATM   25  C6  UNL     1      25.782   3.240  50.119  1.00  0.00     0.035 A 
HETATM   26  C7  UNL     1      24.655   4.025  50.041  1.00  0.00     0.032 A 
HETATM   27  C8  UNL     1      24.576   5.264  49.446  1.00  0.00     0.046 A 
HETATM   28  C9  UNL     1      25.715   5.785  48.870  1.00  0.00     0.138 A 
HETATM   29  F1  UNL     1      25.686   6.999  48.273  1.00  0.00    -0.204 F 
HETATM   30  C10 UNL     1      26.873   5.043  48.917  1.00  0.00     0.074 A 
HETATM   31 CL1  UNL     1      28.326   5.683  48.196  1.00  0.00    -0.081 Cl
HETATM   32  C11 UNL     1      26.887   3.810  49.527  1.00  0.00     0.056 A 
ENDBRANCH  23  25
ENDBRANCH   7  23
TORSDOF 6
ENDMDL
