MODEL 1
REMARK VINA RESULT:      -7.4      0.000      0.000
REMARK  9 active torsions:
REMARK  status: ('A' for Active; 'I' for Inactive)
REMARK    1  A    between atoms: C2_2  and  C4_4 
REMARK    2  A    between atoms: C4_4  and  C5_5 
REMARK    3  A    between atoms: C5_5  and  C6_6 
REMARK    4  A    between atoms: C10_10  and  C11_11 
REMARK    5  A    between atoms: C12_12  and  O1_13 
REMARK    6  A    between atoms: O1_13  and  C13_14 
REMARK    7  A    between atoms: C13_14  and  C14_15 
REMARK    8  A    between atoms: C14_15  and  C15_16 
REMARK    9  A    between atoms: C18_19  and  O2_20 
ROOT
HETATM    1  C11 UNL     1      23.377   3.014  50.603  1.00  0.00     0.026 C 
HETATM    2  C12 UNL     1      22.618   2.184  49.907  1.00  0.00     0.134 C 
ENDROOT
BRANCH   1   3
HETATM    3  C10 UNL     1      24.829   2.971  50.473  1.00  0.00     0.027 C 
HETATM    4  C9  UNL     1      25.511   2.740  51.566  1.00  0.00     0.013 A 
HETATM    5  C8  UNL     1      24.682   2.554  52.802  1.00  0.00     0.086 A 
HETATM    6  N1  UNL     1      26.866   2.610  51.963  1.00  0.00    -0.363 N 
HETATM    7  C7  UNL     1      25.760   2.303  53.785  1.00  0.00     0.004 A 
HETATM    8  C6  UNL     1      27.008   2.334  53.366  1.00  0.00     0.006 A 
HETATM    9  H27 UNL     1      27.484   2.750  51.101  1.00  0.00     0.165 HD
BRANCH   8  10
HETATM   10  C5  UNL     1      28.402   2.200  53.724  1.00  0.00     0.057 C 
BRANCH  10  11
HETATM   11  C4  UNL     1      29.138   0.976  53.385  1.00  0.00     0.010 C 
BRANCH  11  12
HETATM   12  C2  UNL     1      28.637  -0.351  53.812  1.00  0.00    -0.023 C 
HETATM   13  C1  UNL     1      27.596  -0.925  52.919  1.00  0.00     0.009 C 
HETATM   14  C3  UNL     1      29.843  -1.306  53.713  1.00  0.00     0.009 C 
ENDBRANCH  11  12
ENDBRANCH  10  11
ENDBRANCH   8  10
ENDBRANCH   1   3
BRANCH   2  15
HETATM   15  O1  UNL     1      21.214   2.186  49.997  1.00  0.00    -0.363 OA
BRANCH  15  16
HETATM   16  C13 UNL     1      20.663   1.861  51.256  1.00  0.00     0.179 C 
BRANCH  16  17
HETATM   17  C14 UNL     1      20.416   0.373  51.361  1.00  0.00     0.065 C 
BRANCH  17  18
HETATM   18  C15 UNL     1      21.171  -0.195  52.513  1.00  0.00    -0.056 A 
HETATM   19  C16 UNL     1      22.545  -0.268  52.578  1.00  0.00     0.010 A 
HETATM   20  C17 UNL     1      23.172  -0.809  53.680  1.00  0.00     0.037 A 
HETATM   21  C18 UNL     1      22.451  -1.300  54.763  1.00  0.00     0.065 A 
HETATM   22  C19 UNL     1      21.068  -1.225  54.691  1.00  0.00     0.037 A 
HETATM   23  C20 UNL     1      20.440  -0.683  53.591  1.00  0.00     0.010 A 
BRANCH  21  24
HETATM   24  O2  UNL     1      23.069  -1.844  55.871  1.00  0.00    -0.361 OA
HETATM   25  H24 UNL     1      23.242  -2.828  55.912  1.00  0.00     0.217 HD
ENDBRANCH  21  24
ENDBRANCH  17  18
ENDBRANCH  16  17
ENDBRANCH  15  16
ENDBRANCH   2  15
TORSDOF 9
ENDMDL
MODEL 2
REMARK VINA RESULT:      -7.0      3.464      5.702
REMARK  9 active torsions:
REMARK  status: ('A' for Active; 'I' for Inactive)
REMARK    1  A    between atoms: C2_2  and  C4_4 
REMARK    2  A    between atoms: C4_4  and  C5_5 
REMARK    3  A    between atoms: C5_5  and  C6_6 
REMARK    4  A    between atoms: C10_10  and  C11_11 
REMARK    5  A    between atoms: C12_12  and  O1_13 
REMARK    6  A    between atoms: O1_13  and  C13_14 
REMARK    7  A    between atoms: C13_14  and  C14_15 
REMARK    8  A    between atoms: C14_15  and  C15_16 
REMARK    9  A    between atoms: C18_19  and  O2_20 
ROOT
HETATM    1  C11 UNL     1      23.766   2.092  52.631  1.00  0.00     0.026 C 
HETATM    2  C12 UNL     1      22.579   1.660  53.023  1.00  0.00     0.134 C 
ENDROOT
BRANCH   1   3
HETATM    3  C10 UNL     1      23.933   3.460  52.156  1.00  0.00     0.027 C 
HETATM    4  C9  UNL     1      24.844   3.657  51.236  1.00  0.00     0.013 A 
HETATM    5  C8  UNL     1      25.584   2.426  50.806  1.00  0.00     0.086 A 
HETATM    6  N1  UNL     1      25.375   4.735  50.483  1.00  0.00    -0.363 N 
HETATM    7  C7  UNL     1      26.475   3.020  49.783  1.00  0.00     0.004 A 
HETATM    8  C6  UNL     1      26.404   4.317  49.570  1.00  0.00     0.006 A 
HETATM    9  H27 UNL     1      24.872   5.631  50.778  1.00  0.00     0.165 HD
BRANCH   8  10
HETATM   10  C5  UNL     1      26.910   5.444  48.819  1.00  0.00     0.057 C 
BRANCH  10  11
HETATM   11  C4  UNL     1      28.336   5.531  48.487  1.00  0.00     0.010 C 
BRANCH  11  12
HETATM   12  C2  UNL     1      28.846   6.617  47.616  1.00  0.00    -0.023 C 
HETATM   13  C1  UNL     1      27.846   7.677  47.317  1.00  0.00     0.009 C 
HETATM   14  C3  UNL     1      29.961   7.312  48.423  1.00  0.00     0.009 C 
ENDBRANCH  11  12
ENDBRANCH  10  11
ENDBRANCH   8  10
ENDBRANCH   1   3
BRANCH   2  15
HETATM   15  O1  UNL     1      22.365   0.350  53.489  1.00  0.00    -0.363 OA
BRANCH  15  16
HETATM   16  C13 UNL     1      23.401  -0.579  53.252  1.00  0.00     0.179 C 
BRANCH  16  17
HETATM   17  C14 UNL     1      24.279  -0.721  54.475  1.00  0.00     0.065 C 
BRANCH  17  18
HETATM   18  C15 UNL     1      25.696  -0.413  54.132  1.00  0.00    -0.056 A 
HETATM   19  C16 UNL     1      26.267  -0.662  52.902  1.00  0.00     0.010 A 
HETATM   20  C17 UNL     1      27.587  -0.348  52.661  1.00  0.00     0.037 A 
HETATM   21  C18 UNL     1      28.392   0.228  53.638  1.00  0.00     0.065 A 
HETATM   22  C19 UNL     1      27.811   0.476  54.872  1.00  0.00     0.037 A 
HETATM   23  C20 UNL     1      26.491   0.164  55.116  1.00  0.00     0.010 A 
BRANCH  21  24
HETATM   24  O2  UNL     1      29.714   0.546  53.406  1.00  0.00    -0.361 OA
HETATM   25  H24 UNL     1      30.256   0.980  54.126  1.00  0.00     0.217 HD
ENDBRANCH  21  24
ENDBRANCH  17  18
ENDBRANCH  16  17
ENDBRANCH  15  16
ENDBRANCH   2  15
TORSDOF 9
ENDMDL
MODEL 3
REMARK VINA RESULT:      -6.9      2.895      7.498
REMARK  9 active torsions:
REMARK  status: ('A' for Active; 'I' for Inactive)
REMARK    1  A    between atoms: C2_2  and  C4_4 
REMARK    2  A    between atoms: C4_4  and  C5_5 
REMARK    3  A    between atoms: C5_5  and  C6_6 
REMARK    4  A    between atoms: C10_10  and  C11_11 
REMARK    5  A    between atoms: C12_12  and  O1_13 
REMARK    6  A    between atoms: O1_13  and  C13_14 
REMARK    7  A    between atoms: C13_14  and  C14_15 
REMARK    8  A    between atoms: C14_15  and  C15_16 
REMARK    9  A    between atoms: C18_19  and  O2_20 
ROOT
HETATM    1  C11 UNL     1      24.355   1.730  52.029  1.00  0.00     0.026 C 
HETATM    2  C12 UNL     1      25.254   2.507  51.450  1.00  0.00     0.134 C 
ENDROOT
BRANCH   1   3
HETATM    3  C10 UNL     1      22.964   1.760  51.593  1.00  0.00     0.027 C 
HETATM    4  C9  UNL     1      22.133   0.964  52.219  1.00  0.00     0.013 A 
HETATM    5  C8  UNL     1      22.751   0.133  53.304  1.00  0.00     0.086 A 
HETATM    6  N1  UNL     1      20.757   0.627  52.182  1.00  0.00    -0.363 N 
HETATM    7  C7  UNL     1      21.547  -0.590  53.775  1.00  0.00     0.004 A 
HETATM    8  C6  UNL     1      20.401  -0.355  53.170  1.00  0.00     0.006 A 
HETATM    9  H27 UNL     1      20.291   1.198  51.408  1.00  0.00     0.165 HD
BRANCH   8  10
HETATM   10  C5  UNL     1      18.990  -0.662  53.103  1.00  0.00     0.057 C 
BRANCH  10  11
HETATM   11  C4  UNL     1      18.467  -1.879  53.734  1.00  0.00     0.010 C 
BRANCH  11  12
HETATM   12  C2  UNL     1      17.548  -2.778  52.996  1.00  0.00    -0.023 C 
HETATM   13  C1  UNL     1      17.075  -3.946  53.786  1.00  0.00     0.009 C 
HETATM   14  C3  UNL     1      16.290  -1.938  52.699  1.00  0.00     0.009 C 
ENDBRANCH  11  12
ENDBRANCH  10  11
ENDBRANCH   8  10
ENDBRANCH   1   3
BRANCH   2  15
HETATM   15  O1  UNL     1      26.608   2.515  51.833  1.00  0.00    -0.363 OA
BRANCH  15  16
HETATM   16  C13 UNL     1      26.869   2.514  53.221  1.00  0.00     0.179 C 
BRANCH  16  17
HETATM   17  C14 UNL     1      28.260   1.991  53.500  1.00  0.00     0.065 C 
BRANCH  17  18
HETATM   18  C15 UNL     1      28.290   0.507  53.368  1.00  0.00    -0.056 A 
HETATM   19  C16 UNL     1      27.193  -0.263  53.047  1.00  0.00     0.010 A 
HETATM   20  C17 UNL     1      27.300  -1.634  52.944  1.00  0.00     0.037 A 
HETATM   21  C18 UNL     1      28.507  -2.291  53.157  1.00  0.00     0.065 A 
HETATM   22  C19 UNL     1      29.606  -1.510  53.481  1.00  0.00     0.037 A 
HETATM   23  C20 UNL     1      29.502  -0.140  53.583  1.00  0.00     0.010 A 
BRANCH  21  24
HETATM   24  O2  UNL     1      28.624  -3.663  53.056  1.00  0.00    -0.361 OA
HETATM   25  H24 UNL     1      28.277  -4.134  52.245  1.00  0.00     0.217 HD
ENDBRANCH  21  24
ENDBRANCH  17  18
ENDBRANCH  16  17
ENDBRANCH  15  16
ENDBRANCH   2  15
TORSDOF 9
ENDMDL
MODEL 4
REMARK VINA RESULT:      -6.9      2.041      4.334
REMARK  9 active torsions:
REMARK  status: ('A' for Active; 'I' for Inactive)
REMARK    1  A    between atoms: C2_2  and  C4_4 
REMARK    2  A    between atoms: C4_4  and  C5_5 
REMARK    3  A    between atoms: C5_5  and  C6_6 
REMARK    4  A    between atoms: C10_10  and  C11_11 
REMARK    5  A    between atoms: C12_12  and  O1_13 
REMARK    6  A    between atoms: O1_13  and  C13_14 
REMARK    7  A    between atoms: C13_14  and  C14_15 
REMARK    8  A    between atoms: C14_15  and  C15_16 
REMARK    9  A    between atoms: C18_19  and  O2_20 
ROOT
HETATM    1  C11 UNL     1      20.911  -0.446  54.417  1.00  0.00     0.026 C 
HETATM    2  C12 UNL     1      20.021  -1.176  53.767  1.00  0.00     0.134 C 
ENDROOT
BRANCH   1   3
HETATM    3  C10 UNL     1      22.169  -1.036  54.858  1.00  0.00     0.027 C 
HETATM    4  C9  UNL     1      23.259  -0.603  54.276  1.00  0.00     0.013 A 
HETATM    5  C8  UNL     1      23.041   0.448  53.229  1.00  0.00     0.086 A 
HETATM    6  N1  UNL     1      24.656  -0.839  54.331  1.00  0.00    -0.363 N 
HETATM    7  C7  UNL     1      24.446   0.692  52.830  1.00  0.00     0.004 A 
HETATM    8  C6  UNL     1      25.393  -0.014  53.413  1.00  0.00     0.006 A 
HETATM    9  H27 UNL     1      24.840  -1.595  55.064  1.00  0.00     0.165 HD
BRANCH   8  10
HETATM   10  C5  UNL     1      26.810  -0.280  53.510  1.00  0.00     0.057 C 
BRANCH  10  11
HETATM   11  C4  UNL     1      27.583   0.231  54.648  1.00  0.00     0.010 C 
BRANCH  11  12
HETATM   12  C2  UNL     1      28.918   0.842  54.442  1.00  0.00    -0.023 C 
HETATM   13  C1  UNL     1      29.835   0.033  53.598  1.00  0.00     0.009 C 
HETATM   14  C3  UNL     1      28.665   2.143  53.655  1.00  0.00     0.009 C 
ENDBRANCH  11  12
ENDBRANCH  10  11
ENDBRANCH   8  10
ENDBRANCH   1   3
BRANCH   2  15
HETATM   15  O1  UNL     1      18.794  -0.654  53.319  1.00  0.00    -0.363 OA
BRANCH  15  16
HETATM   16  C13 UNL     1      18.723  -0.291  51.956  1.00  0.00     0.179 C 
BRANCH  16  17
HETATM   17  C14 UNL     1      18.800   1.211  51.801  1.00  0.00     0.065 C 
BRANCH  17  18
HETATM   18  C15 UNL     1      20.101   1.602  51.190  1.00  0.00    -0.056 A 
HETATM   19  C16 UNL     1      20.779   0.841  50.261  1.00  0.00     0.010 A 
HETATM   20  C17 UNL     1      21.981   1.270  49.741  1.00  0.00     0.037 A 
HETATM   21  C18 UNL     1      22.555   2.477  50.125  1.00  0.00     0.065 A 
HETATM   22  C19 UNL     1      21.868   3.237  51.059  1.00  0.00     0.037 A 
HETATM   23  C20 UNL     1      20.666   2.810  51.581  1.00  0.00     0.010 A 
BRANCH  21  24
HETATM   24  O2  UNL     1      23.758   2.915  49.609  1.00  0.00    -0.361 OA
HETATM   25  H24 UNL     1      24.070   3.847  49.794  1.00  0.00     0.217 HD
ENDBRANCH  21  24
ENDBRANCH  17  18
ENDBRANCH  16  17
ENDBRANCH  15  16
ENDBRANCH   2  15
TORSDOF 9
ENDMDL
MODEL 5
REMARK VINA RESULT:      -6.9      4.257      6.494
REMARK  9 active torsions:
REMARK  status: ('A' for Active; 'I' for Inactive)
REMARK    1  A    between atoms: C2_2  and  C4_4 
REMARK    2  A    between atoms: C4_4  and  C5_5 
REMARK    3  A    between atoms: C5_5  and  C6_6 
REMARK    4  A    between atoms: C10_10  and  C11_11 
REMARK    5  A    between atoms: C12_12  and  O1_13 
REMARK    6  A    between atoms: O1_13  and  C13_14 
REMARK    7  A    between atoms: C13_14  and  C14_15 
REMARK    8  A    between atoms: C14_15  and  C15_16 
REMARK    9  A    between atoms: C18_19  and  O2_20 
ROOT
HETATM    1  C11 UNL     1      24.316   2.811  50.406  1.00  0.00     0.026 C 
HETATM    2  C12 UNL     1      23.562   2.389  51.407  1.00  0.00     0.134 C 
ENDROOT
BRANCH   1   3
HETATM    3  C10 UNL     1      24.273   4.207  49.987  1.00  0.00     0.027 C 
HETATM    4  C9  UNL     1      25.377   4.708  49.493  1.00  0.00     0.013 A 
HETATM    5  C8  UNL     1      26.533   3.754  49.435  1.00  0.00     0.086 A 
HETATM    6  N1  UNL     1      25.842   5.942  48.973  1.00  0.00    -0.363 N 
HETATM    7  C7  UNL     1      27.551   4.640  48.826  1.00  0.00     0.004 A 
HETATM    8  C6  UNL     1      27.216   5.884  48.555  1.00  0.00     0.006 A 
HETATM    9  H27 UNL     1      25.039   6.647  49.012  1.00  0.00     0.165 HD
BRANCH   8  10
HETATM   10  C5  UNL     1      27.644   7.159  48.023  1.00  0.00     0.057 C 
BRANCH  10  11
HETATM   11  C4  UNL     1      28.743   7.224  47.053  1.00  0.00     0.010 C 
BRANCH  11  12
HETATM   12  C2  UNL     1      30.072   7.747  47.450  1.00  0.00    -0.023 C 
HETATM   13  C1  UNL     1      30.167   8.149  48.878  1.00  0.00     0.009 C 
HETATM   14  C3  UNL     1      31.052   6.569  47.282  1.00  0.00     0.009 C 
ENDBRANCH  11  12
ENDBRANCH  10  11
ENDBRANCH   8  10
ENDBRANCH   1   3
BRANCH   2  15
HETATM   15  O1  UNL     1      23.567   1.054  51.850  1.00  0.00    -0.363 OA
BRANCH  15  16
HETATM   16  C13 UNL     1      24.334   0.777  53.002  1.00  0.00     0.179 C 
BRANCH  16  17
HETATM   17  C14 UNL     1      25.541  -0.063  52.649  1.00  0.00     0.065 C 
BRANCH  17  18
HETATM   18  C15 UNL     1      26.779   0.550  53.207  1.00  0.00    -0.056 A 
HETATM   19  C16 UNL     1      27.636  -0.090  54.076  1.00  0.00     0.010 A 
HETATM   20  C17 UNL     1      28.763   0.546  54.550  1.00  0.00     0.037 A 
HETATM   21  C18 UNL     1      29.082   1.847  54.176  1.00  0.00     0.065 A 
HETATM   22  C19 UNL     1      28.215   2.485  53.302  1.00  0.00     0.037 A 
HETATM   23  C20 UNL     1      27.088   1.851  52.826  1.00  0.00     0.010 A 
BRANCH  21  24
HETATM   24  O2  UNL     1      30.208   2.491  54.646  1.00  0.00    -0.361 OA
HETATM   25  H24 UNL     1      31.114   2.110  54.462  1.00  0.00     0.217 HD
ENDBRANCH  21  24
ENDBRANCH  17  18
ENDBRANCH  16  17
ENDBRANCH  15  16
ENDBRANCH   2  15
TORSDOF 9
ENDMDL
MODEL 6
REMARK VINA RESULT:      -6.9      3.759      6.836
REMARK  9 active torsions:
REMARK  status: ('A' for Active; 'I' for Inactive)
REMARK    1  A    between atoms: C2_2  and  C4_4 
REMARK    2  A    between atoms: C4_4  and  C5_5 
REMARK    3  A    between atoms: C5_5  and  C6_6 
REMARK    4  A    between atoms: C10_10  and  C11_11 
REMARK    5  A    between atoms: C12_12  and  O1_13 
REMARK    6  A    between atoms: O1_13  and  C13_14 
REMARK    7  A    between atoms: C13_14  and  C14_15 
REMARK    8  A    between atoms: C14_15  and  C15_16 
REMARK    9  A    between atoms: C18_19  and  O2_20 
ROOT
HETATM    1  C11 UNL     1      24.331   2.452  51.289  1.00  0.00     0.026 C 
HETATM    2  C12 UNL     1      23.808   1.830  52.333  1.00  0.00     0.134 C 
ENDROOT
BRANCH   1   3
HETATM    3  C10 UNL     1      24.366   3.909  51.240  1.00  0.00     0.027 C 
HETATM    4  C9  UNL     1      25.271   4.450  50.463  1.00  0.00     0.013 A 
HETATM    5  C8  UNL     1      26.144   3.472  49.733  1.00  0.00     0.086 A 
HETATM    6  N1  UNL     1      25.704   5.745  50.082  1.00  0.00    -0.363 N 
HETATM    7  C7  UNL     1      26.989   4.420  48.972  1.00  0.00     0.004 A 
HETATM    8  C6  UNL     1      26.789   5.711  49.140  1.00  0.00     0.006 A 
HETATM    9  H27 UNL     1      25.104   6.465  50.597  1.00  0.00     0.165 HD
BRANCH   8  10
HETATM   10  C5  UNL     1      27.191   7.050  48.773  1.00  0.00     0.057 C 
BRANCH  10  11
HETATM   11  C4  UNL     1      26.664   7.672  47.553  1.00  0.00     0.010 C 
BRANCH  11  12
HETATM   12  C2  UNL     1      25.204   7.746  47.311  1.00  0.00    -0.023 C 
HETATM   13  C1  UNL     1      24.492   8.723  48.176  1.00  0.00     0.009 C 
HETATM   14  C3  UNL     1      25.045   8.271  45.870  1.00  0.00     0.009 C 
ENDBRANCH  11  12
ENDBRANCH  10  11
ENDBRANCH   8  10
ENDBRANCH   1   3
BRANCH   2  15
HETATM   15  O1  UNL     1      23.751   0.428  52.429  1.00  0.00    -0.363 OA
BRANCH  15  16
HETATM   16  C13 UNL     1      24.699  -0.184  53.277  1.00  0.00     0.179 C 
BRANCH  16  17
HETATM   17  C14 UNL     1      26.000  -0.416  52.542  1.00  0.00     0.065 C 
BRANCH  17  18
HETATM   18  C15 UNL     1      27.088   0.403  53.146  1.00  0.00    -0.056 A 
HETATM   19  C16 UNL     1      27.415   1.678  52.737  1.00  0.00     0.010 A 
HETATM   20  C17 UNL     1      28.437   2.373  53.346  1.00  0.00     0.037 A 
HETATM   21  C18 UNL     1      29.175   1.824  54.389  1.00  0.00     0.065 A 
HETATM   22  C19 UNL     1      28.841   0.541  54.795  1.00  0.00     0.037 A 
HETATM   23  C20 UNL     1      27.819  -0.156  54.188  1.00  0.00     0.010 A 
BRANCH  21  24
HETATM   24  O2  UNL     1      30.200   2.512  55.006  1.00  0.00    -0.361 OA
HETATM   25  H24 UNL     1      30.866   2.019  55.565  1.00  0.00     0.217 HD
ENDBRANCH  21  24
ENDBRANCH  17  18
ENDBRANCH  16  17
ENDBRANCH  15  16
ENDBRANCH   2  15
TORSDOF 9
ENDMDL
MODEL 7
REMARK VINA RESULT:      -6.8      2.596      5.367
REMARK  9 active torsions:
REMARK  status: ('A' for Active; 'I' for Inactive)
REMARK    1  A    between atoms: C2_2  and  C4_4 
REMARK    2  A    between atoms: C4_4  and  C5_5 
REMARK    3  A    between atoms: C5_5  and  C6_6 
REMARK    4  A    between atoms: C10_10  and  C11_11 
REMARK    5  A    between atoms: C12_12  and  O1_13 
REMARK    6  A    between atoms: O1_13  and  C13_14 
REMARK    7  A    between atoms: C13_14  and  C14_15 
REMARK    8  A    between atoms: C14_15  and  C15_16 
REMARK    9  A    between atoms: C18_19  and  O2_20 
ROOT
HETATM    1  C11 UNL     1      26.591   0.944  53.001  1.00  0.00     0.026 C 
HETATM    2  C12 UNL     1      26.768   0.766  54.300  1.00  0.00     0.134 C 
ENDROOT
BRANCH   1   3
HETATM    3  C10 UNL     1      27.203   2.079  52.322  1.00  0.00     0.027 C 
HETATM    4  C9  UNL     1      26.459   2.716  51.453  1.00  0.00     0.013 A 
HETATM    5  C8  UNL     1      25.072   2.170  51.288  1.00  0.00     0.086 A 
HETATM    6  N1  UNL     1      26.569   3.820  50.569  1.00  0.00    -0.363 N 
HETATM    7  C7  UNL     1      24.550   3.124  50.282  1.00  0.00     0.004 A 
HETATM    8  C6  UNL     1      25.356   4.066  49.838  1.00  0.00     0.006 A 
HETATM    9  H27 UNL     1      27.555   4.224  50.657  1.00  0.00     0.165 HD
BRANCH   8  10
HETATM   10  C5  UNL     1      25.510   5.203  48.958  1.00  0.00     0.057 C 
BRANCH  10  11
HETATM   11  C4  UNL     1      26.204   6.409  49.423  1.00  0.00     0.010 C 
BRANCH  11  12
HETATM   12  C2  UNL     1      27.386   6.930  48.697  1.00  0.00    -0.023 C 
HETATM   13  C1  UNL     1      28.317   5.876  48.215  1.00  0.00     0.009 C 
HETATM   14  C3  UNL     1      26.831   7.608  47.428  1.00  0.00     0.009 C 
ENDBRANCH  11  12
ENDBRANCH  10  11
ENDBRANCH   8  10
ENDBRANCH   1   3
BRANCH   2  15
HETATM   15  O1  UNL     1      26.201  -0.313  55.001  1.00  0.00    -0.363 OA
BRANCH  15  16
HETATM   16  C13 UNL     1      25.210  -1.055  54.321  1.00  0.00     0.179 C 
BRANCH  16  17
HETATM   17  C14 UNL     1      23.916  -1.057  55.103  1.00  0.00     0.065 C 
BRANCH  17  18
HETATM   18  C15 UNL     1      22.786  -0.624  54.234  1.00  0.00    -0.056 A 
HETATM   19  C16 UNL     1      22.914  -0.308  52.899  1.00  0.00     0.010 A 
HETATM   20  C17 UNL     1      21.819   0.085  52.160  1.00  0.00     0.037 A 
HETATM   21  C18 UNL     1      20.552   0.179  52.723  1.00  0.00     0.065 A 
HETATM   22  C19 UNL     1      20.430  -0.140  54.067  1.00  0.00     0.037 A 
HETATM   23  C20 UNL     1      21.523  -0.535  54.808  1.00  0.00     0.010 A 
BRANCH  21  24
HETATM   24  O2  UNL     1      19.450   0.572  51.991  1.00  0.00    -0.361 OA
HETATM   25  H24 UNL     1      18.647  -0.022  51.941  1.00  0.00     0.217 HD
ENDBRANCH  21  24
ENDBRANCH  17  18
ENDBRANCH  16  17
ENDBRANCH  15  16
ENDBRANCH   2  15
TORSDOF 9
ENDMDL
MODEL 8
REMARK VINA RESULT:      -6.8      2.355      4.563
REMARK  9 active torsions:
REMARK  status: ('A' for Active; 'I' for Inactive)
REMARK    1  A    between atoms: C2_2  and  C4_4 
REMARK    2  A    between atoms: C4_4  and  C5_5 
REMARK    3  A    between atoms: C5_5  and  C6_6 
REMARK    4  A    between atoms: C10_10  and  C11_11 
REMARK    5  A    between atoms: C12_12  and  O1_13 
REMARK    6  A    between atoms: O1_13  and  C13_14 
REMARK    7  A    between atoms: C13_14  and  C14_15 
REMARK    8  A    between atoms: C14_15  and  C15_16 
REMARK    9  A    between atoms: C18_19  and  O2_20 
ROOT
HETATM    1  C11 UNL     1      20.721   1.389  52.966  1.00  0.00     0.026 C 
HETATM    2  C12 UNL     1      19.809   1.283  52.013  1.00  0.00     0.134 C 
ENDROOT
BRANCH   1   3
HETATM    3  C10 UNL     1      21.443   0.210  53.429  1.00  0.00     0.027 C 
HETATM    4  C9  UNL     1      22.746   0.230  53.303  1.00  0.00     0.013 A 
HETATM    5  C8  UNL     1      23.303   1.482  52.692  1.00  0.00     0.086 A 
HETATM    6  N1  UNL     1      23.852  -0.614  53.578  1.00  0.00    -0.363 N 
HETATM    7  C7  UNL     1      24.746   1.154  52.733  1.00  0.00     0.004 A 
HETATM    8  C6  UNL     1      25.107  -0.017  53.214  1.00  0.00     0.006 A 
HETATM    9  H27 UNL     1      23.483  -1.522  54.006  1.00  0.00     0.165 HD
BRANCH   8  10
HETATM   10  C5  UNL     1      26.205  -0.907  53.520  1.00  0.00     0.057 C 
BRANCH  10  11
HETATM   11  C4  UNL     1      27.481  -0.781  52.805  1.00  0.00     0.010 C 
BRANCH  11  12
HETATM   12  C2  UNL     1      28.663  -0.181  53.469  1.00  0.00    -0.023 C 
HETATM   13  C1  UNL     1      28.439   0.192  54.890  1.00  0.00     0.009 C 
HETATM   14  C3  UNL     1      29.736  -1.287  53.491  1.00  0.00     0.009 C 
ENDBRANCH  11  12
ENDBRANCH  10  11
ENDBRANCH   8  10
ENDBRANCH   1   3
BRANCH   2  15
HETATM   15  O1  UNL     1      19.086   2.389  51.531  1.00  0.00    -0.363 OA
BRANCH  15  16
HETATM   16  C13 UNL     1      19.678   3.658  51.718  1.00  0.00     0.179 C 
BRANCH  16  17
HETATM   17  C14 UNL     1      20.278   4.161  50.424  1.00  0.00     0.065 C 
BRANCH  17  18
HETATM   18  C15 UNL     1      21.759   4.265  50.548  1.00  0.00    -0.056 A 
HETATM   19  C16 UNL     1      22.404   5.011  51.510  1.00  0.00     0.010 A 
HETATM   20  C17 UNL     1      23.781   5.058  51.559  1.00  0.00     0.037 A 
HETATM   21  C18 UNL     1      24.570   4.361  50.650  1.00  0.00     0.065 A 
HETATM   22  C19 UNL     1      23.913   3.613  49.685  1.00  0.00     0.037 A 
HETATM   23  C20 UNL     1      22.537   3.564  49.634  1.00  0.00     0.010 A 
BRANCH  21  24
HETATM   24  O2  UNL     1      25.948   4.401  50.692  1.00  0.00    -0.361 OA
HETATM   25  H24 UNL     1      26.437   5.175  50.289  1.00  0.00     0.217 HD
ENDBRANCH  21  24
ENDBRANCH  17  18
ENDBRANCH  16  17
ENDBRANCH  15  16
ENDBRANCH   2  15
TORSDOF 9
ENDMDL
MODEL 9
REMARK VINA RESULT:      -6.7      5.440      7.508
REMARK  9 active torsions:
REMARK  status: ('A' for Active; 'I' for Inactive)
REMARK    1  A    between atoms: C2_2  and  C4_4 
REMARK    2  A    between atoms: C4_4  and  C5_5 
REMARK    3  A    between atoms: C5_5  and  C6_6 
REMARK    4  A    between atoms: C10_10  and  C11_11 
REMARK    5  A    between atoms: C12_12  and  O1_13 
REMARK    6  A    between atoms: O1_13  and  C13_14 
REMARK    7  A    between atoms: C13_14  and  C14_15 
REMARK    8  A    between atoms: C14_15  and  C15_16 
REMARK    9  A    between atoms: C18_19  and  O2_20 
ROOT
HETATM    1  C11 UNL     1      26.002   4.043  49.506  1.00  0.00     0.026 C 
HETATM    2  C12 UNL     1      25.381   3.616  50.592  1.00  0.00     0.134 C 
ENDROOT
BRANCH   1   3
HETATM    3  C10 UNL     1      25.932   5.447  49.119  1.00  0.00     0.027 C 
HETATM    4  C9  UNL     1      27.024   5.978  48.628  1.00  0.00     0.013 A 
HETATM    5  C8  UNL     1      28.195   5.046  48.539  1.00  0.00     0.086 A 
HETATM    6  N1  UNL     1      27.463   7.232  48.132  1.00  0.00    -0.363 N 
HETATM    7  C7  UNL     1      29.193   5.962  47.942  1.00  0.00     0.004 A 
HETATM    8  C6  UNL     1      28.834   7.207  47.702  1.00  0.00     0.006 A 
HETATM    9  H27 UNL     1      26.649   7.922  48.195  1.00  0.00     0.165 HD
BRANCH   8  10
HETATM   10  C5  UNL     1      29.236   8.500  47.197  1.00  0.00     0.057 C 
BRANCH  10  11
HETATM   11  C4  UNL     1      30.619   8.726  46.760  1.00  0.00     0.010 C 
BRANCH  11  12
HETATM   12  C2  UNL     1      31.553   9.524  47.589  1.00  0.00    -0.023 C 
HETATM   13  C1  UNL     1      32.014  10.783  46.947  1.00  0.00     0.009 C 
HETATM   14  C3  UNL     1      30.747   9.958  48.828  1.00  0.00     0.009 C 
ENDBRANCH  11  12
ENDBRANCH  10  11
ENDBRANCH   8  10
ENDBRANCH   1   3
BRANCH   2  15
HETATM   15  O1  UNL     1      25.418   2.273  51.008  1.00  0.00    -0.363 OA
BRANCH  15  16
HETATM   16  C13 UNL     1      25.628   2.046  52.386  1.00  0.00     0.179 C 
BRANCH  16  17
HETATM   17  C14 UNL     1      27.101   1.871  52.678  1.00  0.00     0.065 C 
BRANCH  17  18
HETATM   18  C15 UNL     1      27.432   0.425  52.814  1.00  0.00    -0.056 A 
HETATM   19  C16 UNL     1      26.563  -0.600  52.508  1.00  0.00     0.010 A 
HETATM   20  C17 UNL     1      26.943  -1.916  52.661  1.00  0.00     0.037 A 
HETATM   21  C18 UNL     1      28.206  -2.263  53.127  1.00  0.00     0.065 A 
HETATM   22  C19 UNL     1      29.075  -1.227  53.434  1.00  0.00     0.037 A 
HETATM   23  C20 UNL     1      28.698   0.089  53.280  1.00  0.00     0.010 A 
BRANCH  21  24
HETATM   24  O2  UNL     1      28.596  -3.578  53.283  1.00  0.00    -0.361 OA
HETATM   25  H24 UNL     1      28.648  -3.977  54.199  1.00  0.00     0.217 HD
ENDBRANCH  21  24
ENDBRANCH  17  18
ENDBRANCH  16  17
ENDBRANCH  15  16
ENDBRANCH   2  15
TORSDOF 9
ENDMDL
