MODEL 1
REMARK VINA RESULT:      -9.4      0.000      0.000
REMARK  5 active torsions:
REMARK  status: ('A' for Active; 'I' for Inactive)
REMARK    1  A    between atoms: C3_3  and  C4_4 
REMARK    2  A    between atoms: C8_9  and  C9_10 
REMARK    3  A    between atoms: N3_18  and  C15_19 
REMARK    4  A    between atoms: C15_19  and  C16_20 
REMARK    5  A    between atoms: C19_23  and  S1_24 
ROOT
HETATM    1  C1  UNL     1      23.098   2.480  49.422  1.00  0.00     0.041 C 
HETATM    2  C2  UNL     1      23.909   2.861  50.398  1.00  0.00     0.038 C 
HETATM    3  C3  UNL     1      24.675   2.276  51.497  1.00  0.00     0.161 C 
HETATM    4  N2  UNL     1      24.867   3.563  51.983  1.00  0.00    -0.223 NA
HETATM    5  N3  UNL     1      24.417   4.120  50.817  1.00  0.00    -0.310 N 
HETATM    6  H11 UNL     1      24.585   3.964  52.836  1.00  0.00     0.148 HD
ENDROOT
BRANCH   3   7
HETATM    7  C4  UNL     1      24.083   1.290  52.352  1.00  0.00    -0.019 A 
HETATM    8  C5  UNL     1      22.687   1.165  52.412  1.00  0.00     0.029 A 
HETATM    9  C6  UNL     1      21.937   0.274  53.145  1.00  0.00     0.117 A 
HETATM   10  N1  UNL     1      22.605  -0.610  53.920  1.00  0.00    -0.272 NA
HETATM   11  C7  UNL     1      23.968  -0.548  53.912  1.00  0.00     0.129 A 
HETATM   12  C8  UNL     1      24.703   0.369  53.158  1.00  0.00    -0.000 A 
BRANCH  12  13
HETATM   13  C9  UNL     1      26.134   0.281  53.302  1.00  0.00    -0.024 A 
HETATM   14  C10 UNL     1      27.183   1.047  53.739  1.00  0.00     0.015 A 
HETATM   15  C11 UNL     1      28.490   0.638  53.779  1.00  0.00     0.043 A 
HETATM   16  C12 UNL     1      28.856  -0.620  53.365  1.00  0.00     0.116 A 
HETATM   17  F1  UNL     1      30.179  -0.861  53.469  1.00  0.00    -0.206 F 
HETATM   18  C13 UNL     1      27.866  -1.444  52.913  1.00  0.00     0.043 A 
HETATM   19  C14 UNL     1      26.545  -1.003  52.885  1.00  0.00     0.015 A 
ENDBRANCH  12  13
ENDBRANCH   3   7
BRANCH   5  20
HETATM   20  C15 UNL     1      24.511   5.488  50.346  1.00  0.00     0.181 C 
BRANCH  20  21
HETATM   21  C16 UNL     1      25.766   5.757  49.656  1.00  0.00    -0.039 A 
HETATM   22  C17 UNL     1      26.128   7.076  49.456  1.00  0.00     0.010 A 
HETATM   23  C18 UNL     1      27.322   7.323  48.803  1.00  0.00     0.021 A 
HETATM   24  C19 UNL     1      28.152   6.316  48.353  1.00  0.00     0.031 A 
HETATM   25  C21 UNL     1      27.808   4.994  48.544  1.00  0.00     0.021 A 
HETATM   26  C22 UNL     1      26.606   4.768  49.201  1.00  0.00     0.010 A 
BRANCH  24  27
HETATM   27  S1  UNL     1      29.676   6.706  47.520  1.00  0.00     0.045 S 
HETATM   28  C20 UNL     1      30.800   5.316  47.842  1.00  0.00     0.133 C 
HETATM   29  O1  UNL     1      30.274   7.949  48.160  1.00  0.00    -0.253 OA
ENDBRANCH  24  27
ENDBRANCH  20  21
ENDBRANCH   5  20
TORSDOF 5
ENDMDL
MODEL 2
REMARK VINA RESULT:      -9.1      2.619      3.873
REMARK  5 active torsions:
REMARK  status: ('A' for Active; 'I' for Inactive)
REMARK    1  A    between atoms: C3_3  and  C4_4 
REMARK    2  A    between atoms: C8_9  and  C9_10 
REMARK    3  A    between atoms: N3_18  and  C15_19 
REMARK    4  A    between atoms: C15_19  and  C16_20 
REMARK    5  A    between atoms: C19_23  and  S1_24 
ROOT
HETATM    1  C1  UNL     1      23.658   3.833  52.491  1.00  0.00     0.041 C 
HETATM    2  C2  UNL     1      24.497   3.292  51.619  1.00  0.00     0.038 C 
HETATM    3  C3  UNL     1      25.332   2.100  51.474  1.00  0.00     0.161 C 
HETATM    4  N2  UNL     1      25.940   2.719  50.390  1.00  0.00    -0.223 NA
HETATM    5  N3  UNL     1      24.974   3.686  50.341  1.00  0.00    -0.310 N 
HETATM    6  H11 UNL     1      26.879   2.984  50.260  1.00  0.00     0.148 HD
ENDROOT
BRANCH   3   7
HETATM    7  C4  UNL     1      26.145   1.645  52.563  1.00  0.00    -0.019 A 
HETATM    8  C5  UNL     1      27.468   2.094  52.682  1.00  0.00     0.029 A 
HETATM    9  C6  UNL     1      28.391   1.795  53.658  1.00  0.00     0.117 A 
HETATM   10  N1  UNL     1      27.999   0.960  54.648  1.00  0.00    -0.272 NA
HETATM   11  C7  UNL     1      26.722   0.483  54.598  1.00  0.00     0.129 A 
HETATM   12  C8  UNL     1      25.807   0.803  53.593  1.00  0.00    -0.000 A 
BRANCH  12  13
HETATM   13  C9  UNL     1      24.513   0.181  53.713  1.00  0.00    -0.024 A 
HETATM   14  C10 UNL     1      23.326   0.111  53.032  1.00  0.00     0.015 A 
HETATM   15  C11 UNL     1      22.243  -0.635  53.418  1.00  0.00     0.043 A 
HETATM   16  C12 UNL     1      22.272  -1.395  54.562  1.00  0.00     0.116 A 
HETATM   17  F1  UNL     1      21.125  -2.066  54.795  1.00  0.00    -0.206 F 
HETATM   18  C13 UNL     1      23.422  -1.377  55.298  1.00  0.00     0.043 A 
HETATM   19  C14 UNL     1      24.509  -0.611  54.882  1.00  0.00     0.015 A 
ENDBRANCH  12  13
ENDBRANCH   3   7
BRANCH   5  20
HETATM   20  C15 UNL     1      24.684   4.656  49.302  1.00  0.00     0.181 C 
BRANCH  20  21
HETATM   21  C16 UNL     1      25.617   5.774  49.304  1.00  0.00    -0.039 A 
HETATM   22  C17 UNL     1      25.317   6.870  50.092  1.00  0.00     0.010 A 
HETATM   23  C18 UNL     1      26.210   7.926  50.090  1.00  0.00     0.021 A 
HETATM   24  C19 UNL     1      27.371   7.926  49.343  1.00  0.00     0.031 A 
HETATM   25  C21 UNL     1      27.687   6.841  48.551  1.00  0.00     0.021 A 
HETATM   26  C22 UNL     1      26.778   5.792  48.567  1.00  0.00     0.010 A 
BRANCH  24  27
HETATM   27  S1  UNL     1      28.476   9.321  49.389  1.00  0.00     0.045 S 
HETATM   28  C20 UNL     1      28.119  10.299  47.901  1.00  0.00     0.133 C 
HETATM   29  O1  UNL     1      29.904   8.810  49.283  1.00  0.00    -0.253 OA
ENDBRANCH  24  27
ENDBRANCH  20  21
ENDBRANCH   5  20
TORSDOF 5
ENDMDL
MODEL 3
REMARK VINA RESULT:      -8.9      3.966      5.503
REMARK  5 active torsions:
REMARK  status: ('A' for Active; 'I' for Inactive)
REMARK    1  A    between atoms: C3_3  and  C4_4 
REMARK    2  A    between atoms: C8_9  and  C9_10 
REMARK    3  A    between atoms: N3_18  and  C15_19 
REMARK    4  A    between atoms: C15_19  and  C16_20 
REMARK    5  A    between atoms: C19_23  and  S1_24 
ROOT
HETATM    1  C1  UNL     1      24.136   3.321  52.900  1.00  0.00     0.041 C 
HETATM    2  C2  UNL     1      25.030   2.847  52.042  1.00  0.00     0.038 C 
HETATM    3  C3  UNL     1      25.806   1.632  51.807  1.00  0.00     0.161 C 
HETATM    4  N2  UNL     1      26.558   2.350  50.885  1.00  0.00    -0.223 NA
HETATM    5  N3  UNL     1      25.657   3.380  50.885  1.00  0.00    -0.310 N 
HETATM    6  H11 UNL     1      27.518   2.563  50.884  1.00  0.00     0.148 HD
ENDROOT
BRANCH   3   7
HETATM    7  C4  UNL     1      26.475   0.975  52.890  1.00  0.00    -0.019 A 
HETATM    8  C5  UNL     1      27.843   1.199  53.106  1.00  0.00     0.029 A 
HETATM    9  C6  UNL     1      28.651   0.687  54.095  1.00  0.00     0.117 A 
HETATM   10  N1  UNL     1      28.079  -0.147  54.994  1.00  0.00    -0.272 NA
HETATM   11  C7  UNL     1      26.749  -0.412  54.847  1.00  0.00     0.129 A 
HETATM   12  C8  UNL     1      25.954   0.123  53.831  1.00  0.00    -0.000 A 
BRANCH  12  13
HETATM   13  C9  UNL     1      24.575  -0.296  53.841  1.00  0.00    -0.024 A 
HETATM   14  C10 UNL     1      23.485  -0.300  53.010  1.00  0.00     0.015 A 
HETATM   15  C11 UNL     1      22.261  -0.830  53.326  1.00  0.00     0.043 A 
HETATM   16  C12 UNL     1      22.031  -1.417  54.547  1.00  0.00     0.116 A 
HETATM   17  F1  UNL     1      20.775  -1.886  54.695  1.00  0.00    -0.206 F 
HETATM   18  C13 UNL     1      23.070  -1.450  55.432  1.00  0.00     0.043 A 
HETATM   19  C14 UNL     1      24.305  -0.904  55.085  1.00  0.00     0.015 A 
ENDBRANCH  12  13
ENDBRANCH   3   7
BRANCH   5  20
HETATM   20  C15 UNL     1      25.531   4.501  49.974  1.00  0.00     0.181 C 
BRANCH  20  21
HETATM   21  C16 UNL     1      24.339   4.415  49.142  1.00  0.00    -0.039 A 
HETATM   22  C17 UNL     1      23.742   3.178  48.988  1.00  0.00     0.010 A 
HETATM   23  C18 UNL     1      22.607   3.106  48.200  1.00  0.00     0.021 A 
HETATM   24  C19 UNL     1      22.060   4.206  47.571  1.00  0.00     0.031 A 
HETATM   25  C21 UNL     1      22.641   5.448  47.714  1.00  0.00     0.021 A 
HETATM   26  C22 UNL     1      23.778   5.500  48.510  1.00  0.00     0.010 A 
BRANCH  24  27
HETATM   27  S1  UNL     1      20.597   4.040  46.570  1.00  0.00     0.045 S 
HETATM   28  C20 UNL     1      21.169   3.953  44.848  1.00  0.00     0.133 C 
HETATM   29  O1  UNL     1      19.760   5.301  46.722  1.00  0.00    -0.253 OA
ENDBRANCH  24  27
ENDBRANCH  20  21
ENDBRANCH   5  20
TORSDOF 5
ENDMDL
MODEL 4
REMARK VINA RESULT:      -8.9      2.566      4.127
REMARK  5 active torsions:
REMARK  status: ('A' for Active; 'I' for Inactive)
REMARK    1  A    between atoms: C3_3  and  C4_4 
REMARK    2  A    between atoms: C8_9  and  C9_10 
REMARK    3  A    between atoms: N3_18  and  C15_19 
REMARK    4  A    between atoms: C15_19  and  C16_20 
REMARK    5  A    between atoms: C19_23  and  S1_24 
ROOT
HETATM    1  C1  UNL     1      23.752   4.497  52.648  1.00  0.00     0.041 C 
HETATM    2  C2  UNL     1      23.926   3.764  51.557  1.00  0.00     0.038 C 
HETATM    3  C3  UNL     1      23.903   2.361  51.147  1.00  0.00     0.161 C 
HETATM    4  N2  UNL     1      24.486   2.754  49.949  1.00  0.00    -0.223 NA
HETATM    5  N3  UNL     1      24.235   4.074  50.206  1.00  0.00    -0.310 N 
HETATM    6  H11 UNL     1      25.354   2.506  49.559  1.00  0.00     0.148 HD
ENDROOT
BRANCH   3   7
HETATM    7  C4  UNL     1      24.551   1.361  51.942  1.00  0.00    -0.019 A 
HETATM    8  C5  UNL     1      25.950   1.334  52.028  1.00  0.00     0.029 A 
HETATM    9  C6  UNL     1      26.750   0.478  52.750  1.00  0.00     0.117 A 
HETATM   10  N1  UNL     1      26.133  -0.476  53.484  1.00  0.00    -0.272 NA
HETATM   11  C7  UNL     1      24.770  -0.512  53.450  1.00  0.00     0.129 A 
HETATM   12  C8  UNL     1      23.984   0.372  52.706  1.00  0.00    -0.000 A 
BRANCH  12  13
HETATM   13  C9  UNL     1      22.562   0.155  52.791  1.00  0.00    -0.024 A 
HETATM   14  C10 UNL     1      21.417   0.496  52.119  1.00  0.00     0.015 A 
HETATM   15  C11 UNL     1      20.156   0.079  52.457  1.00  0.00     0.043 A 
HETATM   16  C12 UNL     1      19.942  -0.742  53.538  1.00  0.00     0.116 A 
HETATM   17  F1  UNL     1      18.645  -1.057  53.730  1.00  0.00    -0.206 F 
HETATM   18  C13 UNL     1      21.035  -1.125  54.260  1.00  0.00     0.043 A 
HETATM   19  C14 UNL     1      22.307  -0.687  53.895  1.00  0.00     0.015 A 
ENDBRANCH  12  13
ENDBRANCH   3   7
BRANCH   5  20
HETATM   20  C15 UNL     1      24.302   5.220  49.320  1.00  0.00     0.181 C 
BRANCH  20  21
HETATM   21  C16 UNL     1      25.669   5.563  48.950  1.00  0.00    -0.039 A 
HETATM   22  C17 UNL     1      25.931   6.863  48.563  1.00  0.00     0.010 A 
HETATM   23  C18 UNL     1      27.232   7.181  48.217  1.00  0.00     0.021 A 
HETATM   24  C19 UNL     1      28.261   6.261  48.244  1.00  0.00     0.031 A 
HETATM   25  C21 UNL     1      28.019   4.959  48.628  1.00  0.00     0.021 A 
HETATM   26  C22 UNL     1      26.706   4.661  48.972  1.00  0.00     0.010 A 
BRANCH  24  27
HETATM   27  S1  UNL     1      29.913   6.739  47.786  1.00  0.00     0.045 S 
HETATM   28  C20 UNL     1      30.894   5.211  47.758  1.00  0.00     0.133 C 
HETATM   29  O1  UNL     1      30.477   7.638  48.875  1.00  0.00    -0.253 OA
ENDBRANCH  24  27
ENDBRANCH  20  21
ENDBRANCH   5  20
TORSDOF 5
ENDMDL
MODEL 5
REMARK VINA RESULT:      -8.8      4.562      7.231
REMARK  5 active torsions:
REMARK  status: ('A' for Active; 'I' for Inactive)
REMARK    1  A    between atoms: C3_3  and  C4_4 
REMARK    2  A    between atoms: C8_9  and  C9_10 
REMARK    3  A    between atoms: N3_18  and  C15_19 
REMARK    4  A    between atoms: C15_19  and  C16_20 
REMARK    5  A    between atoms: C19_23  and  S1_24 
ROOT
HETATM    1  C1  UNL     1      24.650  -0.959  55.833  1.00  0.00     0.041 C 
HETATM    2  C2  UNL     1      24.796  -0.841  54.521  1.00  0.00     0.038 C 
HETATM    3  C3  UNL     1      25.860  -0.652  53.536  1.00  0.00     0.161 C 
HETATM    4  N2  UNL     1      24.872  -0.389  52.595  1.00  0.00    -0.223 NA
HETATM    5  N3  UNL     1      23.891  -0.852  53.428  1.00  0.00    -0.310 N 
HETATM    6  H11 UNL     1      24.701   0.426  52.072  1.00  0.00     0.148 HD
ENDROOT
BRANCH   3   7
HETATM    7  C4  UNL     1      26.890   0.320  53.755  1.00  0.00    -0.019 A 
HETATM    8  C5  UNL     1      28.040  -0.031  54.477  1.00  0.00     0.029 A 
HETATM    9  C6  UNL     1      29.138   0.743  54.770  1.00  0.00     0.117 A 
HETATM   10  N1  UNL     1      29.138   2.017  54.315  1.00  0.00    -0.272 NA
HETATM   11  C7  UNL     1      28.051   2.431  53.603  1.00  0.00     0.129 A 
HETATM   12  C8  UNL     1      26.948   1.620  53.322  1.00  0.00    -0.000 A 
BRANCH  12  13
HETATM   13  C9  UNL     1      25.894   2.252  52.570  1.00  0.00    -0.024 A 
HETATM   14  C10 UNL     1      24.635   2.756  52.768  1.00  0.00     0.015 A 
HETATM   15  C11 UNL     1      23.867   3.351  51.801  1.00  0.00     0.043 A 
HETATM   16  C12 UNL     1      24.324   3.489  50.513  1.00  0.00     0.116 A 
HETATM   17  F1  UNL     1      23.445   4.096  49.689  1.00  0.00    -0.206 F 
HETATM   18  C13 UNL     1      25.572   3.010  50.235  1.00  0.00     0.043 A 
HETATM   19  C14 UNL     1      26.332   2.410  51.237  1.00  0.00     0.015 A 
ENDBRANCH  12  13
ENDBRANCH   3   7
BRANCH   5  20
HETATM   20  C15 UNL     1      22.508  -1.183  53.138  1.00  0.00     0.181 C 
BRANCH  20  21
HETATM   21  C16 UNL     1      21.767  -0.056  52.587  1.00  0.00    -0.039 A 
HETATM   22  C17 UNL     1      21.174   0.826  53.471  1.00  0.00     0.010 A 
HETATM   23  C18 UNL     1      20.475   1.895  52.939  1.00  0.00     0.021 A 
HETATM   24  C19 UNL     1      20.351   2.109  51.581  1.00  0.00     0.031 A 
HETATM   25  C21 UNL     1      20.937   1.240  50.685  1.00  0.00     0.021 A 
HETATM   26  C22 UNL     1      21.634   0.174  51.238  1.00  0.00     0.010 A 
BRANCH  24  27
HETATM   27  S1  UNL     1      19.436   3.507  50.967  1.00  0.00     0.045 S 
HETATM   28  C20 UNL     1      20.576   4.920  51.015  1.00  0.00     0.133 C 
HETATM   29  O1  UNL     1      18.291   3.796  51.925  1.00  0.00    -0.253 OA
ENDBRANCH  24  27
ENDBRANCH  20  21
ENDBRANCH   5  20
TORSDOF 5
ENDMDL
MODEL 6
REMARK VINA RESULT:      -8.8      1.599      1.961
REMARK  5 active torsions:
REMARK  status: ('A' for Active; 'I' for Inactive)
REMARK    1  A    between atoms: C3_3  and  C4_4 
REMARK    2  A    between atoms: C8_9  and  C9_10 
REMARK    3  A    between atoms: N3_18  and  C15_19 
REMARK    4  A    between atoms: C15_19  and  C16_20 
REMARK    5  A    between atoms: C19_23  and  S1_24 
ROOT
HETATM    1  C1  UNL     1      22.394   1.755  49.861  1.00  0.00     0.041 C 
HETATM    2  C2  UNL     1      22.868   2.392  50.923  1.00  0.00     0.038 C 
HETATM    3  C3  UNL     1      23.550   2.096  52.181  1.00  0.00     0.161 C 
HETATM    4  N2  UNL     1      23.279   3.399  52.577  1.00  0.00    -0.223 NA
HETATM    5  N3  UNL     1      22.915   3.758  51.308  1.00  0.00    -0.310 N 
HETATM    6  H11 UNL     1      22.742   3.730  53.333  1.00  0.00     0.148 HD
ENDROOT
BRANCH   3   7
HETATM    7  C4  UNL     1      23.111   1.011  53.008  1.00  0.00    -0.019 A 
HETATM    8  C5  UNL     1      21.751   0.879  53.325  1.00  0.00     0.029 A 
HETATM    9  C6  UNL     1      21.136  -0.096  54.076  1.00  0.00     0.117 A 
HETATM   10  N1  UNL     1      21.920  -1.070  54.591  1.00  0.00    -0.272 NA
HETATM   11  C7  UNL     1      23.256  -1.008  54.324  1.00  0.00     0.129 A 
HETATM   12  C8  UNL     1      23.854  -0.003  53.559  1.00  0.00    -0.000 A 
BRANCH  12  13
HETATM   13  C9  UNL     1      25.283  -0.109  53.409  1.00  0.00    -0.024 A 
HETATM   14  C10 UNL     1      26.210  -0.339  52.427  1.00  0.00     0.015 A 
HETATM   15  C11 UNL     1      27.568  -0.343  52.615  1.00  0.00     0.043 A 
HETATM   16  C12 UNL     1      28.117  -0.107  53.852  1.00  0.00     0.116 A 
HETATM   17  F1  UNL     1      29.465  -0.147  53.863  1.00  0.00    -0.206 F 
HETATM   18  C13 UNL     1      27.256   0.130  54.885  1.00  0.00     0.043 A 
HETATM   19  C14 UNL     1      25.880   0.129  54.666  1.00  0.00     0.015 A 
ENDBRANCH  12  13
ENDBRANCH   3   7
BRANCH   5  20
HETATM   20  C15 UNL     1      22.707   5.076  50.741  1.00  0.00     0.181 C 
BRANCH  20  21
HETATM   21  C16 UNL     1      23.933   5.658  50.213  1.00  0.00    -0.039 A 
HETATM   22  C17 UNL     1      24.390   6.834  50.778  1.00  0.00     0.010 A 
HETATM   23  C18 UNL     1      25.558   7.379  50.273  1.00  0.00     0.021 A 
HETATM   24  C19 UNL     1      26.270   6.800  49.243  1.00  0.00     0.031 A 
HETATM   25  C21 UNL     1      25.830   5.626  48.667  1.00  0.00     0.021 A 
HETATM   26  C22 UNL     1      24.657   5.096  49.188  1.00  0.00     0.010 A 
BRANCH  24  27
HETATM   27  S1  UNL     1      27.766   7.556  48.642  1.00  0.00     0.045 S 
HETATM   28  C20 UNL     1      27.247   8.969  47.625  1.00  0.00     0.133 C 
HETATM   29  O1  UNL     1      28.479   6.564  47.736  1.00  0.00    -0.253 OA
ENDBRANCH  24  27
ENDBRANCH  20  21
ENDBRANCH   5  20
TORSDOF 5
ENDMDL
MODEL 7
REMARK VINA RESULT:      -8.4      3.278      4.280
REMARK  5 active torsions:
REMARK  status: ('A' for Active; 'I' for Inactive)
REMARK    1  A    between atoms: C3_3  and  C4_4 
REMARK    2  A    between atoms: C8_9  and  C9_10 
REMARK    3  A    between atoms: N3_18  and  C15_19 
REMARK    4  A    between atoms: C15_19  and  C16_20 
REMARK    5  A    between atoms: C19_23  and  S1_24 
ROOT
HETATM    1  C1  UNL     1      23.014   2.288  49.593  1.00  0.00     0.041 C 
HETATM    2  C2  UNL     1      23.920   2.579  50.516  1.00  0.00     0.038 C 
HETATM    3  C3  UNL     1      24.631   1.930  51.615  1.00  0.00     0.161 C 
HETATM    4  N2  UNL     1      25.051   3.190  52.021  1.00  0.00    -0.223 NA
HETATM    5  N3  UNL     1      24.643   3.756  50.844  1.00  0.00    -0.310 N 
HETATM    6  H11 UNL     1      24.877   3.672  52.861  1.00  0.00     0.148 HD
ENDROOT
BRANCH   3   7
HETATM    7  C4  UNL     1      23.928   1.096  52.545  1.00  0.00    -0.019 A 
HETATM    8  C5  UNL     1      22.546   1.257  52.721  1.00  0.00     0.029 A 
HETATM    9  C6  UNL     1      21.697   0.548  53.539  1.00  0.00     0.117 A 
HETATM   10  N1  UNL     1      22.238  -0.442  54.285  1.00  0.00    -0.272 NA
HETATM   11  C7  UNL     1      23.579  -0.658  54.166  1.00  0.00     0.129 A 
HETATM   12  C8  UNL     1      24.417   0.081  53.327  1.00  0.00    -0.000 A 
BRANCH  12  13
HETATM   13  C9  UNL     1      25.808  -0.293  53.359  1.00  0.00    -0.024 A 
HETATM   14  C10 UNL     1      26.691  -1.071  52.656  1.00  0.00     0.015 A 
HETATM   15  C11 UNL     1      28.026  -1.194  52.942  1.00  0.00     0.043 A 
HETATM   16  C12 UNL     1      28.595  -0.522  53.996  1.00  0.00     0.116 A 
HETATM   17  F1  UNL     1      29.917  -0.754  54.137  1.00  0.00    -0.206 F 
HETATM   18  C13 UNL     1      27.778   0.274  54.746  1.00  0.00     0.043 A 
HETATM   19  C14 UNL     1      26.425   0.383  54.434  1.00  0.00     0.015 A 
ENDBRANCH  12  13
ENDBRANCH   3   7
BRANCH   5  20
HETATM   20  C15 UNL     1      24.936   5.066  50.295  1.00  0.00     0.181 C 
BRANCH  20  21
HETATM   21  C16 UNL     1      23.732   5.841  50.027  1.00  0.00    -0.039 A 
HETATM   22  C17 UNL     1      23.111   6.465  51.092  1.00  0.00     0.010 A 
HETATM   23  C18 UNL     1      21.970   7.203  50.828  1.00  0.00     0.021 A 
HETATM   24  C19 UNL     1      21.439   7.335  49.561  1.00  0.00     0.031 A 
HETATM   25  C21 UNL     1      22.046   6.720  48.486  1.00  0.00     0.021 A 
HETATM   26  C22 UNL     1      23.189   5.985  48.772  1.00  0.00     0.010 A 
BRANCH  24  27
HETATM   27  S1  UNL     1      19.967   8.300  49.294  1.00  0.00     0.045 S 
HETATM   28  C20 UNL     1      19.189   7.633  47.795  1.00  0.00     0.133 C 
HETATM   29  O1  UNL     1      20.375   9.737  49.010  1.00  0.00    -0.253 OA
ENDBRANCH  24  27
ENDBRANCH  20  21
ENDBRANCH   5  20
TORSDOF 5
ENDMDL
MODEL 8
REMARK VINA RESULT:      -8.4      4.626      6.607
REMARK  5 active torsions:
REMARK  status: ('A' for Active; 'I' for Inactive)
REMARK    1  A    between atoms: C3_3  and  C4_4 
REMARK    2  A    between atoms: C8_9  and  C9_10 
REMARK    3  A    between atoms: N3_18  and  C15_19 
REMARK    4  A    between atoms: C15_19  and  C16_20 
REMARK    5  A    between atoms: C19_23  and  S1_24 
ROOT
HETATM    1  C1  UNL     1      25.884   2.902  50.153  1.00  0.00     0.041 C 
HETATM    2  C2  UNL     1      25.519   2.980  51.425  1.00  0.00     0.038 C 
HETATM    3  C3  UNL     1      25.938   2.479  52.732  1.00  0.00     0.161 C 
HETATM    4  N2  UNL     1      24.725   2.929  53.238  1.00  0.00    -0.223 NA
HETATM    5  N3  UNL     1      24.468   3.650  52.104  1.00  0.00    -0.310 N 
HETATM    6  H11 UNL     1      23.989   2.425  53.653  1.00  0.00     0.148 HD
ENDROOT
BRANCH   3   7
HETATM    7  C4  UNL     1      26.296   1.102  52.903  1.00  0.00    -0.019 A 
HETATM    8  C5  UNL     1      27.645   0.742  53.038  1.00  0.00     0.029 A 
HETATM    9  C6  UNL     1      28.184  -0.509  53.232  1.00  0.00     0.117 A 
HETATM   10  N1  UNL     1      27.323  -1.550  53.306  1.00  0.00    -0.272 NA
HETATM   11  C7  UNL     1      25.993  -1.276  53.183  1.00  0.00     0.129 A 
HETATM   12  C8  UNL     1      25.475   0.006  52.985  1.00  0.00    -0.000 A 
BRANCH  12  13
HETATM   13  C9  UNL     1      24.041   0.081  52.863  1.00  0.00    -0.024 A 
HETATM   14  C10 UNL     1      23.095   0.442  51.941  1.00  0.00     0.015 A 
HETATM   15  C11 UNL     1      21.740   0.361  52.134  1.00  0.00     0.043 A 
HETATM   16  C12 UNL     1      21.215  -0.107  53.314  1.00  0.00     0.116 A 
HETATM   17  F1  UNL     1      19.866  -0.122  53.338  1.00  0.00    -0.206 F 
HETATM   18  C13 UNL     1      22.096  -0.487  54.285  1.00  0.00     0.043 A 
HETATM   19  C14 UNL     1      23.468  -0.394  54.063  1.00  0.00     0.015 A 
ENDBRANCH  12  13
ENDBRANCH   3   7
BRANCH   5  20
HETATM   20  C15 UNL     1      23.469   4.674  51.864  1.00  0.00     0.181 C 
BRANCH  20  21
HETATM   21  C16 UNL     1      22.211   4.125  51.376  1.00  0.00    -0.039 A 
HETATM   22  C17 UNL     1      21.133   4.101  52.241  1.00  0.00     0.010 A 
HETATM   23  C18 UNL     1      19.941   3.581  51.768  1.00  0.00     0.021 A 
HETATM   24  C19 UNL     1      19.793   3.092  50.486  1.00  0.00     0.031 A 
HETATM   25  C21 UNL     1      20.857   3.108  49.609  1.00  0.00     0.021 A 
HETATM   26  C22 UNL     1      22.044   3.635  50.102  1.00  0.00     0.010 A 
BRANCH  24  27
HETATM   27  S1  UNL     1      18.229   2.436  49.944  1.00  0.00     0.045 S 
HETATM   28  C20 UNL     1      18.288   0.650  50.269  1.00  0.00     0.133 C 
HETATM   29  O1  UNL     1      18.115   2.635  48.441  1.00  0.00    -0.253 OA
ENDBRANCH  24  27
ENDBRANCH  20  21
ENDBRANCH   5  20
TORSDOF 5
ENDMDL
MODEL 9
REMARK VINA RESULT:      -8.4      4.052      7.706
REMARK  5 active torsions:
REMARK  status: ('A' for Active; 'I' for Inactive)
REMARK    1  A    between atoms: C3_3  and  C4_4 
REMARK    2  A    between atoms: C8_9  and  C9_10 
REMARK    3  A    between atoms: N3_18  and  C15_19 
REMARK    4  A    between atoms: C15_19  and  C16_20 
REMARK    5  A    between atoms: C19_23  and  S1_24 
ROOT
HETATM    1  C1  UNL     1      22.334   5.538  51.611  1.00  0.00     0.041 C 
HETATM    2  C2  UNL     1      22.912   4.562  50.924  1.00  0.00     0.038 C 
HETATM    3  C3  UNL     1      23.696   4.378  49.704  1.00  0.00     0.161 C 
HETATM    4  N2  UNL     1      23.485   3.011  49.835  1.00  0.00    -0.223 NA
HETATM    5  N3  UNL     1      23.018   3.159  51.112  1.00  0.00    -0.310 N 
HETATM    6  H11 UNL     1      23.023   2.384  49.234  1.00  0.00     0.148 HD
ENDROOT
BRANCH   3   7
HETATM    7  C4  UNL     1      23.312   5.029  48.487  1.00  0.00    -0.019 A 
HETATM    8  C5  UNL     1      22.433   4.391  47.600  1.00  0.00     0.029 A 
HETATM    9  C6  UNL     1      21.931   4.855  46.406  1.00  0.00     0.117 A 
HETATM   10  N1  UNL     1      22.320   6.088  46.008  1.00  0.00    -0.272 NA
HETATM   11  C7  UNL     1      23.177   6.770  46.821  1.00  0.00     0.129 A 
HETATM   12  C8  UNL     1      23.670   6.271  48.029  1.00  0.00    -0.000 A 
BRANCH  12  13
HETATM   13  C9  UNL     1      24.578   7.143  48.731  1.00  0.00    -0.024 A 
HETATM   14  C10 UNL     1      24.545   8.123  49.688  1.00  0.00     0.015 A 
HETATM   15  C11 UNL     1      25.647   8.767  50.189  1.00  0.00     0.043 A 
HETATM   16  C12 UNL     1      26.912   8.463  49.748  1.00  0.00     0.116 A 
HETATM   17  F1  UNL     1      27.881   9.188  50.344  1.00  0.00    -0.206 F 
HETATM   18  C13 UNL     1      27.027   7.495  48.792  1.00  0.00     0.043 A 
HETATM   19  C14 UNL     1      25.891   6.856  48.301  1.00  0.00     0.015 A 
ENDBRANCH  12  13
ENDBRANCH   3   7
BRANCH   5  20
HETATM   20  C15 UNL     1      22.785   2.158  52.136  1.00  0.00     0.181 C 
BRANCH  20  21
HETATM   21  C16 UNL     1      24.018   1.694  52.755  1.00  0.00    -0.039 A 
HETATM   22  C17 UNL     1      24.227   0.330  52.845  1.00  0.00     0.010 A 
HETATM   23  C18 UNL     1      25.403  -0.102  53.432  1.00  0.00     0.021 A 
HETATM   24  C19 UNL     1      26.359   0.764  53.923  1.00  0.00     0.031 A 
HETATM   25  C21 UNL     1      26.168   2.127  53.842  1.00  0.00     0.021 A 
HETATM   26  C22 UNL     1      24.982   2.541  53.249  1.00  0.00     0.010 A 
BRANCH  24  27
HETATM   27  S1  UNL     1      27.850   0.137  54.667  1.00  0.00     0.045 S 
HETATM   28  C20 UNL     1      29.153   1.343  54.284  1.00  0.00     0.133 C 
HETATM   29  O1  UNL     1      28.214  -1.176  53.990  1.00  0.00    -0.253 OA
ENDBRANCH  24  27
ENDBRANCH  20  21
ENDBRANCH   5  20
TORSDOF 5
ENDMDL
