MODEL 1
REMARK VINA RESULT:      -8.1      0.000      0.000
REMARK  3 active torsions:
REMARK  status: ('A' for Active; 'I' for Inactive)
REMARK       I    between atoms: C1_2  and  N1_3 
REMARK    1  A    between atoms: C1_2  and  C8_14 
REMARK    2  A    between atoms: N1_3  and  S1_4 
REMARK    3  A    between atoms: S1_4  and  C2_7 
ROOT
HETATM    1  O1  UNL     1      24.421  -0.790  54.805  1.00  0.00    -0.267 OA
HETATM    2  C1  UNL     1      23.839  -0.152  53.895  1.00  0.00     0.266 C 
HETATM    3  N1  UNL     1      24.614   0.742  53.116  1.00  0.00    -0.246 N 
HETATM    4  H1  UNL     1      24.034   1.234  52.381  1.00  0.00     0.182 HD
ENDROOT
BRANCH   3   5
HETATM    5  S1  UNL     1      26.244   1.275  53.002  1.00  0.00     0.266 S 
HETATM    6  O2  UNL     1      26.476   2.235  54.167  1.00  0.00    -0.200 OA
HETATM    7  O3  UNL     1      26.444   2.021  51.705  1.00  0.00    -0.200 OA
BRANCH   5   8
HETATM    8  C2  UNL     1      27.380  -0.048  53.092  1.00  0.00     0.097 A 
HETATM    9  C3  UNL     1      26.954  -1.307  52.638  1.00  0.00     0.027 A 
HETATM   10  C4  UNL     1      27.667  -2.484  52.630  1.00  0.00     0.002 A 
HETATM   11  C5  UNL     1      28.951  -2.422  53.126  1.00  0.00     0.001 A 
HETATM   12  C6  UNL     1      29.449  -1.224  53.592  1.00  0.00     0.020 A 
HETATM   13  C7  UNL     1      28.665  -0.099  53.561  1.00  0.00     0.034 A 
HETATM   14 BR1  UNL     1      29.368   1.552  54.182  1.00  0.00    -0.049 Br
ENDBRANCH   5   8
ENDBRANCH   3   5
BRANCH   2  15
HETATM   15  C8  UNL     1      22.417  -0.355  53.683  1.00  0.00     0.050 A 
HETATM   16  C9  UNL     1      21.880  -1.408  54.391  1.00  0.00     0.022 A 
HETATM   17  C10 UNL     1      20.508  -1.652  54.225  1.00  0.00     0.045 A 
HETATM   18  C11 UNL     1      19.664  -0.921  53.413  1.00  0.00     0.125 A 
HETATM   19 CL1  UNL     1      17.980  -1.310  53.280  1.00  0.00    -0.062 Cl
HETATM   20  N2  UNL     1      20.265   0.086  52.757  1.00  0.00    -0.248 NA
HETATM   21  C12 UNL     1      21.575   0.351  52.890  1.00  0.00     0.135 A 
ENDBRANCH   2  15
TORSDOF 3
ENDMDL
MODEL 2
REMARK VINA RESULT:      -8.0      5.034      6.332
REMARK  3 active torsions:
REMARK  status: ('A' for Active; 'I' for Inactive)
REMARK       I    between atoms: C1_2  and  N1_3 
REMARK    1  A    between atoms: C1_2  and  C8_14 
REMARK    2  A    between atoms: N1_3  and  S1_4 
REMARK    3  A    between atoms: S1_4  and  C2_7 
ROOT
HETATM    1  O1  UNL     1      24.292   2.661  50.663  1.00  0.00    -0.267 OA
HETATM    2  C1  UNL     1      25.419   3.148  50.925  1.00  0.00     0.266 C 
HETATM    3  N1  UNL     1      26.138   2.596  52.015  1.00  0.00    -0.246 N 
HETATM    4  H1  UNL     1      27.070   3.076  52.158  1.00  0.00     0.182 HD
ENDROOT
BRANCH   3   5
HETATM    5  S1  UNL     1      25.950   1.359  53.192  1.00  0.00     0.266 S 
HETATM    6  O2  UNL     1      24.672   0.602  52.835  1.00  0.00    -0.200 OA
HETATM    7  O3  UNL     1      25.787   1.978  54.558  1.00  0.00    -0.200 OA
BRANCH   5   8
HETATM    8  C2  UNL     1      27.303   0.255  53.212  1.00  0.00     0.097 A 
HETATM    9  C3  UNL     1      27.050  -1.092  52.906  1.00  0.00     0.027 A 
HETATM   10  C4  UNL     1      27.952  -2.132  52.878  1.00  0.00     0.002 A 
HETATM   11  C5  UNL     1      29.256  -1.815  53.187  1.00  0.00     0.001 A 
HETATM   12  C6  UNL     1      29.591  -0.515  53.499  1.00  0.00     0.020 A 
HETATM   13  C7  UNL     1      28.625   0.459  53.502  1.00  0.00     0.034 A 
HETATM   14 BR1  UNL     1      29.100   2.252  53.909  1.00  0.00    -0.049 Br
ENDBRANCH   5   8
ENDBRANCH   3   5
BRANCH   2  15
HETATM   15  C8  UNL     1      25.928   4.238  50.114  1.00  0.00     0.050 A 
HETATM   16  C9  UNL     1      27.046   3.925  49.373  1.00  0.00     0.022 A 
HETATM   17  C10 UNL     1      27.582   4.941  48.569  1.00  0.00     0.045 A 
HETATM   18  C11 UNL     1      27.077   6.222  48.466  1.00  0.00     0.125 A 
HETATM   19 CL1  UNL     1      27.819   7.405  47.439  1.00  0.00    -0.062 Cl
HETATM   20  N2  UNL     1      25.987   6.448  49.219  1.00  0.00    -0.248 NA
HETATM   21  C12 UNL     1      25.444   5.500  50.002  1.00  0.00     0.135 A 
ENDBRANCH   2  15
TORSDOF 3
ENDMDL
MODEL 3
REMARK VINA RESULT:      -7.8      4.536      7.339
REMARK  3 active torsions:
REMARK  status: ('A' for Active; 'I' for Inactive)
REMARK       I    between atoms: C1_2  and  N1_3 
REMARK    1  A    between atoms: C1_2  and  C8_14 
REMARK    2  A    between atoms: N1_3  and  S1_4 
REMARK    3  A    between atoms: S1_4  and  C2_7 
ROOT
HETATM    1  O1  UNL     1      23.625  -1.343  55.672  1.00  0.00    -0.267 OA
HETATM    2  C1  UNL     1      24.021  -0.803  54.610  1.00  0.00     0.266 C 
HETATM    3  N1  UNL     1      23.039  -0.388  53.677  1.00  0.00    -0.246 N 
HETATM    4  H1  UNL     1      23.471   0.049  52.815  1.00  0.00     0.182 HD
ENDROOT
BRANCH   3   5
HETATM    5  S1  UNL     1      21.328  -0.377  53.521  1.00  0.00     0.266 S 
HETATM    6  O2  UNL     1      20.791   0.531  54.627  1.00  0.00    -0.200 OA
HETATM    7  O3  UNL     1      20.791  -1.772  53.729  1.00  0.00    -0.200 OA
BRANCH   5   8
HETATM    8  C2  UNL     1      20.809   0.219  51.964  1.00  0.00     0.097 A 
HETATM    9  C3  UNL     1      21.789   0.755  51.112  1.00  0.00     0.027 A 
HETATM   10  C4  UNL     1      21.609   1.294  49.858  1.00  0.00     0.002 A 
HETATM   11  C5  UNL     1      20.317   1.310  49.382  1.00  0.00     0.001 A 
HETATM   12  C6  UNL     1      19.294   0.803  50.155  1.00  0.00     0.020 A 
HETATM   13  C7  UNL     1      19.567   0.285  51.395  1.00  0.00     0.034 A 
HETATM   14 BR1  UNL     1      18.155  -0.434  52.443  1.00  0.00    -0.049 Br
ENDBRANCH   5   8
ENDBRANCH   3   5
BRANCH   2  15
HETATM   15  C8  UNL     1      25.445  -0.630  54.389  1.00  0.00     0.050 A 
HETATM   16  C9  UNL     1      25.877  -1.004  53.135  1.00  0.00     0.022 A 
HETATM   17  C10 UNL     1      27.245  -0.860  52.865  1.00  0.00     0.045 A 
HETATM   18  C11 UNL     1      28.184  -0.375  53.754  1.00  0.00     0.125 A 
HETATM   19 CL1  UNL     1      29.856  -0.237  53.315  1.00  0.00    -0.062 Cl
HETATM   20  N2  UNL     1      27.683  -0.033  54.953  1.00  0.00    -0.248 NA
HETATM   21  C12 UNL     1      26.379  -0.157  55.250  1.00  0.00     0.135 A 
ENDBRANCH   2  15
TORSDOF 3
ENDMDL
MODEL 4
REMARK VINA RESULT:      -7.8      5.898      7.406
REMARK  3 active torsions:
REMARK  status: ('A' for Active; 'I' for Inactive)
REMARK       I    between atoms: C1_2  and  N1_3 
REMARK    1  A    between atoms: C1_2  and  C8_14 
REMARK    2  A    between atoms: N1_3  and  S1_4 
REMARK    3  A    between atoms: S1_4  and  C2_7 
ROOT
HETATM    1  O1  UNL     1      24.182   4.037  49.796  1.00  0.00    -0.267 OA
HETATM    2  C1  UNL     1      25.380   4.210  50.129  1.00  0.00     0.266 C 
HETATM    3  N1  UNL     1      25.866   3.482  51.242  1.00  0.00    -0.246 N 
HETATM    4  H1  UNL     1      26.881   3.699  51.446  1.00  0.00     0.182 HD
ENDROOT
BRANCH   3   5
HETATM    5  S1  UNL     1      25.294   2.329  52.381  1.00  0.00     0.266 S 
HETATM    6  O2  UNL     1      24.578   1.240  51.583  1.00  0.00    -0.200 OA
HETATM    7  O3  UNL     1      24.305   2.983  53.313  1.00  0.00    -0.200 OA
BRANCH   5   8
HETATM    8  C2  UNL     1      26.590   1.621  53.313  1.00  0.00     0.097 A 
HETATM    9  C3  UNL     1      27.834   2.274  53.301  1.00  0.00     0.027 A 
HETATM   10  C4  UNL     1      28.991   1.891  53.942  1.00  0.00     0.002 A 
HETATM   11  C5  UNL     1      28.922   0.732  54.683  1.00  0.00     0.001 A 
HETATM   12  C6  UNL     1      27.738   0.030  54.749  1.00  0.00     0.020 A 
HETATM   13  C7  UNL     1      26.633   0.486  54.076  1.00  0.00     0.034 A 
HETATM   14 BR1  UNL     1      24.999  -0.475  54.194  1.00  0.00    -0.049 Br
ENDBRANCH   5   8
ENDBRANCH   3   5
BRANCH   2  15
HETATM   15  C8  UNL     1      26.201   5.134  49.369  1.00  0.00     0.050 A 
HETATM   16  C9  UNL     1      27.413   4.619  48.963  1.00  0.00     0.022 A 
HETATM   17  C10 UNL     1      28.250   5.469  48.225  1.00  0.00     0.045 A 
HETATM   18  C11 UNL     1      27.952   6.772  47.877  1.00  0.00     0.125 A 
HETATM   19 CL1  UNL     1      29.061   7.737  46.959  1.00  0.00    -0.062 Cl
HETATM   20  N2  UNL     1      26.753   7.198  48.310  1.00  0.00    -0.248 NA
HETATM   21  C12 UNL     1      25.924   6.414  49.020  1.00  0.00     0.135 A 
ENDBRANCH   2  15
TORSDOF 3
ENDMDL
MODEL 5
REMARK VINA RESULT:      -7.7      4.509      6.832
REMARK  3 active torsions:
REMARK  status: ('A' for Active; 'I' for Inactive)
REMARK       I    between atoms: C1_2  and  N1_3 
REMARK    1  A    between atoms: C1_2  and  C8_14 
REMARK    2  A    between atoms: N1_3  and  S1_4 
REMARK    3  A    between atoms: S1_4  and  C2_7 
ROOT
HETATM    1  O1  UNL     1      23.598  -0.642  54.376  1.00  0.00    -0.267 OA
HETATM    2  C1  UNL     1      24.391  -0.130  53.549  1.00  0.00     0.266 C 
HETATM    3  N1  UNL     1      23.836   0.597  52.468  1.00  0.00    -0.246 N 
HETATM    4  H1  UNL     1      24.583   0.983  51.825  1.00  0.00     0.182 HD
ENDROOT
BRANCH   3   5
HETATM    5  S1  UNL     1      22.289   1.051  51.875  1.00  0.00     0.266 S 
HETATM    6  O2  UNL     1      21.682   1.997  52.911  1.00  0.00    -0.200 OA
HETATM    7  O3  UNL     1      21.412  -0.171  51.755  1.00  0.00    -0.200 OA
BRANCH   5   8
HETATM    8  C2  UNL     1      22.383   1.854  50.327  1.00  0.00     0.097 A 
HETATM    9  C3  UNL     1      21.693   1.276  49.249  1.00  0.00     0.027 A 
HETATM   10  C4  UNL     1      21.640   1.721  47.948  1.00  0.00     0.002 A 
HETATM   11  C5  UNL     1      22.348   2.870  47.669  1.00  0.00     0.001 A 
HETATM   12  C6  UNL     1      23.053   3.502  48.670  1.00  0.00     0.020 A 
HETATM   13  C7  UNL     1      23.049   2.986  49.941  1.00  0.00     0.034 A 
HETATM   14 BR1  UNL     1      24.003   3.878  51.319  1.00  0.00    -0.049 Br
ENDBRANCH   5   8
ENDBRANCH   3   5
BRANCH   2  15
HETATM   15  C8  UNL     1      25.820  -0.304  53.735  1.00  0.00     0.050 A 
HETATM   16  C9  UNL     1      26.456  -0.948  52.697  1.00  0.00     0.022 A 
HETATM   17  C10 UNL     1      27.840  -1.144  52.822  1.00  0.00     0.045 A 
HETATM   18  C11 UNL     1      28.604  -0.743  53.899  1.00  0.00     0.125 A 
HETATM   19 CL1  UNL     1      30.312  -1.036  53.952  1.00  0.00    -0.062 Cl
HETATM   20  N2  UNL     1      27.910  -0.124  54.869  1.00  0.00    -0.248 NA
HETATM   21  C12 UNL     1      26.585   0.083  54.786  1.00  0.00     0.135 A 
ENDBRANCH   2  15
TORSDOF 3
ENDMDL
MODEL 6
REMARK VINA RESULT:      -7.5      7.959      9.110
REMARK  3 active torsions:
REMARK  status: ('A' for Active; 'I' for Inactive)
REMARK       I    between atoms: C1_2  and  N1_3 
REMARK    1  A    between atoms: C1_2  and  C8_14 
REMARK    2  A    between atoms: N1_3  and  S1_4 
REMARK    3  A    between atoms: S1_4  and  C2_7 
ROOT
HETATM    1  O1  UNL     1      28.820   6.987  47.192  1.00  0.00    -0.267 OA
HETATM    2  C1  UNL     1      28.667   6.250  48.196  1.00  0.00     0.266 C 
HETATM    3  N1  UNL     1      29.822   5.905  48.941  1.00  0.00    -0.246 N 
HETATM    4  H1  UNL     1      29.591   5.278  49.763  1.00  0.00     0.182 HD
ENDROOT
BRANCH   3   5
HETATM    5  S1  UNL     1      31.513   6.205  48.916  1.00  0.00     0.266 S 
HETATM    6  O2  UNL     1      31.988   6.174  50.368  1.00  0.00    -0.200 OA
HETATM    7  O3  UNL     1      31.776   7.577  48.345  1.00  0.00    -0.200 OA
BRANCH   5   8
HETATM    8  C2  UNL     1      32.383   5.011  47.985  1.00  0.00     0.097 A 
HETATM    9  C3  UNL     1      31.630   4.052  47.288  1.00  0.00     0.027 A 
HETATM   10  C4  UNL     1      32.099   3.016  46.512  1.00  0.00     0.002 A 
HETATM   11  C5  UNL     1      33.468   2.907  46.406  1.00  0.00     0.001 A 
HETATM   12  C6  UNL     1      34.281   3.808  47.058  1.00  0.00     0.020 A 
HETATM   13  C7  UNL     1      33.726   4.811  47.811  1.00  0.00     0.034 A 
HETATM   14 BR1  UNL     1      34.854   6.062  48.686  1.00  0.00    -0.049 Br
ENDBRANCH   5   8
ENDBRANCH   3   5
BRANCH   2  15
HETATM   15  C8  UNL     1      27.335   5.790  48.544  1.00  0.00     0.050 A 
HETATM   16  C9  UNL     1      27.278   4.483  48.976  1.00  0.00     0.022 A 
HETATM   17  C10 UNL     1      26.014   3.983  49.325  1.00  0.00     0.045 A 
HETATM   18  C11 UNL     1      24.835   4.698  49.269  1.00  0.00     0.125 A 
HETATM   19 CL1  UNL     1      23.323   3.982  49.726  1.00  0.00    -0.062 Cl
HETATM   20  N2  UNL     1      24.975   5.963  48.837  1.00  0.00    -0.248 NA
HETATM   21  C12 UNL     1      26.168   6.477  48.494  1.00  0.00     0.135 A 
ENDBRANCH   2  15
TORSDOF 3
ENDMDL
MODEL 7
REMARK VINA RESULT:      -7.4      6.051      7.604
REMARK  3 active torsions:
REMARK  status: ('A' for Active; 'I' for Inactive)
REMARK       I    between atoms: C1_2  and  N1_3 
REMARK    1  A    between atoms: C1_2  and  C8_14 
REMARK    2  A    between atoms: N1_3  and  S1_4 
REMARK    3  A    between atoms: S1_4  and  C2_7 
ROOT
HETATM    1  O1  UNL     1      24.427   1.909  52.190  1.00  0.00    -0.267 OA
HETATM    2  C1  UNL     1      25.603   2.203  51.864  1.00  0.00     0.266 C 
HETATM    3  N1  UNL     1      25.787   3.289  50.973  1.00  0.00    -0.246 N 
HETATM    4  H1  UNL     1      26.809   3.455  50.755  1.00  0.00     0.182 HD
ENDROOT
BRANCH   3   5
HETATM    5  S1  UNL     1      24.834   4.442  50.127  1.00  0.00     0.266 S 
HETATM    6  O2  UNL     1      24.080   5.250  51.182  1.00  0.00    -0.200 OA
HETATM    7  O3  UNL     1      23.834   3.728  49.251  1.00  0.00    -0.200 OA
BRANCH   5   8
HETATM    8  C2  UNL     1      25.805   5.512  49.147  1.00  0.00     0.097 A 
HETATM    9  C3  UNL     1      27.156   5.176  48.956  1.00  0.00     0.027 A 
HETATM   10  C4  UNL     1      28.104   5.874  48.243  1.00  0.00     0.002 A 
HETATM   11  C5  UNL     1      27.679   7.040  47.646  1.00  0.00     0.001 A 
HETATM   12  C6  UNL     1      26.369   7.444  47.783  1.00  0.00     0.020 A 
HETATM   13  C7  UNL     1      25.491   6.683  48.513  1.00  0.00     0.034 A 
HETATM   14 BR1  UNL     1      23.681   7.234  48.675  1.00  0.00    -0.049 Br
ENDBRANCH   5   8
ENDBRANCH   3   5
BRANCH   2  15
HETATM   15  C8  UNL     1      26.705   1.429  52.405  1.00  0.00     0.050 A 
HETATM   16  C9  UNL     1      26.543   0.064  52.312  1.00  0.00     0.022 A 
HETATM   17  C10 UNL     1      27.578  -0.735  52.820  1.00  0.00     0.045 A 
HETATM   18  C11 UNL     1      28.737  -0.259  53.401  1.00  0.00     0.125 A 
HETATM   19 CL1  UNL     1      29.955  -1.338  53.998  1.00  0.00    -0.062 Cl
HETATM   20  N2  UNL     1      28.817   1.081  53.455  1.00  0.00    -0.248 NA
HETATM   21  C12 UNL     1      27.848   1.880  52.979  1.00  0.00     0.135 A 
ENDBRANCH   2  15
TORSDOF 3
ENDMDL
MODEL 8
REMARK VINA RESULT:      -7.4      4.337      7.295
REMARK  3 active torsions:
REMARK  status: ('A' for Active; 'I' for Inactive)
REMARK       I    between atoms: C1_2  and  N1_3 
REMARK    1  A    between atoms: C1_2  and  C8_14 
REMARK    2  A    between atoms: N1_3  and  S1_4 
REMARK    3  A    between atoms: S1_4  and  C2_7 
ROOT
HETATM    1  O1  UNL     1      25.095   3.152  51.621  1.00  0.00    -0.267 OA
HETATM    2  C1  UNL     1      25.128   1.940  51.945  1.00  0.00     0.266 C 
HETATM    3  N1  UNL     1      23.921   1.203  51.863  1.00  0.00    -0.246 N 
HETATM    4  H1  UNL     1      24.051   0.195  52.160  1.00  0.00     0.182 HD
ENDROOT
BRANCH   3   5
HETATM    5  S1  UNL     1      22.282   1.455  51.413  1.00  0.00     0.266 S 
HETATM    6  O2  UNL     1      22.186   1.160  49.916  1.00  0.00    -0.200 OA
HETATM    7  O3  UNL     1      21.906   2.896  51.653  1.00  0.00    -0.200 OA
BRANCH   5   8
HETATM    8  C2  UNL     1      21.188   0.414  52.290  1.00  0.00     0.097 A 
HETATM    9  C3  UNL     1      21.732  -0.407  53.292  1.00  0.00     0.027 A 
HETATM   10  C4  UNL     1      21.068  -1.310  54.091  1.00  0.00     0.002 A 
HETATM   11  C5  UNL     1      19.711  -1.423  53.884  1.00  0.00     0.001 A 
HETATM   12  C6  UNL     1      19.097  -0.653  52.920  1.00  0.00     0.020 A 
HETATM   13  C7  UNL     1      19.839   0.222  52.169  1.00  0.00     0.034 A 
HETATM   14 BR1  UNL     1      18.980   1.297  50.860  1.00  0.00    -0.049 Br
ENDBRANCH   5   8
ENDBRANCH   3   5
BRANCH   2  15
HETATM   15  C8  UNL     1      26.383   1.356  52.384  1.00  0.00     0.050 A 
HETATM   16  C9  UNL     1      26.372  -0.018  52.474  1.00  0.00     0.022 A 
HETATM   17  C10 UNL     1      27.558  -0.638  52.894  1.00  0.00     0.045 A 
HETATM   18  C11 UNL     1      28.726   0.022  53.221  1.00  0.00     0.125 A 
HETATM   19 CL1  UNL     1      30.139  -0.844  53.730  1.00  0.00    -0.062 Cl
HETATM   20  N2  UNL     1      28.654   1.359  53.108  1.00  0.00    -0.248 NA
HETATM   21  C12 UNL     1      27.537   1.989  52.709  1.00  0.00     0.135 A 
ENDBRANCH   2  15
TORSDOF 3
ENDMDL
MODEL 9
REMARK VINA RESULT:      -7.3      4.127      7.393
REMARK  3 active torsions:
REMARK  status: ('A' for Active; 'I' for Inactive)
REMARK       I    between atoms: C1_2  and  N1_3 
REMARK    1  A    between atoms: C1_2  and  C8_14 
REMARK    2  A    between atoms: N1_3  and  S1_4 
REMARK    3  A    between atoms: S1_4  and  C2_7 
ROOT
HETATM    1  O1  UNL     1      24.098   2.813  52.657  1.00  0.00    -0.267 OA
HETATM    2  C1  UNL     1      23.967   1.570  52.538  1.00  0.00     0.266 C 
HETATM    3  N1  UNL     1      22.690   1.074  52.178  1.00  0.00    -0.246 N 
HETATM    4  H1  UNL     1      22.680   0.018  52.108  1.00  0.00     0.182 HD
ENDROOT
BRANCH   3   5
HETATM    5  S1  UNL     1      21.125   1.681  51.808  1.00  0.00     0.266 S 
HETATM    6  O2  UNL     1      21.115   1.990  50.312  1.00  0.00    -0.200 OA
HETATM    7  O3  UNL     1      20.882   2.958  52.574  1.00  0.00    -0.200 OA
BRANCH   5   8
HETATM    8  C2  UNL     1      19.865   0.531  52.182  1.00  0.00     0.097 A 
HETATM    9  C3  UNL     1      18.798   0.416  51.276  1.00  0.00     0.027 A 
HETATM   10  C4  UNL     1      17.697  -0.405  51.373  1.00  0.00     0.002 A 
HETATM   11  C5  UNL     1      17.633  -1.207  52.490  1.00  0.00     0.001 A 
HETATM   12  C6  UNL     1      18.639  -1.157  53.430  1.00  0.00     0.020 A 
HETATM   13  C7  UNL     1      19.702  -0.308  53.250  1.00  0.00     0.034 A 
HETATM   14 BR1  UNL     1      21.096  -0.264  54.538  1.00  0.00    -0.049 Br
ENDBRANCH   5   8
ENDBRANCH   3   5
BRANCH   2  15
HETATM   15  C8  UNL     1      25.112   0.710  52.773  1.00  0.00     0.050 A 
HETATM   16  C9  UNL     1      26.283   1.149  52.196  1.00  0.00     0.022 A 
HETATM   17  C10 UNL     1      27.424   0.356  52.390  1.00  0.00     0.045 A 
HETATM   18  C11 UNL     1      27.460  -0.821  53.110  1.00  0.00     0.125 A 
HETATM   19 CL1  UNL     1      28.928  -1.726  53.287  1.00  0.00    -0.062 Cl
HETATM   20  N2  UNL     1      26.278  -1.180  53.640  1.00  0.00    -0.248 NA
HETATM   21  C12 UNL     1      25.164  -0.448  53.477  1.00  0.00     0.135 A 
ENDBRANCH   2  15
TORSDOF 3
ENDMDL
