MODEL 1
REMARK VINA RESULT:      -8.6      0.000      0.000
REMARK  5 active torsions:
REMARK  status: ('A' for Active; 'I' for Inactive)
REMARK    1  A    between atoms: C2_2  and  C3_3 
REMARK       I    between atoms: C3_3  and  N1_5 
REMARK    2  A    between atoms: N1_5  and  C4_6 
REMARK    3  A    between atoms: C4_6  and  C5_7 
REMARK    4  A    between atoms: C13_18  and  N4_19 
REMARK    5  A    between atoms: N4_19  and  C14_20 
ROOT
HETATM    1  C5  UNL     1      24.078   2.703  52.317  1.00  0.00    -0.038 C 
HETATM    2  C6  UNL     1      23.524   1.371  52.021  1.00  0.00     0.070 C 
HETATM    3  C7  UNL     1      22.143   1.112  52.488  1.00  0.00     0.129 C 
HETATM    4  C8  UNL     1      21.780  -0.312  52.036  1.00  0.00     0.040 C 
HETATM    5  O2  UNL     1      21.171   2.053  52.157  1.00  0.00    -0.340 OA
HETATM    6  C9  UNL     1      19.873   1.965  52.670  1.00  0.00     0.246 C 
HETATM    7  N2  UNL     1      20.083   3.221  52.675  1.00  0.00    -0.269 NA
HETATM    8  C10 UNL     1      21.300   3.746  52.224  1.00  0.00     0.163 C 
HETATM    9  C11 UNL     1      22.338   4.384  51.747  1.00  0.00     0.122 C 
HETATM   10  C12 UNL     1      22.195   5.709  51.120  1.00  0.00     0.076 C 
HETATM   11  N3  UNL     1      22.065   6.770  50.605  1.00  0.00    -0.196 NA
HETATM   12  C13 UNL     1      23.770   4.017  51.697  1.00  0.00     0.139 C 
ENDROOT
BRANCH  12  13
HETATM   13  N4  UNL     1      24.248   4.156  50.342  1.00  0.00    -0.380 N 
HETATM   14  H15 UNL     1      23.580   3.753  49.607  1.00  0.00     0.160 HD
BRANCH  13  15
HETATM   15  C14 UNL     1      25.379   4.691  49.681  1.00  0.00     0.029 A 
HETATM   16  C15 UNL     1      26.568   3.990  49.446  1.00  0.00     0.029 A 
HETATM   17  C16 UNL     1      27.623   4.595  48.821  1.00  0.00     0.004 A 
HETATM   18  C17 UNL     1      27.584   5.892  48.397  1.00  0.00     0.019 A 
HETATM   19  C18 UNL     1      26.452   6.647  48.590  1.00  0.00     0.013 A 
HETATM   20 BR1  UNL     1      26.364   8.451  48.014  1.00  0.00    -0.051 Br
HETATM   21  C19 UNL     1      25.409   6.007  49.221  1.00  0.00     0.048 A 
ENDBRANCH  13  15
ENDBRANCH  12  13
BRANCH   1  22
HETATM   22  C4  UNL     1      25.042   2.704  53.250  1.00  0.00     0.096 C 
BRANCH  22  23
HETATM   23  N1  UNL     1      26.206   2.524  54.036  1.00  0.00    -0.334 N 
HETATM   24  C3  UNL     1      27.377   2.392  53.279  1.00  0.00     0.241 C 
HETATM   25  O1  UNL     1      27.996   2.343  52.196  1.00  0.00    -0.269 OA
HETATM   26  H4  UNL     1      26.516   2.450  55.013  1.00  0.00     0.168 HD
BRANCH  24  27
HETATM   27  C2  UNL     1      28.736   2.201  53.725  1.00  0.00     0.065 C 
HETATM   28  C1  UNL     1      29.100   0.929  53.869  1.00  0.00     0.019 C 
ENDBRANCH  24  27
ENDBRANCH  22  23
ENDBRANCH   1  22
TORSDOF 5
ENDMDL
MODEL 2
REMARK VINA RESULT:      -7.6      3.708      6.217
REMARK  5 active torsions:
REMARK  status: ('A' for Active; 'I' for Inactive)
REMARK    1  A    between atoms: C2_2  and  C3_3 
REMARK       I    between atoms: C3_3  and  N1_5 
REMARK    2  A    between atoms: N1_5  and  C4_6 
REMARK    3  A    between atoms: C4_6  and  C5_7 
REMARK    4  A    between atoms: C13_18  and  N4_19 
REMARK    5  A    between atoms: N4_19  and  C14_20 
ROOT
HETATM    1  C5  UNL     1      24.584   4.294  50.060  1.00  0.00    -0.038 C 
HETATM    2  C6  UNL     1      24.118   5.585  50.595  1.00  0.00     0.070 C 
HETATM    3  C7  UNL     1      23.389   6.465  49.654  1.00  0.00     0.129 C 
HETATM    4  C8  UNL     1      22.979   7.720  50.443  1.00  0.00     0.040 C 
HETATM    5  O2  UNL     1      22.333   5.901  48.941  1.00  0.00    -0.340 OA
HETATM    6  C9  UNL     1      21.678   6.613  47.932  1.00  0.00     0.246 C 
HETATM    7  N2  UNL     1      21.704   5.431  47.458  1.00  0.00    -0.269 NA
HETATM    8  C10 UNL     1      22.289   4.384  48.178  1.00  0.00     0.163 C 
HETATM    9  C11 UNL     1      22.709   3.295  48.771  1.00  0.00     0.122 C 
HETATM   10  C12 UNL     1      22.056   1.997  48.529  1.00  0.00     0.076 C 
HETATM   11  N3  UNL     1      21.513   0.960  48.337  1.00  0.00    -0.196 NA
HETATM   12  C13 UNL     1      23.811   3.070  49.731  1.00  0.00     0.139 C 
ENDROOT
BRANCH  12  13
HETATM   13  N4  UNL     1      23.298   2.369  50.885  1.00  0.00    -0.380 N 
HETATM   14  H15 UNL     1      22.278   2.605  51.113  1.00  0.00     0.160 HD
BRANCH  13  15
HETATM   15  C14 UNL     1      23.768   1.427  51.831  1.00  0.00     0.029 A 
HETATM   16  C15 UNL     1      25.116   1.105  52.030  1.00  0.00     0.029 A 
HETATM   17  C16 UNL     1      25.478   0.162  52.951  1.00  0.00     0.004 A 
HETATM   18  C17 UNL     1      24.569  -0.511  53.716  1.00  0.00     0.019 A 
HETATM   19  C18 UNL     1      23.227  -0.251  53.580  1.00  0.00     0.013 A 
HETATM   20 BR1  UNL     1      21.938  -1.166  54.626  1.00  0.00    -0.051 Br
HETATM   21  C19 UNL     1      22.897   0.704  52.646  1.00  0.00     0.048 A 
ENDBRANCH  13  15
ENDBRANCH  12  13
BRANCH   1  22
HETATM   22  C4  UNL     1      25.914   4.211  49.904  1.00  0.00     0.096 C 
BRANCH  22  23
HETATM   23  N1  UNL     1      27.263   4.279  49.480  1.00  0.00    -0.334 N 
HETATM   24  C3  UNL     1      27.547   5.404  48.695  1.00  0.00     0.241 C 
HETATM   25  O1  UNL     1      27.223   6.464  48.121  1.00  0.00    -0.269 OA
HETATM   26  H4  UNL     1      28.155   3.772  49.545  1.00  0.00     0.168 HD
BRANCH  24  27
HETATM   27  C2  UNL     1      28.795   5.806  48.095  1.00  0.00     0.065 C 
HETATM   28  C1  UNL     1      28.780   7.012  47.533  1.00  0.00     0.019 C 
ENDBRANCH  24  27
ENDBRANCH  22  23
ENDBRANCH   1  22
TORSDOF 5
ENDMDL
MODEL 3
REMARK VINA RESULT:      -7.6      4.337      7.501
REMARK  5 active torsions:
REMARK  status: ('A' for Active; 'I' for Inactive)
REMARK    1  A    between atoms: C2_2  and  C3_3 
REMARK       I    between atoms: C3_3  and  N1_5 
REMARK    2  A    between atoms: N1_5  and  C4_6 
REMARK    3  A    between atoms: C4_6  and  C5_7 
REMARK    4  A    between atoms: C13_18  and  N4_19 
REMARK    5  A    between atoms: N4_19  and  C14_20 
ROOT
HETATM    1  C5  UNL     1      18.723   1.183  51.178  1.00  0.00    -0.038 C 
HETATM    2  C6  UNL     1      18.099   2.483  51.480  1.00  0.00     0.070 C 
HETATM    3  C7  UNL     1      16.622   2.540  51.400  1.00  0.00     0.129 C 
HETATM    4  C8  UNL     1      16.210   3.970  51.788  1.00  0.00     0.040 C 
HETATM    5  O2  UNL     1      15.907   1.562  52.087  1.00  0.00    -0.340 OA
HETATM    6  C9  UNL     1      14.519   1.453  51.955  1.00  0.00     0.246 C 
HETATM    7  N2  UNL     1      14.883   0.234  52.021  1.00  0.00    -0.269 NA
HETATM    8  C10 UNL     1      16.234  -0.104  52.160  1.00  0.00     0.163 C 
HETATM    9  C11 UNL     1      17.437  -0.567  52.386  1.00  0.00     0.122 C 
HETATM   10  C12 UNL     1      17.642  -1.803  53.160  1.00  0.00     0.076 C 
HETATM   11  N3  UNL     1      17.796  -2.792  53.798  1.00  0.00    -0.196 NA
HETATM   12  C13 UNL     1      18.768  -0.059  51.991  1.00  0.00     0.139 C 
ENDROOT
BRANCH  12  13
HETATM   13  N4  UNL     1      19.607   0.034  53.163  1.00  0.00    -0.380 N 
HETATM   14  H15 UNL     1      19.093   0.393  54.032  1.00  0.00     0.160 HD
BRANCH  13  15
HETATM   15  C14 UNL     1      20.955  -0.223  53.508  1.00  0.00     0.029 A 
HETATM   16  C15 UNL     1      21.364  -1.112  54.510  1.00  0.00     0.029 A 
HETATM   17  C16 UNL     1      22.690  -1.280  54.794  1.00  0.00     0.004 A 
HETATM   18  C17 UNL     1      23.678  -0.607  54.133  1.00  0.00     0.019 A 
HETATM   19  C18 UNL     1      23.357   0.282  53.136  1.00  0.00     0.013 A 
HETATM   20 BR1  UNL     1      24.703   1.234  52.198  1.00  0.00    -0.051 Br
HETATM   21  C19 UNL     1      22.014   0.427  52.875  1.00  0.00     0.048 A 
ENDBRANCH  13  15
ENDBRANCH  12  13
BRANCH   1  22
HETATM   22  C4  UNL     1      19.391   1.150  50.016  1.00  0.00     0.096 C 
BRANCH  22  23
HETATM   23  N1  UNL     1      20.324   1.239  48.954  1.00  0.00    -0.334 N 
HETATM   24  C3  UNL     1      21.443   2.026  49.256  1.00  0.00     0.241 C 
HETATM   25  O1  UNL     1      22.113   2.751  50.020  1.00  0.00    -0.269 OA
HETATM   26  H4  UNL     1      20.483   0.916  47.991  1.00  0.00     0.168 HD
BRANCH  24  27
HETATM   27  C2  UNL     1      22.587   2.338  48.435  1.00  0.00     0.065 C 
HETATM   28  C1  UNL     1      23.527   3.059  49.042  1.00  0.00     0.019 C 
ENDBRANCH  24  27
ENDBRANCH  22  23
ENDBRANCH   1  22
TORSDOF 5
ENDMDL
MODEL 4
REMARK VINA RESULT:      -7.4      1.919      2.163
REMARK  5 active torsions:
REMARK  status: ('A' for Active; 'I' for Inactive)
REMARK    1  A    between atoms: C2_2  and  C3_3 
REMARK       I    between atoms: C3_3  and  N1_5 
REMARK    2  A    between atoms: N1_5  and  C4_6 
REMARK    3  A    between atoms: C4_6  and  C5_7 
REMARK    4  A    between atoms: C13_18  and  N4_19 
REMARK    5  A    between atoms: N4_19  and  C14_20 
ROOT
HETATM    1  C5  UNL     1      24.524   3.469  50.580  1.00  0.00    -0.038 C 
HETATM    2  C6  UNL     1      23.632   2.544  49.861  1.00  0.00     0.070 C 
HETATM    3  C7  UNL     1      22.207   2.556  50.262  1.00  0.00     0.129 C 
HETATM    4  C8  UNL     1      21.481   1.546  49.358  1.00  0.00     0.040 C 
HETATM    5  O2  UNL     1      21.569   3.793  50.318  1.00  0.00    -0.340 OA
HETATM    6  C9  UNL     1      20.270   3.917  50.819  1.00  0.00     0.246 C 
HETATM    7  N2  UNL     1      20.831   4.975  51.252  1.00  0.00    -0.269 NA
HETATM    8  C10 UNL     1      22.174   5.244  50.964  1.00  0.00     0.163 C 
HETATM    9  C11 UNL     1      23.381   5.673  50.699  1.00  0.00     0.122 C 
HETATM   10  C12 UNL     1      23.666   7.113  50.579  1.00  0.00     0.076 C 
HETATM   11  N3  UNL     1      23.881   8.275  50.470  1.00  0.00    -0.196 NA
HETATM   12  C13 UNL     1      24.647   4.946  50.469  1.00  0.00     0.139 C 
ENDROOT
BRANCH  12  13
HETATM   13  N4  UNL     1      25.234   5.395  49.228  1.00  0.00    -0.380 N 
HETATM   14  H15 UNL     1      24.523   5.517  48.436  1.00  0.00     0.160 HD
BRANCH  13  15
HETATM   15  C14 UNL     1      26.519   5.736  48.742  1.00  0.00     0.029 A 
HETATM   16  C15 UNL     1      27.607   4.857  48.688  1.00  0.00     0.029 A 
HETATM   17  C16 UNL     1      28.822   5.280  48.225  1.00  0.00     0.004 A 
HETATM   18  C17 UNL     1      29.046   6.557  47.797  1.00  0.00     0.019 A 
HETATM   19  C18 UNL     1      28.027   7.479  47.819  1.00  0.00     0.013 A 
HETATM   20 BR1  UNL     1      28.303   9.261  47.232  1.00  0.00    -0.051 Br
HETATM   21  C19 UNL     1      26.818   7.021  48.289  1.00  0.00     0.048 A 
ENDBRANCH  13  15
ENDBRANCH  12  13
BRANCH   1  22
HETATM   22  C4  UNL     1      25.383   2.868  51.417  1.00  0.00     0.096 C 
BRANCH  22  23
HETATM   23  N1  UNL     1      26.347   2.519  52.393  1.00  0.00    -0.334 N 
HETATM   24  C3  UNL     1      26.822   1.208  52.268  1.00  0.00     0.241 C 
HETATM   25  O1  UNL     1      26.852   0.090  51.713  1.00  0.00    -0.269 OA
HETATM   26  H4  UNL     1      26.849   2.904  53.204  1.00  0.00     0.168 HD
BRANCH  24  27
HETATM   27  C2  UNL     1      27.798   0.510  53.068  1.00  0.00     0.065 C 
HETATM   28  C1  UNL     1      27.562  -0.790  53.227  1.00  0.00     0.019 C 
ENDBRANCH  24  27
ENDBRANCH  22  23
ENDBRANCH   1  22
TORSDOF 5
ENDMDL
MODEL 5
REMARK VINA RESULT:      -7.1      5.998      9.605
REMARK  5 active torsions:
REMARK  status: ('A' for Active; 'I' for Inactive)
REMARK    1  A    between atoms: C2_2  and  C3_3 
REMARK       I    between atoms: C3_3  and  N1_5 
REMARK    2  A    between atoms: N1_5  and  C4_6 
REMARK    3  A    between atoms: C4_6  and  C5_7 
REMARK    4  A    between atoms: C13_18  and  N4_19 
REMARK    5  A    between atoms: N4_19  and  C14_20 
ROOT
HETATM    1  C5  UNL     1      29.541   7.033  47.435  1.00  0.00    -0.038 C 
HETATM    2  C6  UNL     1      28.828   7.885  46.468  1.00  0.00     0.070 C 
HETATM    3  C7  UNL     1      28.657   9.307  46.842  1.00  0.00     0.129 C 
HETATM    4  C8  UNL     1      27.925   9.990  45.674  1.00  0.00     0.040 C 
HETATM    5  O2  UNL     1      29.793  10.000  47.252  1.00  0.00    -0.340 OA
HETATM    6  C9  UNL     1      29.706  11.301  47.756  1.00  0.00     0.246 C 
HETATM    7  N2  UNL     1      30.614  10.788  48.485  1.00  0.00    -0.269 NA
HETATM    8  C10 UNL     1      31.016   9.460  48.301  1.00  0.00     0.163 C 
HETATM    9  C11 UNL     1      31.559   8.275  48.185  1.00  0.00     0.122 C 
HETATM   10  C12 UNL     1      32.982   8.057  48.495  1.00  0.00     0.076 C 
HETATM   11  N3  UNL     1      34.133   7.896  48.734  1.00  0.00    -0.196 NA
HETATM   12  C13 UNL     1      30.989   6.978  47.763  1.00  0.00     0.139 C 
ENDROOT
BRANCH  12  13
HETATM   13  N4  UNL     1      31.809   6.418  46.714  1.00  0.00    -0.380 N 
HETATM   14  H15 UNL     1      31.781   6.978  45.801  1.00  0.00     0.160 HD
BRANCH  13  15
HETATM   15  C14 UNL     1      32.671   5.309  46.539  1.00  0.00     0.029 A 
HETATM   16  C15 UNL     1      33.994   5.393  46.090  1.00  0.00     0.029 A 
HETATM   17  C16 UNL     1      34.748   4.265  45.926  1.00  0.00     0.004 A 
HETATM   18  C17 UNL     1      34.268   3.013  46.182  1.00  0.00     0.019 A 
HETATM   19  C18 UNL     1      32.979   2.847  46.626  1.00  0.00     0.013 A 
HETATM   20 BR1  UNL     1      32.280   1.122  46.992  1.00  0.00    -0.051 Br
HETATM   21  C19 UNL     1      32.248   4.002  46.782  1.00  0.00     0.048 A 
ENDBRANCH  13  15
ENDBRANCH  12  13
BRANCH   1  22
HETATM   22  C4  UNL     1      28.760   6.143  48.066  1.00  0.00     0.096 C 
BRANCH  22  23
HETATM   23  N1  UNL     1      28.199   5.113  48.859  1.00  0.00    -0.334 N 
HETATM   24  C3  UNL     1      26.803   5.171  48.947  1.00  0.00     0.241 C 
HETATM   25  O1  UNL     1      25.697   5.687  48.681  1.00  0.00    -0.269 OA
HETATM   26  H4  UNL     1      28.464   4.295  49.423  1.00  0.00     0.168 HD
BRANCH  24  27
HETATM   27  C2  UNL     1      25.895   4.301  49.653  1.00  0.00     0.065 C 
HETATM   28  C1  UNL     1      26.441   3.173  50.103  1.00  0.00     0.019 C 
ENDBRANCH  24  27
ENDBRANCH  22  23
ENDBRANCH   1  22
TORSDOF 5
ENDMDL
MODEL 6
REMARK VINA RESULT:      -6.8      2.876      4.082
REMARK  5 active torsions:
REMARK  status: ('A' for Active; 'I' for Inactive)
REMARK    1  A    between atoms: C2_2  and  C3_3 
REMARK       I    between atoms: C3_3  and  N1_5 
REMARK    2  A    between atoms: N1_5  and  C4_6 
REMARK    3  A    between atoms: C4_6  and  C5_7 
REMARK    4  A    between atoms: C13_18  and  N4_19 
REMARK    5  A    between atoms: N4_19  and  C14_20 
ROOT
HETATM    1  C5  UNL     1      25.088   4.967  49.800  1.00  0.00    -0.038 C 
HETATM    2  C6  UNL     1      23.950   4.476  49.004  1.00  0.00     0.070 C 
HETATM    3  C7  UNL     1      22.611   4.974  49.393  1.00  0.00     0.129 C 
HETATM    4  C8  UNL     1      21.603   4.357  48.407  1.00  0.00     0.040 C 
HETATM    5  O2  UNL     1      22.458   6.351  49.537  1.00  0.00    -0.340 OA
HETATM    6  C9  UNL     1      21.273   6.901  50.034  1.00  0.00     0.246 C 
HETATM    7  N2  UNL     1      22.160   7.653  50.551  1.00  0.00    -0.269 NA
HETATM    8  C10 UNL     1      23.519   7.438  50.297  1.00  0.00     0.163 C 
HETATM    9  C11 UNL     1      24.809   7.421  50.076  1.00  0.00     0.122 C 
HETATM   10  C12 UNL     1      25.596   8.666  50.068  1.00  0.00     0.076 C 
HETATM   11  N3  UNL     1      26.217   9.677  50.050  1.00  0.00    -0.196 NA
HETATM   12  C13 UNL     1      25.737   6.303  49.802  1.00  0.00     0.139 C 
ENDROOT
BRANCH  12  13
HETATM   13  N4  UNL     1      26.490   6.594  48.605  1.00  0.00    -0.380 N 
HETATM   14  H15 UNL     1      25.888   6.953  47.795  1.00  0.00     0.160 HD
BRANCH  13  15
HETATM   15  C14 UNL     1      27.839   6.545  48.179  1.00  0.00     0.029 A 
HETATM   16  C15 UNL     1      28.669   5.423  48.296  1.00  0.00     0.029 A 
HETATM   17  C16 UNL     1      29.970   5.471  47.881  1.00  0.00     0.004 A 
HETATM   18  C17 UNL     1      30.530   6.592  47.338  1.00  0.00     0.019 A 
HETATM   19  C18 UNL     1      29.781   7.734  47.189  1.00  0.00     0.013 A 
HETATM   20 BR1  UNL     1      30.527   9.308  46.440  1.00  0.00    -0.051 Br
HETATM   21  C19 UNL     1      28.475   7.651  47.617  1.00  0.00     0.048 A 
ENDBRANCH  13  15
ENDBRANCH  12  13
BRANCH   1  22
HETATM   22  C4  UNL     1      25.644   4.041  50.595  1.00  0.00     0.096 C 
BRANCH  22  23
HETATM   23  N1  UNL     1      26.454   3.066  51.226  1.00  0.00    -0.334 N 
HETATM   24  C3  UNL     1      25.764   1.893  51.556  1.00  0.00     0.241 C 
HETATM   25  O1  UNL     1      24.734   1.189  51.598  1.00  0.00    -0.269 OA
HETATM   26  H4  UNL     1      27.418   2.902  51.545  1.00  0.00     0.168 HD
BRANCH  24  27
HETATM   27  C2  UNL     1      26.252   0.696  52.196  1.00  0.00     0.065 C 
HETATM   28  C1  UNL     1      26.674   0.866  53.447  1.00  0.00     0.019 C 
ENDBRANCH  24  27
ENDBRANCH  22  23
ENDBRANCH   1  22
TORSDOF 5
ENDMDL
MODEL 7
REMARK VINA RESULT:      -6.8      4.266      7.531
REMARK  5 active torsions:
REMARK  status: ('A' for Active; 'I' for Inactive)
REMARK    1  A    between atoms: C2_2  and  C3_3 
REMARK       I    between atoms: C3_3  and  N1_5 
REMARK    2  A    between atoms: N1_5  and  C4_6 
REMARK    3  A    between atoms: C4_6  and  C5_7 
REMARK    4  A    between atoms: C13_18  and  N4_19 
REMARK    5  A    between atoms: N4_19  and  C14_20 
ROOT
HETATM    1  C5  UNL     1      26.023   7.211  48.607  1.00  0.00    -0.038 C 
HETATM    2  C6  UNL     1      25.177   6.970  49.788  1.00  0.00     0.070 C 
HETATM    3  C7  UNL     1      24.791   5.564  50.047  1.00  0.00     0.129 C 
HETATM    4  C8  UNL     1      23.950   5.562  51.335  1.00  0.00     0.040 C 
HETATM    5  O2  UNL     1      25.810   4.614  50.060  1.00  0.00    -0.340 OA
HETATM    6  C9  UNL     1      25.526   3.249  50.157  1.00  0.00     0.246 C 
HETATM    7  N2  UNL     1      26.511   3.266  49.350  1.00  0.00    -0.269 NA
HETATM    8  C10 UNL     1      27.112   4.474  48.978  1.00  0.00     0.163 C 
HETATM    9  C11 UNL     1      27.831   5.506  48.618  1.00  0.00     0.122 C 
HETATM   10  C12 UNL     1      29.274   5.373  48.354  1.00  0.00     0.076 C 
HETATM   11  N3  UNL     1      30.439   5.255  48.158  1.00  0.00    -0.196 NA
HETATM   12  C13 UNL     1      27.466   6.922  48.399  1.00  0.00     0.139 C 
ENDROOT
BRANCH  12  13
HETATM   13  N4  UNL     1      28.352   7.765  49.167  1.00  0.00    -0.380 N 
HETATM   14  H15 UNL     1      28.694   7.313  50.077  1.00  0.00     0.160 HD
BRANCH  13  15
HETATM   15  C14 UNL     1      28.922   9.055  49.060  1.00  0.00     0.029 A 
HETATM   16  C15 UNL     1      30.277   9.346  49.262  1.00  0.00     0.029 A 
HETATM   17  C16 UNL     1      30.737  10.629  49.163  1.00  0.00     0.004 A 
HETATM   18  C17 UNL     1      29.923  11.684  48.867  1.00  0.00     0.019 A 
HETATM   19  C18 UNL     1      28.581  11.481  48.654  1.00  0.00     0.013 A 
HETATM   20 BR1  UNL     1      27.422  12.924  48.242  1.00  0.00    -0.051 Br
HETATM   21  C19 UNL     1      28.151  10.178  48.761  1.00  0.00     0.048 A 
ENDBRANCH  13  15
ENDBRANCH  12  13
BRANCH   1  22
HETATM   22  C4  UNL     1      25.397   7.835  47.599  1.00  0.00     0.096 C 
BRANCH  22  23
HETATM   23  N1  UNL     1      24.895   8.300  46.359  1.00  0.00    -0.334 N 
HETATM   24  C3  UNL     1      25.892   8.529  45.402  1.00  0.00     0.241 C 
HETATM   25  O1  UNL     1      27.082   8.546  45.026  1.00  0.00    -0.269 OA
HETATM   26  H4  UNL     1      24.016   8.544  45.885  1.00  0.00     0.168 HD
BRANCH  24  27
HETATM   27  C2  UNL     1      25.764   8.996  44.044  1.00  0.00     0.065 C 
HETATM   28  C1  UNL     1      24.761   8.450  43.360  1.00  0.00     0.019 C 
ENDBRANCH  24  27
ENDBRANCH  22  23
ENDBRANCH   1  22
TORSDOF 5
ENDMDL
MODEL 8
REMARK VINA RESULT:      -6.7     24.414     26.935
REMARK  5 active torsions:
REMARK  status: ('A' for Active; 'I' for Inactive)
REMARK    1  A    between atoms: C2_2  and  C3_3 
REMARK       I    between atoms: C3_3  and  N1_5 
REMARK    2  A    between atoms: N1_5  and  C4_6 
REMARK    3  A    between atoms: C4_6  and  C5_7 
REMARK    4  A    between atoms: C13_18  and  N4_19 
REMARK    5  A    between atoms: N4_19  and  C14_20 
ROOT
HETATM    1  C5  UNL     1      44.833   6.319  68.179  1.00  0.00    -0.038 C 
HETATM    2  C6  UNL     1      44.234   7.181  67.145  1.00  0.00     0.070 C 
HETATM    3  C7  UNL     1      44.602   6.881  65.743  1.00  0.00     0.129 C 
HETATM    4  C8  UNL     1      43.835   7.879  64.858  1.00  0.00     0.040 C 
HETATM    5  O2  UNL     1      44.469   5.562  65.316  1.00  0.00    -0.340 OA
HETATM    6  C9  UNL     1      44.922   5.159  64.056  1.00  0.00     0.246 C 
HETATM    7  N2  UNL     1      45.212   4.155  64.783  1.00  0.00    -0.269 NA
HETATM    8  C10 UNL     1      44.916   4.151  66.151  1.00  0.00     0.163 C 
HETATM    9  C11 UNL     1      44.616   3.965  67.411  1.00  0.00     0.122 C 
HETATM   10  C12 UNL     1      44.299   2.623  67.927  1.00  0.00     0.076 C 
HETATM   11  N3  UNL     1      44.031   1.538  68.328  1.00  0.00    -0.196 NA
HETATM   12  C13 UNL     1      44.516   4.914  68.541  1.00  0.00     0.139 C 
ENDROOT
BRANCH  12  13
HETATM   13  N4  UNL     1      43.236   4.746  69.189  1.00  0.00    -0.380 N 
HETATM   14  H15 UNL     1      42.639   3.964  68.765  1.00  0.00     0.160 HD
BRANCH  13  15
HETATM   15  C14 UNL     1      42.520   5.334  70.259  1.00  0.00     0.029 A 
HETATM   16  C15 UNL     1      43.108   6.039  71.317  1.00  0.00     0.029 A 
HETATM   17  C16 UNL     1      42.341   6.552  72.324  1.00  0.00     0.004 A 
HETATM   18  C17 UNL     1      40.983   6.413  72.362  1.00  0.00     0.019 A 
HETATM   19  C18 UNL     1      40.331   5.735  71.360  1.00  0.00     0.013 A 
HETATM   20 BR1  UNL     1      38.447   5.524  71.381  1.00  0.00    -0.051 Br
HETATM   21  C19 UNL     1      41.133   5.232  70.361  1.00  0.00     0.048 A 
ENDBRANCH  13  15
ENDBRANCH  12  13
BRANCH   1  22
HETATM   22  C4  UNL     1      45.762   6.926  68.931  1.00  0.00     0.096 C 
BRANCH  22  23
HETATM   23  N1  UNL     1      46.659   7.817  69.570  1.00  0.00    -0.334 N 
HETATM   24  C3  UNL     1      46.022   8.774  70.370  1.00  0.00     0.241 C 
HETATM   25  O1  UNL     1      45.006   9.308  70.861  1.00  0.00    -0.269 OA
HETATM   26  H4  UNL     1      47.662   8.024  69.661  1.00  0.00     0.168 HD
BRANCH  24  27
HETATM   27  C2  UNL     1      46.600   9.829  71.165  1.00  0.00     0.065 C 
HETATM   28  C1  UNL     1      45.890  10.171  72.237  1.00  0.00     0.019 C 
ENDBRANCH  24  27
ENDBRANCH  22  23
ENDBRANCH   1  22
TORSDOF 5
ENDMDL
MODEL 9
REMARK VINA RESULT:      -6.6      6.442     10.400
REMARK  5 active torsions:
REMARK  status: ('A' for Active; 'I' for Inactive)
REMARK    1  A    between atoms: C2_2  and  C3_3 
REMARK       I    between atoms: C3_3  and  N1_5 
REMARK    2  A    between atoms: N1_5  and  C4_6 
REMARK    3  A    between atoms: C4_6  and  C5_7 
REMARK    4  A    between atoms: C13_18  and  N4_19 
REMARK    5  A    between atoms: N4_19  and  C14_20 
ROOT
HETATM    1  C5  UNL     1      31.792   6.144  47.554  1.00  0.00    -0.038 C 
HETATM    2  C6  UNL     1      33.006   5.626  48.207  1.00  0.00     0.070 C 
HETATM    3  C7  UNL     1      33.784   4.619  47.450  1.00  0.00     0.129 C 
HETATM    4  C8  UNL     1      35.008   4.263  48.310  1.00  0.00     0.040 C 
HETATM    5  O2  UNL     1      34.115   4.927  46.133  1.00  0.00    -0.340 OA
HETATM    6  C9  UNL     1      34.724   3.983  45.300  1.00  0.00     0.246 C 
HETATM    7  N2  UNL     1      33.935   4.583  44.501  1.00  0.00    -0.269 NA
HETATM    8  C10 UNL     1      33.118   5.627  44.948  1.00  0.00     0.163 C 
HETATM    9  C11 UNL     1      32.374   6.674  45.197  1.00  0.00     0.122 C 
HETATM   10  C12 UNL     1      32.128   7.695  44.164  1.00  0.00     0.076 C 
HETATM   11  N3  UNL     1      31.949   8.518  43.328  1.00  0.00    -0.196 NA
HETATM   12  C13 UNL     1      31.656   7.093  46.420  1.00  0.00     0.139 C 
ENDROOT
BRANCH  12  13
HETATM   13  N4  UNL     1      32.022   8.452  46.743  1.00  0.00    -0.380 N 
HETATM   14  H15 UNL     1      33.018   8.712  46.444  1.00  0.00     0.160 HD
BRANCH  13  15
HETATM   15  C14 UNL     1      31.424   9.579  47.356  1.00  0.00     0.029 A 
HETATM   16  C15 UNL     1      32.062  10.810  47.550  1.00  0.00     0.029 A 
HETATM   17  C16 UNL     1      31.416  11.839  48.176  1.00  0.00     0.004 A 
HETATM   18  C17 UNL     1      30.137  11.733  48.642  1.00  0.00     0.019 A 
HETATM   19  C18 UNL     1      29.443  10.557  48.489  1.00  0.00     0.013 A 
HETATM   20 BR1  UNL     1      27.666  10.376  49.124  1.00  0.00    -0.051 Br
HETATM   21  C19 UNL     1      30.122   9.543  47.854  1.00  0.00     0.048 A 
ENDBRANCH  13  15
ENDBRANCH  12  13
BRANCH   1  22
HETATM   22  C4  UNL     1      30.646   5.727  48.114  1.00  0.00     0.096 C 
BRANCH  22  23
HETATM   23  N1  UNL     1      29.408   5.583  48.786  1.00  0.00    -0.334 N 
HETATM   24  C3  UNL     1      28.359   6.291  48.186  1.00  0.00     0.241 C 
HETATM   25  O1  UNL     1      27.892   7.044  47.306  1.00  0.00    -0.269 OA
HETATM   26  H4  UNL     1      28.981   5.121  49.599  1.00  0.00     0.168 HD
BRANCH  24  27
HETATM   27  C2  UNL     1      26.975   6.379  48.579  1.00  0.00     0.065 C 
HETATM   28  C1  UNL     1      26.445   5.238  49.013  1.00  0.00     0.019 C 
ENDBRANCH  24  27
ENDBRANCH  22  23
ENDBRANCH   1  22
TORSDOF 5
ENDMDL
