MODEL 1
REMARK VINA RESULT:      -8.0      0.000      0.000
REMARK  5 active torsions:
REMARK  status: ('A' for Active; 'I' for Inactive)
REMARK    1  A    between atoms: C3_3  and  C4_4 
REMARK    2  A    between atoms: C6_7  and  N2_8 
REMARK    3  A    between atoms: N2_8  and  C7_9 
REMARK    4  A    between atoms: C14_18  and  N4_19 
REMARK    5  A    between atoms: N4_19  and  C16_21 
ROOT
HETATM    1  C4  UNL     1      23.798   0.264  53.184  1.00  0.00     0.038 C 
HETATM    2  C5  UNL     1      23.336  -0.885  53.636  1.00  0.00     0.135 C 
HETATM    3  N1  UNL     1      21.964  -1.391  53.725  1.00  0.00    -0.245 NA
HETATM    4  C6  UNL     1      20.936  -0.563  53.954  1.00  0.00     0.124 C 
HETATM    5  C13 UNL     1      20.972   0.950  54.142  1.00  0.00     0.229 C 
HETATM    6  N3  UNL     1      21.641   1.502  52.936  1.00  0.00    -0.264 NA
HETATM    7  C14 UNL     1      22.851   1.185  52.550  1.00  0.00     0.139 C 
ENDROOT
BRANCH   4   8
HETATM    8  N2  UNL     1      19.695  -1.227  54.007  1.00  0.00    -0.343 N 
HETATM    9  H5  UNL     1      19.563  -1.880  54.808  1.00  0.00     0.167 HD
BRANCH   8  10
HETATM   10  C7  UNL     1      18.700  -0.998  53.032  1.00  0.00     0.033 A 
HETATM   11  C8  UNL     1      17.452  -1.588  53.276  1.00  0.00     0.032 A 
HETATM   12  C9  UNL     1      16.383  -1.423  52.393  1.00  0.00     0.044 A 
HETATM   13  C10 UNL     1      16.532  -0.668  51.250  1.00  0.00     0.116 A 
HETATM   14  F1  UNL     1      15.522  -0.480  50.366  1.00  0.00    -0.206 F 
HETATM   15  C11 UNL     1      17.763  -0.062  50.972  1.00  0.00     0.044 A 
HETATM   16  C12 UNL     1      18.775  -0.264  51.882  1.00  0.00     0.032 A 
ENDBRANCH   8  10
ENDBRANCH   4   8
BRANCH   1  17
HETATM   17  C3  UNL     1      25.179   0.678  53.145  1.00  0.00    -0.018 A 
HETATM   18  C2  UNL     1      26.281   0.085  52.726  1.00  0.00    -0.065 A 
HETATM   19  C1  UNL     1      26.472  -1.254  52.124  1.00  0.00     0.045 C 
HETATM   20  C19 UNL     1      27.529   0.902  52.966  1.00  0.00     0.033 A 
HETATM   21  C18 UNL     1      26.948   2.063  53.638  1.00  0.00    -0.017 A 
HETATM   22  C20 UNL     1      28.506   0.124  53.821  1.00  0.00     0.019 C 
HETATM   23  C17 UNL     1      25.660   1.897  53.710  1.00  0.00     0.009 A 
ENDBRANCH   1  17
BRANCH   7  24
HETATM   24  N4  UNL     1      23.238   1.793  51.290  1.00  0.00    -0.314 N 
HETATM   25  C15 UNL     1      24.217   2.622  50.645  1.00  0.00     0.160 C 
BRANCH  24  26
HETATM   26  C16 UNL     1      22.362   1.346  50.265  1.00  0.00     0.356 C 
HETATM   27  O1  UNL     1      22.163   1.749  49.100  1.00  0.00    -0.283 OA
ENDBRANCH  24  26
ENDBRANCH   7  24
TORSDOF 5
ENDMDL
MODEL 2
REMARK VINA RESULT:      -7.9      4.096      6.251
REMARK  5 active torsions:
REMARK  status: ('A' for Active; 'I' for Inactive)
REMARK    1  A    between atoms: C3_3  and  C4_4 
REMARK    2  A    between atoms: C6_7  and  N2_8 
REMARK    3  A    between atoms: N2_8  and  C7_9 
REMARK    4  A    between atoms: C14_18  and  N4_19 
REMARK    5  A    between atoms: N4_19  and  C16_21 
ROOT
HETATM    1  C4  UNL     1      25.497   0.626  52.827  1.00  0.00     0.038 C 
HETATM    2  C5  UNL     1      25.676   1.891  52.506  1.00  0.00     0.135 C 
HETATM    3  N1  UNL     1      24.704   2.959  52.261  1.00  0.00    -0.245 NA
HETATM    4  C6  UNL     1      23.511   2.694  51.713  1.00  0.00     0.124 C 
HETATM    5  C13 UNL     1      22.957   1.343  51.274  1.00  0.00     0.229 C 
HETATM    6  N3  UNL     1      23.029   0.459  52.467  1.00  0.00    -0.264 NA
HETATM    7  C14 UNL     1      24.132   0.174  53.112  1.00  0.00     0.139 C 
ENDROOT
BRANCH   4   8
HETATM    8  N2  UNL     1      22.710   3.843  51.553  1.00  0.00    -0.343 N 
HETATM    9  H5  UNL     1      21.795   3.832  52.052  1.00  0.00     0.167 HD
BRANCH   8  10
HETATM   10  C7  UNL     1      23.145   4.935  50.772  1.00  0.00     0.033 A 
HETATM   11  C8  UNL     1      23.361   4.671  49.412  1.00  0.00     0.032 A 
HETATM   12  C9  UNL     1      23.778   5.672  48.533  1.00  0.00     0.044 A 
HETATM   13  C10 UNL     1      23.990   6.956  48.987  1.00  0.00     0.116 A 
HETATM   14  F1  UNL     1      24.394   7.959  48.170  1.00  0.00    -0.206 F 
HETATM   15  C11 UNL     1      23.786   7.258  50.339  1.00  0.00     0.044 A 
HETATM   16  C12 UNL     1      23.375   6.227  51.152  1.00  0.00     0.032 A 
ENDBRANCH   8  10
ENDBRANCH   4   8
BRANCH   1  17
HETATM   17  C3  UNL     1      26.528  -0.360  53.041  1.00  0.00    -0.018 A 
HETATM   18  C2  UNL     1      27.606  -0.379  53.802  1.00  0.00    -0.065 A 
HETATM   19  C1  UNL     1      28.132   0.643  54.734  1.00  0.00     0.045 C 
HETATM   20  C19 UNL     1      28.441  -1.627  53.627  1.00  0.00     0.033 A 
HETATM   21  C18 UNL     1      27.665  -2.308  52.592  1.00  0.00    -0.017 A 
HETATM   22  C20 UNL     1      29.844  -1.259  53.196  1.00  0.00     0.019 C 
HETATM   23  C17 UNL     1      26.626  -1.580  52.306  1.00  0.00     0.009 A 
ENDBRANCH   1  17
BRANCH   7  24
HETATM   24  N4  UNL     1      23.920  -0.638  54.296  1.00  0.00    -0.314 N 
HETATM   25  C15 UNL     1      24.538  -1.153  55.486  1.00  0.00     0.160 C 
BRANCH  24  26
HETATM   26  C16 UNL     1      22.553  -1.020  54.364  1.00  0.00     0.356 C 
HETATM   27  O1  UNL     1      21.922  -1.725  55.179  1.00  0.00    -0.283 OA
ENDBRANCH  24  26
ENDBRANCH   7  24
TORSDOF 5
ENDMDL
MODEL 3
REMARK VINA RESULT:      -7.9      4.166      7.267
REMARK  5 active torsions:
REMARK  status: ('A' for Active; 'I' for Inactive)
REMARK    1  A    between atoms: C3_3  and  C4_4 
REMARK    2  A    between atoms: C6_7  and  N2_8 
REMARK    3  A    between atoms: N2_8  and  C7_9 
REMARK    4  A    between atoms: C14_18  and  N4_19 
REMARK    5  A    between atoms: N4_19  and  C16_21 
ROOT
HETATM    1  C4  UNL     1      23.458   3.200  51.494  1.00  0.00     0.038 C 
HETATM    2  C5  UNL     1      24.545   2.906  52.177  1.00  0.00     0.135 C 
HETATM    3  N1  UNL     1      25.041   1.618  52.670  1.00  0.00    -0.245 NA
HETATM    4  C6  UNL     1      24.194   0.654  53.055  1.00  0.00     0.124 C 
HETATM    5  C13 UNL     1      22.670   0.685  53.052  1.00  0.00     0.229 C 
HETATM    6  N3  UNL     1      22.264   1.010  51.660  1.00  0.00    -0.264 NA
HETATM    7  C14 UNL     1      22.622   2.095  51.019  1.00  0.00     0.139 C 
ENDROOT
BRANCH   4   8
HETATM    8  N2  UNL     1      24.851  -0.512  53.498  1.00  0.00    -0.343 N 
HETATM    9  H5  UNL     1      24.245  -1.346  53.648  1.00  0.00     0.167 HD
BRANCH   8  10
HETATM   10  C7  UNL     1      26.248  -0.530  53.707  1.00  0.00     0.033 A 
HETATM   11  C8  UNL     1      26.989  -1.343  52.839  1.00  0.00     0.032 A 
HETATM   12  C9  UNL     1      28.378  -1.434  52.935  1.00  0.00     0.044 A 
HETATM   13  C10 UNL     1      29.060  -0.719  53.895  1.00  0.00     0.116 A 
HETATM   14  F1  UNL     1      30.409  -0.777  54.024  1.00  0.00    -0.206 F 
HETATM   15  C11 UNL     1      28.355   0.104  54.781  1.00  0.00     0.044 A 
HETATM   16  C12 UNL     1      26.988   0.149  54.633  1.00  0.00     0.032 A 
ENDBRANCH   8  10
ENDBRANCH   4   8
BRANCH   1  17
HETATM   17  C3  UNL     1      23.047   4.513  51.058  1.00  0.00    -0.018 A 
HETATM   18  C2  UNL     1      23.565   5.376  50.205  1.00  0.00    -0.065 A 
HETATM   19  C1  UNL     1      24.784   5.277  49.371  1.00  0.00     0.045 C 
HETATM   20  C19 UNL     1      22.804   6.680  50.136  1.00  0.00     0.033 A 
HETATM   21  C18 UNL     1      21.771   6.424  51.139  1.00  0.00    -0.017 A 
HETATM   22  C20 UNL     1      23.717   7.836  50.479  1.00  0.00     0.019 C 
HETATM   23  C17 UNL     1      21.943   5.226  51.613  1.00  0.00     0.009 A 
ENDBRANCH   1  17
BRANCH   7  24
HETATM   24  N4  UNL     1      22.168   2.131  49.641  1.00  0.00    -0.314 N 
HETATM   25  C15 UNL     1      22.596   2.194  48.271  1.00  0.00     0.160 C 
BRANCH  24  26
HETATM   26  C16 UNL     1      20.757   1.963  49.607  1.00  0.00     0.356 C 
HETATM   27  O1  UNL     1      19.817   2.729  49.905  1.00  0.00    -0.283 OA
ENDBRANCH  24  26
ENDBRANCH   7  24
TORSDOF 5
ENDMDL
MODEL 4
REMARK VINA RESULT:      -7.8      4.122      7.664
REMARK  5 active torsions:
REMARK  status: ('A' for Active; 'I' for Inactive)
REMARK    1  A    between atoms: C3_3  and  C4_4 
REMARK    2  A    between atoms: C6_7  and  N2_8 
REMARK    3  A    between atoms: N2_8  and  C7_9 
REMARK    4  A    between atoms: C14_18  and  N4_19 
REMARK    5  A    between atoms: N4_19  and  C16_21 
ROOT
HETATM    1  C4  UNL     1      22.215   1.736  50.945  1.00  0.00     0.038 C 
HETATM    2  C5  UNL     1      22.187   0.671  51.722  1.00  0.00     0.135 C 
HETATM    3  N1  UNL     1      23.082   0.260  52.806  1.00  0.00    -0.245 NA
HETATM    4  C6  UNL     1      24.390   0.550  52.769  1.00  0.00     0.124 C 
HETATM    5  C13 UNL     1      25.154   1.311  51.692  1.00  0.00     0.229 C 
HETATM    6  N3  UNL     1      24.472   2.624  51.549  1.00  0.00    -0.264 NA
HETATM    7  C14 UNL     1      23.210   2.772  51.232  1.00  0.00     0.139 C 
ENDROOT
BRANCH   4   8
HETATM    8  N2  UNL     1      25.091   0.075  53.896  1.00  0.00    -0.343 N 
HETATM    9  H5  UNL     1      24.536  -0.013  54.773  1.00  0.00     0.167 HD
BRANCH   8  10
HETATM   10  C7  UNL     1      26.459  -0.267  53.815  1.00  0.00     0.033 A 
HETATM   11  C8  UNL     1      27.321   0.441  54.664  1.00  0.00     0.032 A 
HETATM   12  C9  UNL     1      28.693   0.184  54.687  1.00  0.00     0.044 A 
HETATM   13  C10 UNL     1      29.237  -0.781  53.867  1.00  0.00     0.116 A 
HETATM   14  F1  UNL     1      30.562  -1.064  53.857  1.00  0.00    -0.206 F 
HETATM   15  C11 UNL     1      28.408  -1.508  53.004  1.00  0.00     0.044 A 
HETATM   16  C12 UNL     1      27.065  -1.207  53.030  1.00  0.00     0.032 A 
ENDBRANCH   8  10
ENDBRANCH   4   8
BRANCH   1  17
HETATM   17  C3  UNL     1      21.284   2.051  49.889  1.00  0.00    -0.018 A 
HETATM   18  C2  UNL     1      21.421   2.176  48.583  1.00  0.00    -0.065 A 
HETATM   19  C1  UNL     1      22.621   2.019  47.731  1.00  0.00     0.045 C 
HETATM   20  C19 UNL     1      20.149   2.604  47.886  1.00  0.00     0.033 A 
HETATM   21  C18 UNL     1      19.262   2.741  49.039  1.00  0.00    -0.017 A 
HETATM   22  C20 UNL     1      20.377   3.896  47.131  1.00  0.00     0.019 C 
HETATM   23  C17 UNL     1      19.926   2.426  50.112  1.00  0.00     0.009 A 
ENDBRANCH   1  17
BRANCH   7  24
HETATM   24  N4  UNL     1      22.765   4.153  51.247  1.00  0.00    -0.314 N 
HETATM   25  C15 UNL     1      21.907   5.097  51.906  1.00  0.00     0.160 C 
BRANCH  24  26
HETATM   26  C16 UNL     1      23.515   4.897  50.296  1.00  0.00     0.356 C 
HETATM   27  O1  UNL     1      23.268   5.242  49.122  1.00  0.00    -0.283 OA
ENDBRANCH  24  26
ENDBRANCH   7  24
TORSDOF 5
ENDMDL
MODEL 5
REMARK VINA RESULT:      -7.7      4.127      8.036
REMARK  5 active torsions:
REMARK  status: ('A' for Active; 'I' for Inactive)
REMARK    1  A    between atoms: C3_3  and  C4_4 
REMARK    2  A    between atoms: C6_7  and  N2_8 
REMARK    3  A    between atoms: N2_8  and  C7_9 
REMARK    4  A    between atoms: C14_18  and  N4_19 
REMARK    5  A    between atoms: N4_19  and  C16_21 
ROOT
HETATM    1  C4  UNL     1      23.266   2.583  50.942  1.00  0.00     0.038 C 
HETATM    2  C5  UNL     1      23.709   1.813  51.916  1.00  0.00     0.135 C 
HETATM    3  N1  UNL     1      24.963   1.860  52.671  1.00  0.00    -0.245 NA
HETATM    4  C6  UNL     1      26.100   2.274  52.097  1.00  0.00     0.124 C 
HETATM    5  C13 UNL     1      26.310   2.750  50.664  1.00  0.00     0.229 C 
HETATM    6  N3  UNL     1      25.354   3.867  50.454  1.00  0.00    -0.264 NA
HETATM    7  C14 UNL     1      24.055   3.764  50.585  1.00  0.00     0.139 C 
ENDROOT
BRANCH   4   8
HETATM    8  N2  UNL     1      27.202   2.252  52.976  1.00  0.00    -0.343 N 
HETATM    9  H5  UNL     1      27.415   3.150  53.459  1.00  0.00     0.167 HD
BRANCH   8  10
HETATM   10  C7  UNL     1      27.948   1.071  53.184  1.00  0.00     0.033 A 
HETATM   11  C8  UNL     1      27.304  -0.129  52.855  1.00  0.00     0.032 A 
HETATM   12  C9  UNL     1      27.942  -1.362  53.002  1.00  0.00     0.044 A 
HETATM   13  C10 UNL     1      29.233  -1.427  53.481  1.00  0.00     0.116 A 
HETATM   14  F1  UNL     1      29.891  -2.602  53.639  1.00  0.00    -0.206 F 
HETATM   15  C11 UNL     1      29.909  -0.249  53.821  1.00  0.00     0.044 A 
HETATM   16  C12 UNL     1      29.224   0.932  53.652  1.00  0.00     0.032 A 
ENDBRANCH   8  10
ENDBRANCH   4   8
BRANCH   1  17
HETATM   17  C3  UNL     1      22.008   2.450  50.248  1.00  0.00    -0.018 A 
HETATM   18  C2  UNL     1      20.754   2.597  50.630  1.00  0.00    -0.065 A 
HETATM   19  C1  UNL     1      20.198   2.971  51.949  1.00  0.00     0.045 C 
HETATM   20  C19 UNL     1      19.755   2.268  49.544  1.00  0.00     0.033 A 
HETATM   21  C18 UNL     1      20.666   1.865  48.475  1.00  0.00    -0.017 A 
HETATM   22  C20 UNL     1      18.827   1.165  50.006  1.00  0.00     0.019 C 
HETATM   23  C17 UNL     1      21.887   1.984  48.905  1.00  0.00     0.009 A 
ENDBRANCH   1  17
BRANCH   7  24
HETATM   24  N4  UNL     1      23.352   5.023  50.414  1.00  0.00    -0.314 N 
HETATM   25  C15 UNL     1      22.547   6.010  51.076  1.00  0.00     0.160 C 
BRANCH  24  26
HETATM   26  C16 UNL     1      23.613   5.533  49.114  1.00  0.00     0.356 C 
HETATM   27  O1  UNL     1      23.219   5.179  47.983  1.00  0.00    -0.283 OA
ENDBRANCH  24  26
ENDBRANCH   7  24
TORSDOF 5
ENDMDL
MODEL 6
REMARK VINA RESULT:      -7.7      4.771      7.618
REMARK  5 active torsions:
REMARK  status: ('A' for Active; 'I' for Inactive)
REMARK    1  A    between atoms: C3_3  and  C4_4 
REMARK    2  A    between atoms: C6_7  and  N2_8 
REMARK    3  A    between atoms: N2_8  and  C7_9 
REMARK    4  A    between atoms: C14_18  and  N4_19 
REMARK    5  A    between atoms: N4_19  and  C16_21 
ROOT
HETATM    1  C4  UNL     1      24.989   3.531  50.934  1.00  0.00     0.038 C 
HETATM    2  C5  UNL     1      26.091   2.862  51.212  1.00  0.00     0.135 C 
HETATM    3  N1  UNL     1      26.280   1.471  51.633  1.00  0.00    -0.245 NA
HETATM    4  C6  UNL     1      25.372   0.853  52.400  1.00  0.00     0.124 C 
HETATM    5  C13 UNL     1      24.060   1.412  52.940  1.00  0.00     0.229 C 
HETATM    6  N3  UNL     1      23.295   1.888  51.759  1.00  0.00    -0.264 NA
HETATM    7  C14 UNL     1      23.723   2.795  50.916  1.00  0.00     0.139 C 
ENDROOT
BRANCH   4   8
HETATM    8  N2  UNL     1      25.723  -0.478  52.704  1.00  0.00    -0.343 N 
HETATM    9  H5  UNL     1      24.949  -1.174  52.656  1.00  0.00     0.167 HD
BRANCH   8  10
HETATM   10  C7  UNL     1      27.049  -0.826  53.039  1.00  0.00     0.033 A 
HETATM   11  C8  UNL     1      27.754   0.108  53.811  1.00  0.00     0.032 A 
HETATM   12  C9  UNL     1      29.069  -0.128  54.218  1.00  0.00     0.044 A 
HETATM   13  C10 UNL     1      29.710  -1.295  53.866  1.00  0.00     0.116 A 
HETATM   14  F1  UNL     1      30.984  -1.566  54.240  1.00  0.00    -0.206 F 
HETATM   15  C11 UNL     1      29.039  -2.252  53.095  1.00  0.00     0.044 A 
HETATM   16  C12 UNL     1      27.746  -1.959  52.727  1.00  0.00     0.032 A 
ENDBRANCH   8  10
ENDBRANCH   4   8
BRANCH   1  17
HETATM   17  C3  UNL     1      24.904   4.913  50.532  1.00  0.00    -0.018 A 
HETATM   18  C2  UNL     1      25.593   5.641  49.674  1.00  0.00    -0.065 A 
HETATM   19  C1  UNL     1      26.724   5.263  48.797  1.00  0.00     0.045 C 
HETATM   20  C19 UNL     1      25.176   7.094  49.650  1.00  0.00     0.033 A 
HETATM   21  C18 UNL     1      24.143   7.078  50.685  1.00  0.00    -0.017 A 
HETATM   22  C20 UNL     1      26.358   7.981  49.978  1.00  0.00     0.019 C 
HETATM   23  C17 UNL     1      24.027   5.864  51.135  1.00  0.00     0.009 A 
ENDBRANCH   1  17
BRANCH   7  24
HETATM   24  N4  UNL     1      22.826   3.017  49.797  1.00  0.00    -0.314 N 
HETATM   25  C15 UNL     1      22.716   2.993  48.365  1.00  0.00     0.160 C 
BRANCH  24  26
HETATM   26  C16 UNL     1      21.521   3.292  50.289  1.00  0.00     0.356 C 
HETATM   27  O1  UNL     1      20.737   4.244  50.091  1.00  0.00    -0.283 OA
ENDBRANCH  24  26
ENDBRANCH   7  24
TORSDOF 5
ENDMDL
MODEL 7
REMARK VINA RESULT:      -7.7      3.890      7.629
REMARK  5 active torsions:
REMARK  status: ('A' for Active; 'I' for Inactive)
REMARK    1  A    between atoms: C3_3  and  C4_4 
REMARK    2  A    between atoms: C6_7  and  N2_8 
REMARK    3  A    between atoms: N2_8  and  C7_9 
REMARK    4  A    between atoms: C14_18  and  N4_19 
REMARK    5  A    between atoms: N4_19  and  C16_21 
ROOT
HETATM    1  C4  UNL     1      23.482   3.100  50.480  1.00  0.00     0.038 C 
HETATM    2  C5  UNL     1      24.790   3.067  50.317  1.00  0.00     0.135 C 
HETATM    3  N1  UNL     1      25.848   2.582  51.206  1.00  0.00    -0.245 NA
HETATM    4  C6  UNL     1      25.730   2.679  52.537  1.00  0.00     0.124 C 
HETATM    5  C13 UNL     1      24.568   3.255  53.338  1.00  0.00     0.229 C 
HETATM    6  N3  UNL     1      23.357   2.510  52.906  1.00  0.00    -0.264 NA
HETATM    7  C14 UNL     1      22.920   2.461  51.672  1.00  0.00     0.139 C 
ENDROOT
BRANCH   4   8
HETATM    8  N2  UNL     1      26.844   2.161  53.228  1.00  0.00    -0.343 N 
HETATM    9  H5  UNL     1      27.366   2.839  53.822  1.00  0.00     0.167 HD
BRANCH   8  10
HETATM   10  C7  UNL     1      27.205   0.800  53.118  1.00  0.00     0.033 A 
HETATM   11  C8  UNL     1      28.525   0.484  53.469  1.00  0.00     0.032 A 
HETATM   12  C9  UNL     1      28.998  -0.828  53.416  1.00  0.00     0.044 A 
HETATM   13  C10 UNL     1      28.169  -1.853  53.014  1.00  0.00     0.116 A 
HETATM   14  F1  UNL     1      28.586  -3.142  52.948  1.00  0.00    -0.206 F 
HETATM   15  C11 UNL     1      26.844  -1.577  52.655  1.00  0.00     0.044 A 
HETATM   16  C12 UNL     1      26.442  -0.263  52.729  1.00  0.00     0.032 A 
ENDBRANCH   8  10
ENDBRANCH   4   8
BRANCH   1  17
HETATM   17  C3  UNL     1      22.513   3.610  49.541  1.00  0.00    -0.018 A 
HETATM   18  C2  UNL     1      22.099   3.187  48.362  1.00  0.00    -0.065 A 
HETATM   19  C1  UNL     1      22.500   1.994  47.583  1.00  0.00     0.045 C 
HETATM   20  C19 UNL     1      21.104   4.117  47.707  1.00  0.00     0.033 A 
HETATM   21  C18 UNL     1      21.050   5.179  48.711  1.00  0.00    -0.017 A 
HETATM   22  C20 UNL     1      21.623   4.573  46.361  1.00  0.00     0.019 C 
HETATM   23  C17 UNL     1      21.835   4.856  49.697  1.00  0.00     0.009 A 
ENDBRANCH   1  17
BRANCH   7  24
HETATM   24  N4  UNL     1      21.771   1.592  51.498  1.00  0.00    -0.314 N 
HETATM   25  C15 UNL     1      21.247   0.483  50.751  1.00  0.00     0.160 C 
BRANCH  24  26
HETATM   26  C16 UNL     1      20.804   1.887  52.497  1.00  0.00     0.356 C 
HETATM   27  O1  UNL     1      19.872   2.717  52.539  1.00  0.00    -0.283 OA
ENDBRANCH  24  26
ENDBRANCH   7  24
TORSDOF 5
ENDMDL
MODEL 8
REMARK VINA RESULT:      -7.6      3.022      4.523
REMARK  5 active torsions:
REMARK  status: ('A' for Active; 'I' for Inactive)
REMARK    1  A    between atoms: C3_3  and  C4_4 
REMARK    2  A    between atoms: C6_7  and  N2_8 
REMARK    3  A    between atoms: N2_8  and  C7_9 
REMARK    4  A    between atoms: C14_18  and  N4_19 
REMARK    5  A    between atoms: N4_19  and  C16_21 
ROOT
HETATM    1  C4  UNL     1      25.298   0.715  53.014  1.00  0.00     0.038 C 
HETATM    2  C5  UNL     1      25.476   2.010  52.843  1.00  0.00     0.135 C 
HETATM    3  N1  UNL     1      24.501   3.095  52.707  1.00  0.00    -0.245 NA
HETATM    4  C6  UNL     1      23.319   2.890  52.112  1.00  0.00     0.124 C 
HETATM    5  C13 UNL     1      22.780   1.597  51.511  1.00  0.00     0.229 C 
HETATM    6  N3  UNL     1      22.837   0.582  52.595  1.00  0.00    -0.264 NA
HETATM    7  C14 UNL     1      23.932   0.229  53.222  1.00  0.00     0.139 C 
ENDROOT
BRANCH   4   8
HETATM    8  N2  UNL     1      22.514   4.047  52.072  1.00  0.00    -0.343 N 
HETATM    9  H5  UNL     1      22.967   4.927  52.396  1.00  0.00     0.167 HD
BRANCH   8  10
HETATM   10  C7  UNL     1      21.181   3.995  51.607  1.00  0.00     0.033 A 
HETATM   11  C8  UNL     1      20.915   4.699  50.425  1.00  0.00     0.032 A 
HETATM   12  C9  UNL     1      19.640   4.713  49.857  1.00  0.00     0.044 A 
HETATM   13  C10 UNL     1      18.603   4.028  50.453  1.00  0.00     0.116 A 
HETATM   14  F1  UNL     1      17.350   4.012  49.936  1.00  0.00    -0.206 F 
HETATM   15  C11 UNL     1      18.830   3.313  51.636  1.00  0.00     0.044 A 
HETATM   16  C12 UNL     1      20.109   3.340  52.143  1.00  0.00     0.032 A 
ENDBRANCH   8  10
ENDBRANCH   4   8
BRANCH   1  17
HETATM   17  C3  UNL     1      26.331  -0.285  53.129  1.00  0.00    -0.018 A 
HETATM   18  C2  UNL     1      27.417  -0.369  53.874  1.00  0.00    -0.065 A 
HETATM   19  C1  UNL     1      27.953   0.568  54.887  1.00  0.00     0.045 C 
HETATM   20  C19 UNL     1      28.250  -1.596  53.582  1.00  0.00     0.033 A 
HETATM   21  C18 UNL     1      27.463  -2.186  52.501  1.00  0.00    -0.017 A 
HETATM   22  C20 UNL     1      29.649  -1.192  53.171  1.00  0.00     0.019 C 
HETATM   23  C17 UNL     1      26.422  -1.435  52.291  1.00  0.00     0.009 A 
ENDBRANCH   1  17
BRANCH   7  24
HETATM   24  N4  UNL     1      23.705  -0.715  54.300  1.00  0.00    -0.314 N 
HETATM   25  C15 UNL     1      24.261  -1.272  55.502  1.00  0.00     0.160 C 
BRANCH  24  26
HETATM   26  C16 UNL     1      22.396  -1.255  54.184  1.00  0.00     0.356 C 
HETATM   27  O1  UNL     1      21.612  -1.736  55.029  1.00  0.00    -0.283 OA
ENDBRANCH  24  26
ENDBRANCH   7  24
TORSDOF 5
ENDMDL
MODEL 9
REMARK VINA RESULT:      -7.5      9.586     12.988
REMARK  5 active torsions:
REMARK  status: ('A' for Active; 'I' for Inactive)
REMARK    1  A    between atoms: C3_3  and  C4_4 
REMARK    2  A    between atoms: C6_7  and  N2_8 
REMARK    3  A    between atoms: N2_8  and  C7_9 
REMARK    4  A    between atoms: C14_18  and  N4_19 
REMARK    5  A    between atoms: N4_19  and  C16_21 
ROOT
HETATM    1  C4  UNL     1      27.732   7.012  48.129  1.00  0.00     0.038 C 
HETATM    2  C5  UNL     1      28.215   5.789  48.221  1.00  0.00     0.135 C 
HETATM    3  N1  UNL     1      29.538   5.316  48.634  1.00  0.00    -0.245 NA
HETATM    4  C6  UNL     1      30.639   6.036  48.380  1.00  0.00     0.124 C 
HETATM    5  C13 UNL     1      30.737   7.386  47.679  1.00  0.00     0.229 C 
HETATM    6  N3  UNL     1      29.848   8.309  48.430  1.00  0.00    -0.264 NA
HETATM    7  C14 UNL     1      28.564   8.118  48.608  1.00  0.00     0.139 C 
ENDROOT
BRANCH   4   8
HETATM    8  N2  UNL     1      31.818   5.424  48.849  1.00  0.00    -0.343 N 
HETATM    9  H5  UNL     1      32.024   5.551  49.863  1.00  0.00     0.167 HD
BRANCH   8  10
HETATM   10  C7  UNL     1      32.648   4.677  47.985  1.00  0.00     0.033 A 
HETATM   11  C8  UNL     1      33.812   5.320  47.542  1.00  0.00     0.032 A 
HETATM   12  C9  UNL     1      34.720   4.682  46.696  1.00  0.00     0.044 A 
HETATM   13  C10 UNL     1      34.491   3.391  46.272  1.00  0.00     0.116 A 
HETATM   14  F1  UNL     1      35.345   2.732  45.452  1.00  0.00    -0.206 F 
HETATM   15  C11 UNL     1      33.339   2.715  46.692  1.00  0.00     0.044 A 
HETATM   16  C12 UNL     1      32.485   3.401  47.526  1.00  0.00     0.032 A 
ENDBRANCH   8  10
ENDBRANCH   4   8
BRANCH   1  17
HETATM   17  C3  UNL     1      26.405   7.381  47.700  1.00  0.00    -0.018 A 
HETATM   18  C2  UNL     1      25.203   7.094  48.161  1.00  0.00    -0.065 A 
HETATM   19  C1  UNL     1      24.799   6.270  49.323  1.00  0.00     0.045 C 
HETATM   20  C19 UNL     1      24.086   7.659  47.314  1.00  0.00     0.033 A 
HETATM   21  C18 UNL     1      24.868   8.295  46.255  1.00  0.00    -0.017 A 
HETATM   22  C20 UNL     1      23.185   6.545  46.826  1.00  0.00     0.019 C 
HETATM   23  C17 UNL     1      26.130   8.119  46.511  1.00  0.00     0.009 A 
ENDBRANCH   1  17
BRANCH   7  24
HETATM   24  N4  UNL     1      27.940   9.119  49.455  1.00  0.00    -0.314 N 
HETATM   25  C15 UNL     1      27.108   9.319  50.608  1.00  0.00     0.160 C 
BRANCH  24  26
HETATM   26  C16 UNL     1      28.367  10.411  49.047  1.00  0.00     0.356 C 
HETATM   27  O1  UNL     1      27.870  11.545  49.207  1.00  0.00    -0.283 OA
ENDBRANCH  24  26
ENDBRANCH   7  24
TORSDOF 5
ENDMDL
