MODEL 1
REMARK VINA RESULT:     -10.2      0.000      0.000
REMARK  2 active torsions:
REMARK  status: ('A' for Active; 'I' for Inactive)
REMARK       I    between atoms: C1_2  and  N1_3 
REMARK    1  A    between atoms: C1_2  and  C16_22 
REMARK    2  A    between atoms: N1_3  and  C2_4 
ROOT
HETATM    1  C2  UNL     1      24.105   1.841  51.834  1.00  0.00     0.018 C 
HETATM    2  C3  UNL     1      24.332   2.433  50.625  1.00  0.00     0.059 C 
HETATM    3  C4  UNL     1      23.345   3.153  49.659  1.00  0.00     0.086 C 
HETATM    4  N2  UNL     1      23.309   2.689  48.389  1.00  0.00    -0.259 NA
HETATM    5  C5  UNL     1      22.172   1.775  47.985  1.00  0.00     0.113 C 
HETATM    6  C6  UNL     1      21.177   1.106  48.677  1.00  0.00    -0.002 C 
HETATM    7  C7  UNL     1      21.530   0.926  50.154  1.00  0.00     0.088 C 
HETATM    8  C8  UNL     1      21.385   2.149  50.957  1.00  0.00     0.051 A 
HETATM    9  C9  UNL     1      20.679   2.341  52.111  1.00  0.00     0.083 A 
HETATM   10  N3  UNL     1      20.470   3.552  52.641  1.00  0.00    -0.222 NA
HETATM   11  C10 UNL     1      21.210   4.432  51.666  1.00  0.00     0.178 A 
HETATM   12  S1  UNL     1      21.768   5.997  51.376  1.00  0.00    -0.061 SA
HETATM   13  C11 UNL     1      22.872   5.497  49.868  1.00  0.00     0.085 A 
HETATM   14  C12 UNL     1      22.374   4.251  50.156  1.00  0.00     0.077 A 
HETATM   15  N4  UNL     1      21.592   3.456  50.903  1.00  0.00    -0.289 N 
HETATM   16  C13 UNL     1      20.670   0.867  52.408  1.00  0.00     0.030 C 
HETATM   17  C14 UNL     1      22.031   0.618  52.762  1.00  0.00    -0.018 C 
HETATM   18  C15 UNL     1      22.980   1.732  52.758  1.00  0.00     0.084 C 
ENDROOT
BRANCH   1  19
HETATM   19  N1  UNL     1      25.373   1.342  52.231  1.00  0.00    -0.326 N 
HETATM   20  C1  UNL     1      26.369   1.430  53.211  1.00  0.00     0.262 C 
HETATM   21  O1  UNL     1      25.995   2.277  54.066  1.00  0.00    -0.267 OA
HETATM   22  H1  UNL     1      25.732   0.622  51.530  1.00  0.00     0.169 HD
BRANCH  20  23
HETATM   23  C16 UNL     1      27.631   0.743  53.344  1.00  0.00     0.109 A 
HETATM   24  C17 UNL     1      28.885   1.246  53.598  1.00  0.00     0.135 A 
HETATM   25  F1  UNL     1      29.002   2.576  53.755  1.00  0.00    -0.205 F 
HETATM   26  C18 UNL     1      30.042   0.513  53.709  1.00  0.00     0.043 A 
HETATM   27  C19 UNL     1      29.896  -0.846  53.545  1.00  0.00     0.006 A 
HETATM   28  C20 UNL     1      28.675  -1.426  53.287  1.00  0.00     0.043 A 
HETATM   29  C21 UNL     1      27.572  -0.620  53.192  1.00  0.00     0.135 A 
HETATM   30  F2  UNL     1      26.403  -1.296  52.933  1.00  0.00    -0.205 F 
ENDBRANCH  20  23
ENDBRANCH   1  19
TORSDOF 2
ENDMDL
MODEL 2
REMARK VINA RESULT:      -9.6      1.677      2.845
REMARK  2 active torsions:
REMARK  status: ('A' for Active; 'I' for Inactive)
REMARK       I    between atoms: C1_2  and  N1_3 
REMARK    1  A    between atoms: C1_2  and  C16_22 
REMARK    2  A    between atoms: N1_3  and  C2_4 
ROOT
HETATM    1  C2  UNL     1      24.058   2.512  51.477  1.00  0.00     0.018 C 
HETATM    2  C3  UNL     1      23.325   1.442  51.049  1.00  0.00     0.059 C 
HETATM    3  C4  UNL     1      21.935   1.393  50.350  1.00  0.00     0.086 C 
HETATM    4  N2  UNL     1      20.994   0.627  50.947  1.00  0.00    -0.259 NA
HETATM    5  C5  UNL     1      19.933   1.308  51.785  1.00  0.00     0.113 C 
HETATM    6  C6  UNL     1      19.763   2.592  52.273  1.00  0.00    -0.002 C 
HETATM    7  C7  UNL     1      21.082   3.365  52.320  1.00  0.00     0.088 C 
HETATM    8  C8  UNL     1      21.548   3.832  51.006  1.00  0.00     0.051 A 
HETATM    9  C9  UNL     1      21.900   5.095  50.618  1.00  0.00     0.083 A 
HETATM   10  N3  UNL     1      22.124   5.426  49.341  1.00  0.00    -0.222 NA
HETATM   11  C10 UNL     1      21.910   4.102  48.651  1.00  0.00     0.178 A 
HETATM   12  S1  UNL     1      22.058   3.272  47.190  1.00  0.00    -0.061 SA
HETATM   13  C11 UNL     1      21.728   1.528  47.962  1.00  0.00     0.085 A 
HETATM   14  C12 UNL     1      21.613   2.267  49.113  1.00  0.00     0.077 A 
HETATM   15  N4  UNL     1      21.631   3.454  49.739  1.00  0.00    -0.289 N 
HETATM   16  C13 UNL     1      22.132   5.520  52.042  1.00  0.00     0.030 C 
HETATM   17  C14 UNL     1      23.326   4.816  52.380  1.00  0.00    -0.018 C 
HETATM   18  C15 UNL     1      23.959   3.965  51.371  1.00  0.00     0.084 C 
ENDROOT
BRANCH   1  19
HETATM   19  N1  UNL     1      25.224   1.941  52.049  1.00  0.00    -0.326 N 
HETATM   20  C1  UNL     1      26.619   1.883  51.957  1.00  0.00     0.262 C 
HETATM   21  O1  UNL     1      26.974   2.621  50.998  1.00  0.00    -0.267 OA
HETATM   22  H1  UNL     1      24.970   1.302  52.866  1.00  0.00     0.169 HD
BRANCH  20  23
HETATM   23  C16 UNL     1      27.592   1.161  52.742  1.00  0.00     0.109 A 
HETATM   24  C17 UNL     1      28.565   1.635  53.591  1.00  0.00     0.135 A 
HETATM   25  F1  UNL     1      28.662   2.967  53.745  1.00  0.00    -0.205 F 
HETATM   26  C18 UNL     1      29.457   0.869  54.303  1.00  0.00     0.043 A 
HETATM   27  C19 UNL     1      29.336  -0.490  54.128  1.00  0.00     0.006 A 
HETATM   28  C20 UNL     1      28.390  -1.042  53.296  1.00  0.00     0.043 A 
HETATM   29  C21 UNL     1      27.540  -0.205  52.622  1.00  0.00     0.135 A 
HETATM   30  F2  UNL     1      26.633  -0.854  51.818  1.00  0.00    -0.205 F 
ENDBRANCH  20  23
ENDBRANCH   1  19
TORSDOF 2
ENDMDL
MODEL 3
REMARK VINA RESULT:      -8.7      8.876     11.354
REMARK  2 active torsions:
REMARK  status: ('A' for Active; 'I' for Inactive)
REMARK       I    between atoms: C1_2  and  N1_3 
REMARK    1  A    between atoms: C1_2  and  C16_22 
REMARK    2  A    between atoms: N1_3  and  C2_4 
ROOT
HETATM    1  C2  UNL     1      31.137   6.692  47.969  1.00  0.00     0.018 C 
HETATM    2  C3  UNL     1      31.521   5.473  47.486  1.00  0.00     0.059 C 
HETATM    3  C4  UNL     1      32.866   5.028  46.841  1.00  0.00     0.086 C 
HETATM    4  N2  UNL     1      32.779   4.456  45.618  1.00  0.00    -0.259 NA
HETATM    5  C5  UNL     1      33.109   5.295  44.402  1.00  0.00     0.113 C 
HETATM    6  C6  UNL     1      33.329   6.646  44.191  1.00  0.00    -0.002 C 
HETATM    7  C7  UNL     1      32.734   7.504  45.308  1.00  0.00     0.088 C 
HETATM    8  C8  UNL     1      33.511   7.484  46.556  1.00  0.00     0.051 A 
HETATM    9  C9  UNL     1      34.000   8.535  47.281  1.00  0.00     0.083 A 
HETATM   10  N3  UNL     1      34.857   8.380  48.296  1.00  0.00    -0.222 NA
HETATM   11  C10 UNL     1      35.004   6.879  48.331  1.00  0.00     0.178 A 
HETATM   12  S1  UNL     1      35.630   5.579  49.204  1.00  0.00    -0.061 SA
HETATM   13  C11 UNL     1      34.695   4.232  48.176  1.00  0.00     0.085 A 
HETATM   14  C12 UNL     1      34.230   5.335  47.505  1.00  0.00     0.077 A 
HETATM   15  N4  UNL     1      34.202   6.666  47.335  1.00  0.00    -0.289 N 
HETATM   16  C13 UNL     1      33.018   9.487  46.654  1.00  0.00     0.030 C 
HETATM   17  C14 UNL     1      31.782   9.083  47.244  1.00  0.00    -0.018 C 
HETATM   18  C15 UNL     1      31.782   7.980  48.206  1.00  0.00     0.084 C 
ENDROOT
BRANCH   1  19
HETATM   19  N1  UNL     1      29.804   6.496  48.416  1.00  0.00    -0.326 N 
HETATM   20  C1  UNL     1      28.460   6.731  48.106  1.00  0.00     0.262 C 
HETATM   21  O1  UNL     1      28.419   7.358  47.013  1.00  0.00    -0.267 OA
HETATM   22  H1  UNL     1      29.790   5.971  49.345  1.00  0.00     0.169 HD
BRANCH  20  23
HETATM   23  C16 UNL     1      27.250   6.380  48.810  1.00  0.00     0.109 A 
HETATM   24  C17 UNL     1      26.309   7.191  49.402  1.00  0.00     0.135 A 
HETATM   25  F1  UNL     1      26.505   8.519  49.340  1.00  0.00    -0.205 F 
HETATM   26  C18 UNL     1      25.177   6.768  50.057  1.00  0.00     0.043 A 
HETATM   27  C19 UNL     1      25.000   5.404  50.106  1.00  0.00     0.006 A 
HETATM   28  C20 UNL     1      25.895   4.527  49.538  1.00  0.00     0.043 A 
HETATM   29  C21 UNL     1      26.999   5.034  48.905  1.00  0.00     0.135 A 
HETATM   30  F2  UNL     1      27.830   4.077  48.372  1.00  0.00    -0.205 F 
ENDBRANCH  20  23
ENDBRANCH   1  19
TORSDOF 2
ENDMDL
MODEL 4
REMARK VINA RESULT:      -8.5      9.014     11.695
REMARK  2 active torsions:
REMARK  status: ('A' for Active; 'I' for Inactive)
REMARK       I    between atoms: C1_2  and  N1_3 
REMARK    1  A    between atoms: C1_2  and  C16_22 
REMARK    2  A    between atoms: N1_3  and  C2_4 
ROOT
HETATM    1  C2  UNL     1      31.414   6.266  47.423  1.00  0.00     0.018 C 
HETATM    2  C3  UNL     1      31.931   7.525  47.309  1.00  0.00     0.059 C 
HETATM    3  C4  UNL     1      33.310   7.999  46.766  1.00  0.00     0.086 C 
HETATM    4  N2  UNL     1      34.048   8.767  47.599  1.00  0.00    -0.259 NA
HETATM    5  C5  UNL     1      35.188   8.122  48.358  1.00  0.00     0.113 C 
HETATM    6  C6  UNL     1      35.595   6.814  48.564  1.00  0.00    -0.002 C 
HETATM    7  C7  UNL     1      34.461   5.818  48.320  1.00  0.00     0.088 C 
HETATM    8  C8  UNL     1      34.158   5.591  46.899  1.00  0.00     0.051 A 
HETATM    9  C9  UNL     1      34.090   4.411  46.213  1.00  0.00     0.083 A 
HETATM   10  N3  UNL     1      33.994   4.353  44.879  1.00  0.00    -0.222 NA
HETATM   11  C10 UNL     1      33.963   5.817  44.521  1.00  0.00     0.178 A 
HETATM   12  S1  UNL     1      33.712   6.922  43.272  1.00  0.00    -0.061 SA
HETATM   13  C11 UNL     1      33.646   8.467  44.435  1.00  0.00     0.085 A 
HETATM   14  C12 UNL     1      33.858   7.515  45.401  1.00  0.00     0.077 A 
HETATM   15  N4  UNL     1      34.055   6.233  45.745  1.00  0.00    -0.289 N 
HETATM   16  C13 UNL     1      33.887   3.629  47.481  1.00  0.00     0.030 C 
HETATM   17  C14 UNL     1      32.560   3.996  47.858  1.00  0.00    -0.018 C 
HETATM   18  C15 UNL     1      31.812   4.924  47.009  1.00  0.00     0.084 C 
ENDROOT
BRANCH   1  19
HETATM   19  N1  UNL     1      30.131   6.457  48.000  1.00  0.00    -0.326 N 
HETATM   20  C1  UNL     1      28.839   6.937  47.756  1.00  0.00     0.262 C 
HETATM   21  O1  UNL     1      28.803   7.362  46.570  1.00  0.00    -0.267 OA
HETATM   22  H1  UNL     1      30.117   6.113  49.011  1.00  0.00     0.169 HD
BRANCH  20  23
HETATM   23  C16 UNL     1      27.674   6.995  48.605  1.00  0.00     0.109 A 
HETATM   24  C17 UNL     1      27.106   8.070  49.248  1.00  0.00     0.135 A 
HETATM   25  F1  UNL     1      27.690   9.270  49.090  1.00  0.00    -0.205 F 
HETATM   26  C18 UNL     1      25.986   8.034  50.044  1.00  0.00     0.043 A 
HETATM   27  C19 UNL     1      25.406   6.794  50.189  1.00  0.00     0.006 A 
HETATM   28  C20 UNL     1      25.914   5.671  49.580  1.00  0.00     0.043 A 
HETATM   29  C21 UNL     1      27.035   5.796  48.803  1.00  0.00     0.135 A 
HETATM   30  F2  UNL     1      27.463   4.616  48.239  1.00  0.00    -0.205 F 
ENDBRANCH  20  23
ENDBRANCH   1  19
TORSDOF 2
ENDMDL
MODEL 5
REMARK VINA RESULT:      -8.3      7.847      9.658
REMARK  2 active torsions:
REMARK  status: ('A' for Active; 'I' for Inactive)
REMARK       I    between atoms: C1_2  and  N1_3 
REMARK    1  A    between atoms: C1_2  and  C16_22 
REMARK    2  A    between atoms: N1_3  and  C2_4 
ROOT
HETATM    1  C2  UNL     1      30.147   7.804  47.539  1.00  0.00     0.018 C 
HETATM    2  C3  UNL     1      28.925   7.198  47.464  1.00  0.00     0.059 C 
HETATM    3  C4  UNL     1      27.495   7.812  47.510  1.00  0.00     0.086 C 
HETATM    4  N2  UNL     1      26.660   7.309  48.448  1.00  0.00    -0.259 NA
HETATM    5  C5  UNL     1      26.444   8.098  49.722  1.00  0.00     0.113 C 
HETATM    6  C6  UNL     1      27.055   9.202  50.291  1.00  0.00    -0.002 C 
HETATM    7  C7  UNL     1      28.464   9.424  49.738  1.00  0.00     0.088 C 
HETATM    8  C8  UNL     1      28.492   9.997  48.385  1.00  0.00     0.051 A 
HETATM    9  C9  UNL     1      29.150  11.108  47.936  1.00  0.00     0.083 A 
HETATM   10  N3  UNL     1      28.941  11.634  46.724  1.00  0.00    -0.222 NA
HETATM   11  C10 UNL     1      27.921  10.678  46.159  1.00  0.00     0.178 A 
HETATM   12  S1  UNL     1      27.082  10.227  44.767  1.00  0.00    -0.061 SA
HETATM   13  C11 UNL     1      26.396   8.582  45.520  1.00  0.00     0.085 A 
HETATM   14  C12 UNL     1      27.095   9.013  46.620  1.00  0.00     0.077 A 
HETATM   15  N4  UNL     1      27.873   9.930  47.216  1.00  0.00    -0.289 N 
HETATM   16  C13 UNL     1      30.108  11.068  49.094  1.00  0.00     0.030 C 
HETATM   17  C14 UNL     1      30.911   9.928  48.789  1.00  0.00    -0.018 C 
HETATM   18  C15 UNL     1      30.640   9.178  47.561  1.00  0.00     0.084 C 
ENDROOT
BRANCH   1  19
HETATM   19  N1  UNL     1      31.080   6.737  47.458  1.00  0.00    -0.326 N 
HETATM   20  C1  UNL     1      31.825   5.824  48.213  1.00  0.00     0.262 C 
HETATM   21  O1  UNL     1      31.567   6.029  49.430  1.00  0.00    -0.267 OA
HETATM   22  H1  UNL     1      31.332   6.532  46.441  1.00  0.00     0.169 HD
BRANCH  20  23
HETATM   23  C16 UNL     1      32.748   4.791  47.810  1.00  0.00     0.109 A 
HETATM   24  C17 UNL     1      34.114   4.726  47.955  1.00  0.00     0.135 A 
HETATM   25  F1  UNL     1      34.726   5.758  48.560  1.00  0.00    -0.205 F 
HETATM   26  C18 UNL     1      34.922   3.695  47.537  1.00  0.00     0.043 A 
HETATM   27  C19 UNL     1      34.271   2.650  46.921  1.00  0.00     0.006 A 
HETATM   28  C20 UNL     1      32.908   2.641  46.738  1.00  0.00     0.043 A 
HETATM   29  C21 UNL     1      32.178   3.710  47.185  1.00  0.00     0.135 A 
HETATM   30  F2  UNL     1      30.826   3.604  46.954  1.00  0.00    -0.205 F 
ENDBRANCH  20  23
ENDBRANCH   1  19
TORSDOF 2
ENDMDL
MODEL 6
REMARK VINA RESULT:      -8.1      4.934      6.394
REMARK  2 active torsions:
REMARK  status: ('A' for Active; 'I' for Inactive)
REMARK       I    between atoms: C1_2  and  N1_3 
REMARK    1  A    between atoms: C1_2  and  C16_22 
REMARK    2  A    between atoms: N1_3  and  C2_4 
ROOT
HETATM    1  C2  UNL     1      25.774   5.930  49.382  1.00  0.00     0.018 C 
HETATM    2  C3  UNL     1      25.691   4.588  49.619  1.00  0.00     0.059 C 
HETATM    3  C4  UNL     1      24.451   3.698  49.929  1.00  0.00     0.086 C 
HETATM    4  N2  UNL     1      24.516   2.960  51.060  1.00  0.00    -0.259 NA
HETATM    5  C5  UNL     1      23.780   3.452  52.289  1.00  0.00     0.113 C 
HETATM    6  C6  UNL     1      23.151   4.638  52.628  1.00  0.00    -0.002 C 
HETATM    7  C7  UNL     1      23.633   5.807  51.768  1.00  0.00     0.088 C 
HETATM    8  C8  UNL     1      23.089   5.808  50.401  1.00  0.00     0.051 A 
HETATM    9  C9  UNL     1      22.432   6.807  49.739  1.00  0.00     0.083 A 
HETATM   10  N3  UNL     1      21.818   6.618  48.565  1.00  0.00    -0.222 NA
HETATM   11  C10 UNL     1      22.116   5.162  48.308  1.00  0.00     0.178 A 
HETATM   12  S1  UNL     1      22.031   3.921  47.169  1.00  0.00    -0.061 SA
HETATM   13  C11 UNL     1      23.150   2.704  48.174  1.00  0.00     0.085 A 
HETATM   14  C12 UNL     1      23.172   3.752  49.060  1.00  0.00     0.077 A 
HETATM   15  N4  UNL     1      22.789   4.992  49.403  1.00  0.00    -0.289 N 
HETATM   16  C13 UNL     1      22.992   7.855  50.661  1.00  0.00     0.030 C 
HETATM   17  C14 UNL     1      24.366   7.900  50.274  1.00  0.00    -0.018 C 
HETATM   18  C15 UNL     1      24.828   7.026  49.195  1.00  0.00     0.084 C 
ENDROOT
BRANCH   1  19
HETATM   19  N1  UNL     1      27.158   6.172  49.180  1.00  0.00    -0.326 N 
HETATM   20  C1  UNL     1      28.089   6.787  48.335  1.00  0.00     0.262 C 
HETATM   21  O1  UNL     1      27.453   7.333  47.393  1.00  0.00    -0.267 OA
HETATM   22  H1  UNL     1      27.737   5.722  49.955  1.00  0.00     0.169 HD
BRANCH  20  23
HETATM   23  C16 UNL     1      29.528   6.862  48.405  1.00  0.00     0.109 A 
HETATM   24  C17 UNL     1      30.339   7.921  48.741  1.00  0.00     0.135 A 
HETATM   25  F1  UNL     1      29.745   9.083  49.061  1.00  0.00    -0.205 F 
HETATM   26  C18 UNL     1      31.713   7.904  48.781  1.00  0.00     0.043 A 
HETATM   27  C19 UNL     1      32.296   6.703  48.450  1.00  0.00     0.006 A 
HETATM   28  C20 UNL     1      31.555   5.597  48.102  1.00  0.00     0.043 A 
HETATM   29  C21 UNL     1      30.189   5.702  48.087  1.00  0.00     0.135 A 
HETATM   30  F2  UNL     1      29.541   4.544  47.727  1.00  0.00    -0.205 F 
ENDBRANCH  20  23
ENDBRANCH   1  19
TORSDOF 2
ENDMDL
MODEL 7
REMARK VINA RESULT:      -8.1      2.062      3.694
REMARK  2 active torsions:
REMARK  status: ('A' for Active; 'I' for Inactive)
REMARK       I    between atoms: C1_2  and  N1_3 
REMARK    1  A    between atoms: C1_2  and  C16_22 
REMARK    2  A    between atoms: N1_3  and  C2_4 
ROOT
HETATM    1  C2  UNL     1      23.178   2.446  50.774  1.00  0.00     0.018 C 
HETATM    2  C3  UNL     1      22.650   3.311  51.690  1.00  0.00     0.059 C 
HETATM    3  C4  UNL     1      21.416   4.253  51.585  1.00  0.00     0.086 C 
HETATM    4  N2  UNL     1      21.640   5.561  51.848  1.00  0.00    -0.259 NA
HETATM    5  C5  UNL     1      21.778   6.519  50.684  1.00  0.00     0.113 C 
HETATM    6  C6  UNL     1      21.913   6.364  49.315  1.00  0.00    -0.002 C 
HETATM    7  C7  UNL     1      22.423   4.971  48.945  1.00  0.00     0.088 C 
HETATM    8  C8  UNL     1      21.406   3.914  49.052  1.00  0.00     0.051 A 
HETATM    9  C9  UNL     1      21.015   3.000  48.114  1.00  0.00     0.083 A 
HETATM   10  N3  UNL     1      19.943   2.214  48.270  1.00  0.00    -0.222 NA
HETATM   11  C10 UNL     1      19.465   2.635  49.636  1.00  0.00     0.178 A 
HETATM   12  S1  UNL     1      18.392   2.279  50.888  1.00  0.00    -0.061 SA
HETATM   13  C11 UNL     1      19.209   3.496  52.151  1.00  0.00     0.085 A 
HETATM   14  C12 UNL     1      20.041   3.744  51.088  1.00  0.00     0.077 A 
HETATM   15  N4  UNL     1      20.399   3.516  49.814  1.00  0.00    -0.289 N 
HETATM   16  C13 UNL     1      22.295   3.170  47.343  1.00  0.00     0.030 C 
HETATM   17  C14 UNL     1      23.251   2.542  48.197  1.00  0.00    -0.018 C 
HETATM   18  C15 UNL     1      22.797   1.948  49.455  1.00  0.00     0.084 C 
ENDROOT
BRANCH   1  19
HETATM   19  N1  UNL     1      24.304   1.878  51.426  1.00  0.00    -0.326 N 
HETATM   20  C1  UNL     1      24.713   0.874  52.311  1.00  0.00     0.262 C 
HETATM   21  O1  UNL     1      23.689   0.229  52.664  1.00  0.00    -0.267 OA
HETATM   22  H1  UNL     1      25.197   2.398  51.160  1.00  0.00     0.169 HD
BRANCH  20  23
HETATM   23  C16 UNL     1      26.022   0.528  52.812  1.00  0.00     0.109 A 
HETATM   24  C17 UNL     1      26.810  -0.565  52.535  1.00  0.00     0.135 A 
HETATM   25  F1  UNL     1      26.330  -1.475  51.671  1.00  0.00    -0.205 F 
HETATM   26  C18 UNL     1      28.054  -0.817  53.062  1.00  0.00     0.043 A 
HETATM   27  C19 UNL     1      28.522   0.130  53.943  1.00  0.00     0.006 A 
HETATM   28  C20 UNL     1      27.794   1.250  54.273  1.00  0.00     0.043 A 
HETATM   29  C21 UNL     1      26.562   1.423  53.701  1.00  0.00     0.135 A 
HETATM   30  F2  UNL     1      25.916   2.572  54.095  1.00  0.00    -0.205 F 
ENDBRANCH  20  23
ENDBRANCH   1  19
TORSDOF 2
ENDMDL
MODEL 8
REMARK VINA RESULT:      -7.8      7.754     10.224
REMARK  2 active torsions:
REMARK  status: ('A' for Active; 'I' for Inactive)
REMARK       I    between atoms: C1_2  and  N1_3 
REMARK    1  A    between atoms: C1_2  and  C16_22 
REMARK    2  A    between atoms: N1_3  and  C2_4 
ROOT
HETATM    1  C2  UNL     1      28.480   8.180  48.555  1.00  0.00     0.018 C 
HETATM    2  C3  UNL     1      27.848   9.350  48.238  1.00  0.00     0.059 C 
HETATM    3  C4  UNL     1      28.392  10.624  47.528  1.00  0.00     0.086 C 
HETATM    4  N2  UNL     1      28.233  11.791  48.193  1.00  0.00    -0.259 NA
HETATM    5  C5  UNL     1      29.421  12.368  48.934  1.00  0.00     0.113 C 
HETATM    6  C6  UNL     1      30.675  11.889  49.273  1.00  0.00    -0.002 C 
HETATM    7  C7  UNL     1      30.728  10.360  49.252  1.00  0.00     0.088 C 
HETATM    8  C8  UNL     1      30.776   9.782  47.901  1.00  0.00     0.051 A 
HETATM    9  C9  UNL     1      31.671   8.890  47.380  1.00  0.00     0.083 A 
HETATM   10  N3  UNL     1      31.719   8.587  46.078  1.00  0.00    -0.222 NA
HETATM   11  C10 UNL     1      30.591   9.430  45.537  1.00  0.00     0.178 A 
HETATM   12  S1  UNL     1      29.642   9.752  44.181  1.00  0.00    -0.061 SA
HETATM   13  C11 UNL     1      28.358  10.838  45.137  1.00  0.00     0.085 A 
HETATM   14  C12 UNL     1      29.178  10.542  46.197  1.00  0.00     0.077 A 
HETATM   15  N4  UNL     1      30.272   9.939  46.686  1.00  0.00    -0.289 N 
HETATM   16  C13 UNL     1      32.082   8.427  48.750  1.00  0.00     0.030 C 
HETATM   17  C14 UNL     1      30.935   7.696  49.183  1.00  0.00    -0.018 C 
HETATM   18  C15 UNL     1      29.785   7.584  48.285  1.00  0.00     0.084 C 
ENDROOT
BRANCH   1  19
HETATM   19  N1  UNL     1      27.486   7.402  49.204  1.00  0.00    -0.326 N 
HETATM   20  C1  UNL     1      26.246   6.776  49.034  1.00  0.00     0.262 C 
HETATM   21  O1  UNL     1      25.868   6.986  47.849  1.00  0.00    -0.267 OA
HETATM   22  H1  UNL     1      27.764   7.204  50.216  1.00  0.00     0.169 HD
BRANCH  20  23
HETATM   23  C16 UNL     1      25.440   6.005  49.949  1.00  0.00     0.109 A 
HETATM   24  C17 UNL     1      24.497   6.424  50.858  1.00  0.00     0.135 A 
HETATM   25  F1  UNL     1      24.255   7.743  50.942  1.00  0.00    -0.205 F 
HETATM   26  C18 UNL     1      23.770   5.613  51.697  1.00  0.00     0.043 A 
HETATM   27  C19 UNL     1      24.035   4.267  51.591  1.00  0.00     0.006 A 
HETATM   28  C20 UNL     1      24.964   3.770  50.707  1.00  0.00     0.043 A 
HETATM   29  C21 UNL     1      25.645   4.649  49.907  1.00  0.00     0.135 A 
HETATM   30  F2  UNL     1      26.549   4.053  49.059  1.00  0.00    -0.205 F 
ENDBRANCH  20  23
ENDBRANCH   1  19
TORSDOF 2
ENDMDL
MODEL 9
REMARK VINA RESULT:      -7.7      2.478      4.066
REMARK  2 active torsions:
REMARK  status: ('A' for Active; 'I' for Inactive)
REMARK       I    between atoms: C1_2  and  N1_3 
REMARK    1  A    between atoms: C1_2  and  C16_22 
REMARK    2  A    between atoms: N1_3  and  C2_4 
ROOT
HETATM    1  C2  UNL     1      22.985   3.512  50.066  1.00  0.00     0.018 C 
HETATM    2  C3  UNL     1      22.169   2.712  49.318  1.00  0.00     0.059 C 
HETATM    3  C4  UNL     1      20.983   3.084  48.381  1.00  0.00     0.086 C 
HETATM    4  N2  UNL     1      19.803   2.476  48.642  1.00  0.00    -0.259 NA
HETATM    5  C5  UNL     1      18.738   3.253  49.386  1.00  0.00     0.113 C 
HETATM    6  C6  UNL     1      18.720   4.457  50.069  1.00  0.00    -0.002 C 
HETATM    7  C7  UNL     1      20.121   4.892  50.499  1.00  0.00     0.088 C 
HETATM    8  C8  UNL     1      20.944   5.426  49.403  1.00  0.00     0.051 A 
HETATM    9  C9  UNL     1      21.611   6.617  49.331  1.00  0.00     0.083 A 
HETATM   10  N3  UNL     1      22.168   7.069  48.202  1.00  0.00    -0.222 NA
HETATM   11  C10 UNL     1      21.856   5.944  47.248  1.00  0.00     0.178 A 
HETATM   12  S1  UNL     1      22.155   5.323  45.708  1.00  0.00    -0.061 SA
HETATM   13  C11 UNL     1      21.332   3.608  46.064  1.00  0.00     0.085 A 
HETATM   14  C12 UNL     1      21.115   4.178  47.294  1.00  0.00     0.077 A 
HETATM   15  N4  UNL     1      21.227   5.226  48.125  1.00  0.00    -0.289 N 
HETATM   16  C13 UNL     1      21.605   6.767  50.828  1.00  0.00     0.030 C 
HETATM   17  C14 UNL     1      22.537   5.766  51.239  1.00  0.00    -0.018 C 
HETATM   18  C15 UNL     1      23.196   4.949  50.219  1.00  0.00     0.084 C 
ENDROOT
BRANCH   1  19
HETATM   19  N1  UNL     1      23.865   2.612  50.722  1.00  0.00    -0.326 N 
HETATM   20  C1  UNL     1      24.255   2.119  51.972  1.00  0.00     0.262 C 
HETATM   21  O1  UNL     1      23.558   2.697  52.849  1.00  0.00    -0.267 OA
HETATM   22  H1  UNL     1      24.480   2.102  50.015  1.00  0.00     0.169 HD
BRANCH  20  23
HETATM   23  C16 UNL     1      25.248   1.138  52.336  1.00  0.00     0.109 A 
HETATM   24  C17 UNL     1      25.087  -0.134  52.835  1.00  0.00     0.135 A 
HETATM   25  F1  UNL     1      23.832  -0.573  53.028  1.00  0.00    -0.205 F 
HETATM   26  C18 UNL     1      26.098  -1.008  53.157  1.00  0.00     0.043 A 
HETATM   27  C19 UNL     1      27.373  -0.535  52.949  1.00  0.00     0.006 A 
HETATM   28  C20 UNL     1      27.617   0.725  52.454  1.00  0.00     0.043 A 
HETATM   29  C21 UNL     1      26.550   1.532  52.160  1.00  0.00     0.135 A 
HETATM   30  F2  UNL     1      26.900   2.770  51.671  1.00  0.00    -0.205 F 
ENDBRANCH  20  23
ENDBRANCH   1  19
TORSDOF 2
ENDMDL
