MODEL 1
REMARK VINA RESULT:      -9.5      0.000      0.000
REMARK  3 active torsions:
REMARK  status: ('A' for Active; 'I' for Inactive)
REMARK    1  A    between atoms: N1_1  and  C1_2 
REMARK    2  A    between atoms: N3_4  and  C2_5 
REMARK    3  A    between atoms: C6_10  and  C7_11 
ROOT
HETATM    1  C1  UNL     1      28.086  -1.967  53.175  1.00  0.00     0.739 A 
HETATM    2  N2  UNL     1      26.872  -1.563  53.027  1.00  0.00     0.026 NA
HETATM    3  N3  UNL     1      26.523  -0.192  53.113  1.00  0.00    -0.215 N 
HETATM    4  C9  UNL     1      27.630   0.657  53.373  1.00  0.00     0.103 A 
HETATM    5  C10 UNL     1      27.623   1.974  53.473  1.00  0.00     0.028 A 
HETATM    6  C11 UNL     1      28.982   2.501  53.754  1.00  0.00     0.151 A 
HETATM    7  N4  UNL     1      29.820   1.322  53.784  1.00  0.00    -0.369 N 
HETATM    8  C12 UNL     1      28.989   0.201  53.539  1.00  0.00     0.172 A 
HETATM    9  N5  UNL     1      29.178  -1.072  53.439  1.00  0.00    -0.042 NA
HETATM   10  H9  UNL     1      30.832   1.307  53.954  1.00  0.00     0.161 HD
ENDROOT
BRANCH   3  11
HETATM   11  C2  UNL     1      25.163   0.153  52.925  1.00  0.00     0.060 A 
HETATM   12  C3  UNL     1      24.546   0.980  52.017  1.00  0.00     0.034 A 
HETATM   13  C4  UNL     1      23.188   1.189  51.954  1.00  0.00     0.045 A 
HETATM   14  C5  UNL     1      22.356   0.545  52.844  1.00  0.00     0.131 A 
HETATM   15  F1  UNL     1      21.025   0.780  52.746  1.00  0.00    -0.205 F 
HETATM   16  C6  UNL     1      22.893  -0.303  53.790  1.00  0.00     0.088 A 
HETATM   17  C8  UNL     1      24.262  -0.468  53.798  1.00  0.00     0.051 A 
BRANCH  16  18
HETATM   18  C7  UNL     1      22.008  -1.003  54.756  1.00  0.00     0.420 C 
HETATM   19  F2  UNL     1      21.193  -1.921  54.106  1.00  0.00    -0.166 F 
HETATM   20  F3  UNL     1      21.225  -0.065  55.418  1.00  0.00    -0.166 F 
HETATM   21  F4  UNL     1      22.788  -1.710  55.654  1.00  0.00    -0.166 F 
ENDBRANCH  16  18
ENDBRANCH   3  11
BRANCH   1  22
HETATM   22  N1  UNL     1      28.470  -3.336  53.095  1.00  0.00    -0.230 N 
HETATM   23  H1  UNL     1      28.702  -4.005  53.848  1.00  0.00     0.174 HD
HETATM   24  H2  UNL     1      28.550  -3.804  52.160  1.00  0.00     0.174 HD
ENDBRANCH   1  22
TORSDOF 3
ENDMDL
MODEL 2
REMARK VINA RESULT:      -8.7      0.951      2.629
REMARK  3 active torsions:
REMARK  status: ('A' for Active; 'I' for Inactive)
REMARK    1  A    between atoms: N1_1  and  C1_2 
REMARK    2  A    between atoms: N3_4  and  C2_5 
REMARK    3  A    between atoms: C6_10  and  C7_11 
ROOT
HETATM    1  C1  UNL     1      28.760   1.316  54.015  1.00  0.00     0.739 A 
HETATM    2  N2  UNL     1      27.516   1.426  53.699  1.00  0.00     0.026 NA
HETATM    3  N3  UNL     1      26.763   0.322  53.228  1.00  0.00    -0.215 N 
HETATM    4  C9  UNL     1      27.513  -0.881  53.148  1.00  0.00     0.103 A 
HETATM    5  C10 UNL     1      27.079  -2.073  52.780  1.00  0.00     0.028 A 
HETATM    6  C11 UNL     1      28.168  -3.081  52.825  1.00  0.00     0.151 A 
HETATM    7  N4  UNL     1      29.317  -2.341  53.297  1.00  0.00    -0.369 N 
HETATM    8  C12 UNL     1      28.907  -1.000  53.504  1.00  0.00     0.172 A 
HETATM    9  N5  UNL     1      29.482   0.079  53.918  1.00  0.00    -0.042 NA
HETATM   10  H9  UNL     1      30.258  -2.722  53.452  1.00  0.00     0.161 HD
ENDROOT
BRANCH   3  11
HETATM   11  C2  UNL     1      25.400   0.541  52.915  1.00  0.00     0.060 A 
HETATM   12  C3  UNL     1      24.795   1.273  51.923  1.00  0.00     0.034 A 
HETATM   13  C4  UNL     1      23.435   1.362  51.742  1.00  0.00     0.045 A 
HETATM   14  C5  UNL     1      22.587   0.686  52.593  1.00  0.00     0.131 A 
HETATM   15  F1  UNL     1      21.254   0.802  52.378  1.00  0.00    -0.205 F 
HETATM   16  C6  UNL     1      23.111  -0.073  53.618  1.00  0.00     0.088 A 
HETATM   17  C8  UNL     1      24.484  -0.119  53.744  1.00  0.00     0.051 A 
BRANCH  16  18
HETATM   18  C7  UNL     1      22.209  -0.806  54.544  1.00  0.00     0.420 C 
HETATM   19  F2  UNL     1      22.933  -1.416  55.560  1.00  0.00    -0.166 F 
HETATM   20  F3  UNL     1      21.504  -1.765  53.827  1.00  0.00    -0.166 F 
HETATM   21  F4  UNL     1      21.344   0.095  55.139  1.00  0.00    -0.166 F 
ENDBRANCH  16  18
ENDBRANCH   3  11
BRANCH   1  22
HETATM   22  N1  UNL     1      29.545   2.405  54.491  1.00  0.00    -0.230 N 
HETATM   23  H1  UNL     1      30.548   2.441  54.738  1.00  0.00     0.174 HD
HETATM   24  H2  UNL     1      29.104   3.345  54.637  1.00  0.00     0.174 HD
ENDBRANCH   1  22
TORSDOF 3
ENDMDL
MODEL 3
REMARK VINA RESULT:      -8.6      1.486      2.856
REMARK  3 active torsions:
REMARK  status: ('A' for Active; 'I' for Inactive)
REMARK    1  A    between atoms: N1_1  and  C1_2 
REMARK    2  A    between atoms: N3_4  and  C2_5 
REMARK    3  A    between atoms: C6_10  and  C7_11 
ROOT
HETATM    1  C1  UNL     1      28.192  -2.015  53.213  1.00  0.00     0.739 A 
HETATM    2  N2  UNL     1      26.949  -1.684  53.142  1.00  0.00     0.026 NA
HETATM    3  N3  UNL     1      26.526  -0.336  53.252  1.00  0.00    -0.215 N 
HETATM    4  C9  UNL     1      27.595   0.578  53.442  1.00  0.00     0.103 A 
HETATM    5  C10 UNL     1      27.517   1.893  53.544  1.00  0.00     0.028 A 
HETATM    6  C11 UNL     1      28.858   2.500  53.739  1.00  0.00     0.151 A 
HETATM    7  N4  UNL     1      29.764   1.372  53.715  1.00  0.00    -0.369 N 
HETATM    8  C12 UNL     1      28.987   0.203  53.521  1.00  0.00     0.172 A 
HETATM    9  N5  UNL     1      29.244  -1.057  53.408  1.00  0.00    -0.042 NA
HETATM   10  H9  UNL     1      30.784   1.417  53.820  1.00  0.00     0.161 HD
ENDROOT
BRANCH   3  11
HETATM   11  C2  UNL     1      25.139  -0.072  53.151  1.00  0.00     0.060 A 
HETATM   12  C3  UNL     1      24.067  -0.517  53.886  1.00  0.00     0.034 A 
HETATM   13  C4  UNL     1      22.764  -0.137  53.668  1.00  0.00     0.045 A 
HETATM   14  C5  UNL     1      22.471   0.748  52.653  1.00  0.00     0.131 A 
HETATM   15  F1  UNL     1      21.174   1.095  52.473  1.00  0.00    -0.205 F 
HETATM   16  C6  UNL     1      23.489   1.244  51.865  1.00  0.00     0.088 A 
HETATM   17  C8  UNL     1      24.773   0.822  52.137  1.00  0.00     0.051 A 
BRANCH  16  18
HETATM   18  C7  UNL     1      23.188   2.198  50.766  1.00  0.00     0.420 C 
HETATM   19  F2  UNL     1      24.349   2.563  50.096  1.00  0.00    -0.166 F 
HETATM   20  F3  UNL     1      22.577   3.326  51.298  1.00  0.00    -0.166 F 
HETATM   21  F4  UNL     1      22.360   1.580  49.846  1.00  0.00    -0.166 F 
ENDBRANCH  16  18
ENDBRANCH   3  11
BRANCH   1  22
HETATM   22  N1  UNL     1      28.650  -3.360  53.107  1.00  0.00    -0.230 N 
HETATM   23  H1  UNL     1      28.278  -4.223  53.536  1.00  0.00     0.174 HD
HETATM   24  H2  UNL     1      29.489  -3.582  52.520  1.00  0.00     0.174 HD
ENDBRANCH   1  22
TORSDOF 3
ENDMDL
MODEL 4
REMARK VINA RESULT:      -8.2      3.476      5.019
REMARK  3 active torsions:
REMARK  status: ('A' for Active; 'I' for Inactive)
REMARK    1  A    between atoms: N1_1  and  C1_2 
REMARK    2  A    between atoms: N3_4  and  C2_5 
REMARK    3  A    between atoms: C6_10  and  C7_11 
ROOT
HETATM    1  C1  UNL     1      29.120   1.610  54.295  1.00  0.00     0.739 A 
HETATM    2  N2  UNL     1      28.059   2.182  53.842  1.00  0.00     0.026 NA
HETATM    3  N3  UNL     1      27.043   1.453  53.175  1.00  0.00    -0.215 N 
HETATM    4  C9  UNL     1      27.320   0.066  53.067  1.00  0.00     0.103 A 
HETATM    5  C10 UNL     1      26.552  -0.866  52.532  1.00  0.00     0.028 A 
HETATM    6  C11 UNL     1      27.193  -2.203  52.608  1.00  0.00     0.151 A 
HETATM    7  N4  UNL     1      28.445  -1.957  53.288  1.00  0.00    -0.369 N 
HETATM    8  C12 UNL     1      28.511  -0.572  53.576  1.00  0.00     0.172 A 
HETATM    9  N5  UNL     1      29.363   0.201  54.164  1.00  0.00    -0.042 NA
HETATM   10  H9  UNL     1      29.155  -2.663  53.518  1.00  0.00     0.161 HD
ENDROOT
BRANCH   3  11
HETATM   11  C2  UNL     1      25.909   2.170  52.722  1.00  0.00     0.060 A 
HETATM   12  C3  UNL     1      24.717   2.476  53.332  1.00  0.00     0.034 A 
HETATM   13  C4  UNL     1      23.713   3.216  52.751  1.00  0.00     0.045 A 
HETATM   14  C5  UNL     1      23.877   3.701  51.471  1.00  0.00     0.131 A 
HETATM   15  F1  UNL     1      22.863   4.424  50.937  1.00  0.00    -0.205 F 
HETATM   16  C6  UNL     1      25.044   3.438  50.785  1.00  0.00     0.088 A 
HETATM   17  C8  UNL     1      26.009   2.691  51.426  1.00  0.00     0.051 A 
BRANCH  16  18
HETATM   18  C7  UNL     1      25.233   3.954  49.404  1.00  0.00     0.420 C 
HETATM   19  F2  UNL     1      25.152   5.340  49.378  1.00  0.00    -0.166 F 
HETATM   20  F3  UNL     1      24.256   3.410  48.578  1.00  0.00    -0.166 F 
HETATM   21  F4  UNL     1      26.497   3.607  48.961  1.00  0.00    -0.166 F 
ENDBRANCH  16  18
ENDBRANCH   3  11
BRANCH   1  22
HETATM   22  N1  UNL     1      30.160   2.313  54.969  1.00  0.00    -0.230 N 
HETATM   23  H1  UNL     1      30.919   1.955  55.572  1.00  0.00     0.174 HD
HETATM   24  H2  UNL     1      30.227   3.355  54.887  1.00  0.00     0.174 HD
ENDBRANCH   1  22
TORSDOF 3
ENDMDL
MODEL 5
REMARK VINA RESULT:      -7.9      2.378      4.012
REMARK  3 active torsions:
REMARK  status: ('A' for Active; 'I' for Inactive)
REMARK    1  A    between atoms: N1_1  and  C1_2 
REMARK    2  A    between atoms: N3_4  and  C2_5 
REMARK    3  A    between atoms: C6_10  and  C7_11 
ROOT
HETATM    1  C1  UNL     1      29.002   1.608  53.911  1.00  0.00     0.739 A 
HETATM    2  N2  UNL     1      28.155   2.140  53.099  1.00  0.00     0.026 NA
HETATM    3  N3  UNL     1      27.259   1.354  52.332  1.00  0.00    -0.215 N 
HETATM    4  C9  UNL     1      27.398  -0.041  52.554  1.00  0.00     0.103 A 
HETATM    5  C10 UNL     1      26.687  -1.013  52.013  1.00  0.00     0.028 A 
HETATM    6  C11 UNL     1      27.136  -2.344  52.495  1.00  0.00     0.151 A 
HETATM    7  N4  UNL     1      28.203  -2.042  53.424  1.00  0.00    -0.369 N 
HETATM    8  C12 UNL     1      28.350  -0.633  53.464  1.00  0.00     0.172 A 
HETATM    9  N5  UNL     1      29.111   0.189  54.105  1.00  0.00    -0.042 NA
HETATM   10  H9  UNL     1      28.751  -2.728  53.955  1.00  0.00     0.161 HD
ENDROOT
BRANCH   3  11
HETATM   11  C2  UNL     1      26.358   2.032  51.476  1.00  0.00     0.060 A 
HETATM   12  C3  UNL     1      26.567   2.870  50.408  1.00  0.00     0.034 A 
HETATM   13  C4  UNL     1      25.564   3.434  49.654  1.00  0.00     0.045 A 
HETATM   14  C5  UNL     1      24.247   3.165  49.961  1.00  0.00     0.131 A 
HETATM   15  F1  UNL     1      23.291   3.742  49.193  1.00  0.00    -0.205 F 
HETATM   16  C6  UNL     1      23.948   2.334  51.020  1.00  0.00     0.088 A 
HETATM   17  C8  UNL     1      25.001   1.802  51.733  1.00  0.00     0.051 A 
BRANCH  16  18
HETATM   18  C7  UNL     1      22.533   2.037  51.363  1.00  0.00     0.420 C 
HETATM   19  F2  UNL     1      21.807   3.210  51.527  1.00  0.00    -0.166 F 
HETATM   20  F3  UNL     1      22.496   1.293  52.535  1.00  0.00    -0.166 F 
HETATM   21  F4  UNL     1      21.953   1.337  50.320  1.00  0.00    -0.166 F 
ENDBRANCH  16  18
ENDBRANCH   3  11
BRANCH   1  22
HETATM   22  N1  UNL     1      29.916   2.368  54.696  1.00  0.00    -0.230 N 
HETATM   23  H1  UNL     1      29.999   3.392  54.812  1.00  0.00     0.174 HD
HETATM   24  H2  UNL     1      30.644   1.881  55.272  1.00  0.00     0.174 HD
ENDBRANCH   1  22
TORSDOF 3
ENDMDL
MODEL 6
REMARK VINA RESULT:      -7.9      1.813      3.376
REMARK  3 active torsions:
REMARK  status: ('A' for Active; 'I' for Inactive)
REMARK    1  A    between atoms: N1_1  and  C1_2 
REMARK    2  A    between atoms: N3_4  and  C2_5 
REMARK    3  A    between atoms: C6_10  and  C7_11 
ROOT
HETATM    1  C1  UNL     1      26.635   2.669  51.613  1.00  0.00     0.739 A 
HETATM    2  N2  UNL     1      25.589   2.021  51.990  1.00  0.00     0.026 NA
HETATM    3  N3  UNL     1      25.641   1.050  53.021  1.00  0.00    -0.215 N 
HETATM    4  C9  UNL     1      26.938   0.879  53.572  1.00  0.00     0.103 A 
HETATM    5  C10 UNL     1      27.290   0.078  54.561  1.00  0.00     0.028 A 
HETATM    6  C11 UNL     1      28.743   0.181  54.849  1.00  0.00     0.151 A 
HETATM    7  N4  UNL     1      29.219   1.177  53.914  1.00  0.00    -0.369 N 
HETATM    8  C12 UNL     1      28.109   1.608  53.145  1.00  0.00     0.172 A 
HETATM    9  N5  UNL     1      27.932   2.465  52.197  1.00  0.00    -0.042 NA
HETATM   10  H9  UNL     1      30.187   1.507  53.828  1.00  0.00     0.161 HD
ENDROOT
BRANCH   3  11
HETATM   11  C2  UNL     1      24.434   0.398  53.373  1.00  0.00     0.060 A 
HETATM   12  C3  UNL     1      24.164  -0.605  54.271  1.00  0.00     0.034 A 
HETATM   13  C4  UNL     1      22.910  -1.115  54.513  1.00  0.00     0.045 A 
HETATM   14  C5  UNL     1      21.825  -0.613  53.828  1.00  0.00     0.131 A 
HETATM   15  F1  UNL     1      20.608  -1.145  54.097  1.00  0.00    -0.205 F 
HETATM   16  C6  UNL     1      22.007   0.395  52.905  1.00  0.00     0.088 A 
HETATM   17  C8  UNL     1      23.290   0.861  52.711  1.00  0.00     0.051 A 
BRANCH  16  18
HETATM   18  C7  UNL     1      20.846   0.945  52.158  1.00  0.00     0.420 C 
HETATM   19  F2  UNL     1      21.263   1.866  51.205  1.00  0.00    -0.166 F 
HETATM   20  F3  UNL     1      19.978   1.557  53.054  1.00  0.00    -0.166 F 
HETATM   21  F4  UNL     1      20.212  -0.085  51.487  1.00  0.00    -0.166 F 
ENDBRANCH  16  18
ENDBRANCH   3  11
BRANCH   1  22
HETATM   22  N1  UNL     1      26.617   3.651  50.581  1.00  0.00    -0.230 N 
HETATM   23  H1  UNL     1      25.876   4.321  50.316  1.00  0.00     0.174 HD
HETATM   24  H2  UNL     1      27.449   3.768  49.954  1.00  0.00     0.174 HD
ENDBRANCH   1  22
TORSDOF 3
ENDMDL
MODEL 7
REMARK VINA RESULT:      -7.8      2.411      3.356
REMARK  3 active torsions:
REMARK  status: ('A' for Active; 'I' for Inactive)
REMARK    1  A    between atoms: N1_1  and  C1_2 
REMARK    2  A    between atoms: N3_4  and  C2_5 
REMARK    3  A    between atoms: C6_10  and  C7_11 
ROOT
HETATM    1  C1  UNL     1      26.799   1.307  52.300  1.00  0.00     0.739 A 
HETATM    2  N2  UNL     1      25.561   0.953  52.316  1.00  0.00     0.026 NA
HETATM    3  N3  UNL     1      24.568   1.671  51.604  1.00  0.00    -0.215 N 
HETATM    4  C9  UNL     1      25.078   2.790  50.895  1.00  0.00     0.103 A 
HETATM    5  C10 UNL     1      24.407   3.623  50.121  1.00  0.00     0.028 A 
HETATM    6  C11 UNL     1      25.295   4.670  49.556  1.00  0.00     0.151 A 
HETATM    7  N4  UNL     1      26.604   4.340  50.073  1.00  0.00    -0.369 N 
HETATM    8  C12 UNL     1      26.467   3.184  50.881  1.00  0.00     0.172 A 
HETATM    9  N5  UNL     1      27.274   2.449  51.569  1.00  0.00    -0.042 NA
HETATM   10  H9  UNL     1      27.473   4.855  49.886  1.00  0.00     0.161 HD
ENDROOT
BRANCH   3  11
HETATM   11  C2  UNL     1      23.236   1.197  51.675  1.00  0.00     0.060 A 
HETATM   12  C3  UNL     1      22.235   1.138  50.736  1.00  0.00     0.034 A 
HETATM   13  C4  UNL     1      20.984   0.615  50.965  1.00  0.00     0.045 A 
HETATM   14  C5  UNL     1      20.675   0.105  52.207  1.00  0.00     0.131 A 
HETATM   15  F1  UNL     1      19.430  -0.400  52.389  1.00  0.00    -0.205 F 
HETATM   16  C6  UNL     1      21.622   0.126  53.210  1.00  0.00     0.088 A 
HETATM   17  C8  UNL     1      22.856   0.665  52.913  1.00  0.00     0.051 A 
BRANCH  16  18
HETATM   18  C7  UNL     1      21.301  -0.418  54.554  1.00  0.00     0.420 C 
HETATM   19  F2  UNL     1      20.619  -1.624  54.450  1.00  0.00    -0.166 F 
HETATM   20  F3  UNL     1      20.524   0.503  55.245  1.00  0.00    -0.166 F 
HETATM   21  F4  UNL     1      22.480  -0.670  55.233  1.00  0.00    -0.166 F 
ENDBRANCH  16  18
ENDBRANCH   3  11
BRANCH   1  22
HETATM   22  N1  UNL     1      27.822   0.608  53.004  1.00  0.00    -0.230 N 
HETATM   23  H1  UNL     1      28.384  -0.210  52.716  1.00  0.00     0.174 HD
HETATM   24  H2  UNL     1      28.100   0.915  53.966  1.00  0.00     0.174 HD
ENDBRANCH   1  22
TORSDOF 3
ENDMDL
MODEL 8
REMARK VINA RESULT:      -7.8      4.802      6.530
REMARK  3 active torsions:
REMARK  status: ('A' for Active; 'I' for Inactive)
REMARK    1  A    between atoms: N1_1  and  C1_2 
REMARK    2  A    between atoms: N3_4  and  C2_5 
REMARK    3  A    between atoms: C6_10  and  C7_11 
ROOT
HETATM    1  C1  UNL     1      23.626   4.614  51.983  1.00  0.00     0.739 A 
HETATM    2  N2  UNL     1      24.228   3.520  52.298  1.00  0.00     0.026 NA
HETATM    3  N3  UNL     1      25.374   3.067  51.598  1.00  0.00    -0.215 N 
HETATM    4  C9  UNL     1      25.769   3.931  50.543  1.00  0.00     0.103 A 
HETATM    5  C10 UNL     1      26.810   3.793  49.742  1.00  0.00     0.028 A 
HETATM    6  C11 UNL     1      26.886   4.905  48.760  1.00  0.00     0.151 A 
HETATM    7  N4  UNL     1      25.762   5.750  49.095  1.00  0.00    -0.369 N 
HETATM    8  C12 UNL     1      25.091   5.156  50.192  1.00  0.00     0.172 A 
HETATM    9  N5  UNL     1      24.059   5.459  50.906  1.00  0.00    -0.042 NA
HETATM   10  H9  UNL     1      25.502   6.623  48.620  1.00  0.00     0.161 HD
ENDROOT
BRANCH   3  11
HETATM   11  C2  UNL     1      25.971   1.858  52.027  1.00  0.00     0.060 A 
HETATM   12  C3  UNL     1      25.630   0.544  51.815  1.00  0.00     0.034 A 
HETATM   13  C4  UNL     1      26.345  -0.531  52.290  1.00  0.00     0.045 A 
HETATM   14  C5  UNL     1      27.486  -0.317  53.033  1.00  0.00     0.131 A 
HETATM   15  F1  UNL     1      28.160  -1.404  53.481  1.00  0.00    -0.205 F 
HETATM   16  C6  UNL     1      27.900   0.973  53.294  1.00  0.00     0.088 A 
HETATM   17  C8  UNL     1      27.137   2.004  52.788  1.00  0.00     0.051 A 
BRANCH  16  18
HETATM   18  C7  UNL     1      29.127   1.218  54.094  1.00  0.00     0.420 C 
HETATM   19  F2  UNL     1      29.382   2.579  54.206  1.00  0.00    -0.166 F 
HETATM   20  F3  UNL     1      30.203   0.587  53.482  1.00  0.00    -0.166 F 
HETATM   21  F4  UNL     1      28.937   0.729  55.375  1.00  0.00    -0.166 F 
ENDBRANCH  16  18
ENDBRANCH   3  11
BRANCH   1  22
HETATM   22  N1  UNL     1      22.473   5.097  52.666  1.00  0.00    -0.230 N 
HETATM   23  H1  UNL     1      22.208   5.012  53.661  1.00  0.00     0.174 HD
HETATM   24  H2  UNL     1      21.738   5.628  52.142  1.00  0.00     0.174 HD
ENDBRANCH   1  22
TORSDOF 3
ENDMDL
MODEL 9
REMARK VINA RESULT:      -7.7      4.183      6.578
REMARK  3 active torsions:
REMARK  status: ('A' for Active; 'I' for Inactive)
REMARK    1  A    between atoms: N1_1  and  C1_2 
REMARK    2  A    between atoms: N3_4  and  C2_5 
REMARK    3  A    between atoms: C6_10  and  C7_11 
ROOT
HETATM    1  C1  UNL     1      23.235   2.312  51.804  1.00  0.00     0.739 A 
HETATM    2  N2  UNL     1      24.325   1.644  51.950  1.00  0.00     0.026 NA
HETATM    3  N3  UNL     1      24.397   0.502  52.786  1.00  0.00    -0.215 N 
HETATM    4  C9  UNL     1      23.168   0.189  53.423  1.00  0.00     0.103 A 
HETATM    5  C10 UNL     1      22.917  -0.828  54.226  1.00  0.00     0.028 A 
HETATM    6  C11 UNL     1      21.508  -0.813  54.694  1.00  0.00     0.151 A 
HETATM    7  N4  UNL     1      20.931   0.341  54.041  1.00  0.00    -0.369 N 
HETATM    8  C12 UNL     1      21.947   0.942  53.257  1.00  0.00     0.172 A 
HETATM    9  N5  UNL     1      22.010   1.962  52.469  1.00  0.00    -0.042 NA
HETATM   10  H9  UNL     1      19.960   0.662  54.133  1.00  0.00     0.161 HD
ENDROOT
BRANCH   3  11
HETATM   11  C2  UNL     1      25.639  -0.172  52.873  1.00  0.00     0.060 A 
HETATM   12  C3  UNL     1      25.997  -1.470  52.599  1.00  0.00     0.034 A 
HETATM   13  C4  UNL     1      27.275  -1.965  52.714  1.00  0.00     0.045 A 
HETATM   14  C5  UNL     1      28.293  -1.135  53.132  1.00  0.00     0.131 A 
HETATM   15  F1  UNL     1      29.536  -1.665  53.232  1.00  0.00    -0.205 F 
HETATM   16  C6  UNL     1      28.020   0.183  53.430  1.00  0.00     0.088 A 
HETATM   17  C8  UNL     1      26.718   0.615  53.292  1.00  0.00     0.051 A 
BRANCH  16  18
HETATM   18  C7  UNL     1      29.108   1.089  53.882  1.00  0.00     0.420 C 
HETATM   19  F2  UNL     1      29.224   1.070  55.267  1.00  0.00    -0.166 F 
HETATM   20  F3  UNL     1      28.833   2.381  53.451  1.00  0.00    -0.166 F 
HETATM   21  F4  UNL     1      30.311   0.645  53.363  1.00  0.00    -0.166 F 
ENDBRANCH  16  18
ENDBRANCH   3  11
BRANCH   1  22
HETATM   22  N1  UNL     1      23.128   3.464  50.972  1.00  0.00    -0.230 N 
HETATM   23  H1  UNL     1      22.297   3.884  50.525  1.00  0.00     0.174 HD
HETATM   24  H2  UNL     1      23.984   4.021  50.737  1.00  0.00     0.174 HD
ENDBRANCH   1  22
TORSDOF 3
ENDMDL
