MODEL 1
REMARK VINA RESULT:      -7.6      0.000      0.000
REMARK  8 active torsions:
REMARK  status: ('A' for Active; 'I' for Inactive)
REMARK    1  A    between atoms: C2_2  and  C4_5 
REMARK    2  A    between atoms: C5_7  and  C6_8 
REMARK    3  A    between atoms: C7_9  and  N2_10 
REMARK    4  A    between atoms: N2_10  and  C8_11 
REMARK    5  A    between atoms: C12_17  and  O1_18 
REMARK    6  A    between atoms: O1_18  and  C13_19 
REMARK    7  A    between atoms: C13_19  and  C14_20 
REMARK    8  A    between atoms: C14_20  and  O2_21 
ROOT
HETATM    1  C1  UNL     1      26.922   8.904  47.140  1.00  0.00     0.038 C 
HETATM    2  C2  UNL     1      27.541   8.220  48.110  1.00  0.00     0.073 C 
HETATM    3  C3  UNL     1      27.351   8.834  49.398  1.00  0.00     0.101 C 
HETATM    4  N1  UNL     1      27.179   9.342  50.444  1.00  0.00    -0.191 NA
ENDROOT
BRANCH   2   5
HETATM    5  C4  UNL     1      28.295   7.024  47.867  1.00  0.00     0.136 C 
HETATM    6  F1  UNL     1      29.438   7.190  47.122  1.00  0.00    -0.205 F 
HETATM    7  C5  UNL     1      28.117   5.769  48.214  1.00  0.00     0.045 C 
BRANCH   7   8
HETATM    8  C6  UNL     1      27.111   5.070  48.972  1.00  0.00     0.020 C 
HETATM    9  C7  UNL     1      26.820   3.816  49.370  1.00  0.00     0.090 C 
BRANCH   9  10
HETATM   10  N2  UNL     1      25.634   3.543  50.170  1.00  0.00    -0.350 N 
HETATM   11  H6  UNL     1      25.302   4.226  49.454  1.00  0.00     0.166 HD
BRANCH  10  12
HETATM   12  C8  UNL     1      25.926   2.612  51.209  1.00  0.00     0.142 A 
HETATM   13  N3  UNL     1      27.198   2.589  51.642  1.00  0.00    -0.224 NA
HETATM   14  C9  UNL     1      27.580   1.728  52.619  1.00  0.00     0.236 A 
HETATM   15  N4  UNL     1      26.637   0.945  53.091  1.00  0.00    -0.241 NA
HETATM   16  C10 UNL     1      25.360   0.941  52.685  1.00  0.00     0.075 A 
HETATM   17  C11 UNL     1      24.552   0.043  53.305  1.00  0.00     0.072 A 
HETATM   18  C17 UNL     1      24.952   1.802  51.700  1.00  0.00     0.050 A 
HETATM   19  C12 UNL     1      23.242   0.022  52.893  1.00  0.00     0.105 A 
HETATM   20  C15 UNL     1      22.802   0.883  51.898  1.00  0.00     0.111 A 
HETATM   21  C16 UNL     1      23.647   1.811  51.264  1.00  0.00     0.018 A 
HETATM   22  O4  UNL     1      21.427   0.676  51.647  1.00  0.00    -0.346 OA
HETATM   23  C18 UNL     1      23.430   2.822  50.220  1.00  0.00     0.210 C 
HETATM   24  O3  UNL     1      22.002   2.754  49.990  1.00  0.00    -0.384 OA
HETATM   25  C19 UNL     1      21.639   1.563  49.409  1.00  0.00     0.194 C 
HETATM   26  C20 UNL     1      20.818   0.696  50.346  1.00  0.00     0.202 C 
BRANCH  19  27
HETATM   27  O1  UNL     1      22.373  -0.883  53.503  1.00  0.00    -0.346 OA
BRANCH  27  28
HETATM   28  C13 UNL     1      21.985  -0.699  54.851  1.00  0.00     0.201 C 
BRANCH  28  29
HETATM   29  C14 UNL     1      20.661   0.056  54.938  1.00  0.00     0.190 C 
BRANCH  29  30
HETATM   30  O2  UNL     1      19.836  -0.412  53.905  1.00  0.00    -0.399 OA
HETATM   31  H13 UNL     1      18.912  -0.608  54.229  1.00  0.00     0.209 HD
ENDBRANCH  29  30
ENDBRANCH  28  29
ENDBRANCH  27  28
ENDBRANCH  19  27
ENDBRANCH  10  12
ENDBRANCH   9  10
ENDBRANCH   7   8
ENDBRANCH   2   5
TORSDOF 8
ENDMDL
MODEL 2
REMARK VINA RESULT:      -7.5      1.798      3.187
REMARK  8 active torsions:
REMARK  status: ('A' for Active; 'I' for Inactive)
REMARK    1  A    between atoms: C2_2  and  C4_5 
REMARK    2  A    between atoms: C5_7  and  C6_8 
REMARK    3  A    between atoms: C7_9  and  N2_10 
REMARK    4  A    between atoms: N2_10  and  C8_11 
REMARK    5  A    between atoms: C12_17  and  O1_18 
REMARK    6  A    between atoms: O1_18  and  C13_19 
REMARK    7  A    between atoms: C13_19  and  C14_20 
REMARK    8  A    between atoms: C14_20  and  O2_21 
ROOT
HETATM    1  C1  UNL     1      25.837   7.732  47.885  1.00  0.00     0.038 C 
HETATM    2  C2  UNL     1      27.071   7.741  48.405  1.00  0.00     0.073 C 
HETATM    3  C3  UNL     1      27.252   8.832  49.326  1.00  0.00     0.101 C 
HETATM    4  N1  UNL     1      27.381   9.721  50.083  1.00  0.00    -0.191 NA
ENDROOT
BRANCH   2   5
HETATM    5  C4  UNL     1      28.070   6.769  48.066  1.00  0.00     0.136 C 
HETATM    6  F1  UNL     1      29.108   7.237  47.294  1.00  0.00    -0.205 F 
HETATM    7  C5  UNL     1      28.206   5.492  48.344  1.00  0.00     0.045 C 
BRANCH   7   8
HETATM    8  C6  UNL     1      27.427   4.539  49.092  1.00  0.00     0.020 C 
HETATM    9  C7  UNL     1      26.184   4.020  49.103  1.00  0.00     0.090 C 
BRANCH   9  10
HETATM   10  N2  UNL     1      25.799   3.024  50.094  1.00  0.00    -0.350 N 
HETATM   11  H6  UNL     1      26.810   2.830  49.922  1.00  0.00     0.166 HD
BRANCH  10  12
HETATM   12  C8  UNL     1      24.423   3.157  50.440  1.00  0.00     0.142 A 
HETATM   13  N3  UNL     1      23.733   4.093  49.767  1.00  0.00    -0.224 NA
HETATM   14  C9  UNL     1      22.418   4.308  50.033  1.00  0.00     0.236 A 
HETATM   15  N4  UNL     1      21.896   3.551  50.971  1.00  0.00    -0.241 NA
HETATM   16  C10 UNL     1      22.553   2.609  51.660  1.00  0.00     0.075 A 
HETATM   17  C11 UNL     1      21.818   1.947  52.590  1.00  0.00     0.072 A 
HETATM   18  C17 UNL     1      23.879   2.375  51.408  1.00  0.00     0.050 A 
HETATM   19  C12 UNL     1      22.480   0.983  53.312  1.00  0.00     0.105 A 
HETATM   20  C15 UNL     1      23.823   0.725  53.077  1.00  0.00     0.111 A 
HETATM   21  C16 UNL     1      24.574   1.416  52.109  1.00  0.00     0.018 A 
HETATM   22  O4  UNL     1      24.281  -0.299  53.935  1.00  0.00    -0.346 OA
HETATM   23  C18 UNL     1      25.971   1.324  51.663  1.00  0.00     0.210 C 
HETATM   24  O3  UNL     1      26.483   0.202  52.421  1.00  0.00    -0.384 OA
HETATM   25  C19 UNL     1      26.559   0.489  53.763  1.00  0.00     0.194 C 
HETATM   26  C20 UNL     1      25.565  -0.318  54.578  1.00  0.00     0.202 C 
BRANCH  19  27
HETATM   27  O1  UNL     1      21.766   0.275  54.278  1.00  0.00    -0.346 OA
BRANCH  27  28
HETATM   28  C13 UNL     1      20.827  -0.711  53.889  1.00  0.00     0.201 C 
BRANCH  28  29
HETATM   29  C14 UNL     1      21.310  -2.105  54.278  1.00  0.00     0.190 C 
BRANCH  29  30
HETATM   30  O2  UNL     1      22.198  -1.965  55.354  1.00  0.00    -0.399 OA
HETATM   31  H13 UNL     1      21.949  -2.554  56.120  1.00  0.00     0.209 HD
ENDBRANCH  29  30
ENDBRANCH  28  29
ENDBRANCH  27  28
ENDBRANCH  19  27
ENDBRANCH  10  12
ENDBRANCH   9  10
ENDBRANCH   7   8
ENDBRANCH   2   5
TORSDOF 8
ENDMDL
MODEL 3
REMARK VINA RESULT:      -7.4      2.207      3.709
REMARK  8 active torsions:
REMARK  status: ('A' for Active; 'I' for Inactive)
REMARK    1  A    between atoms: C2_2  and  C4_5 
REMARK    2  A    between atoms: C5_7  and  C6_8 
REMARK    3  A    between atoms: C7_9  and  N2_10 
REMARK    4  A    between atoms: N2_10  and  C8_11 
REMARK    5  A    between atoms: C12_17  and  O1_18 
REMARK    6  A    between atoms: O1_18  and  C13_19 
REMARK    7  A    between atoms: C13_19  and  C14_20 
REMARK    8  A    between atoms: C14_20  and  O2_21 
ROOT
HETATM    1  C1  UNL     1      31.182   6.551  46.711  1.00  0.00     0.038 C 
HETATM    2  C2  UNL     1      30.367   6.588  47.774  1.00  0.00     0.073 C 
HETATM    3  C3  UNL     1      30.970   5.977  48.929  1.00  0.00     0.101 C 
HETATM    4  N1  UNL     1      31.480   5.483  49.865  1.00  0.00    -0.191 NA
ENDROOT
BRANCH   2   5
HETATM    5  C4  UNL     1      29.057   7.172  47.735  1.00  0.00     0.136 C 
HETATM    6  F1  UNL     1      29.002   8.465  47.271  1.00  0.00    -0.205 F 
HETATM    7  C5  UNL     1      27.867   6.719  48.060  1.00  0.00     0.045 C 
BRANCH   7   8
HETATM    8  C6  UNL     1      27.376   5.470  48.583  1.00  0.00     0.020 C 
HETATM    9  C7  UNL     1      26.388   5.012  49.376  1.00  0.00     0.090 C 
BRANCH   9  10
HETATM   10  N2  UNL     1      26.253   3.589  49.655  1.00  0.00    -0.350 N 
HETATM   11  H6  UNL     1      27.280   3.722  49.519  1.00  0.00     0.166 HD
BRANCH  10  12
HETATM   12  C8  UNL     1      24.888   3.241  49.870  1.00  0.00     0.142 A 
HETATM   13  N3  UNL     1      23.998   3.795  49.029  1.00  0.00    -0.224 NA
HETATM   14  C9  UNL     1      22.671   3.537  49.159  1.00  0.00     0.236 A 
HETATM   15  N4  UNL     1      22.341   2.728  50.140  1.00  0.00    -0.241 NA
HETATM   16  C10 UNL     1      23.200   2.157  50.994  1.00  0.00     0.075 A 
HETATM   17  C11 UNL     1      22.640   1.358  51.938  1.00  0.00     0.072 A 
HETATM   18  C17 UNL     1      24.543   2.403  50.882  1.00  0.00     0.050 A 
HETATM   19  C12 UNL     1      23.508   0.772  52.827  1.00  0.00     0.105 A 
HETATM   20  C15 UNL     1      24.873   1.003  52.737  1.00  0.00     0.111 A 
HETATM   21  C16 UNL     1      25.442   1.831  51.753  1.00  0.00     0.018 A 
HETATM   22  O4  UNL     1      25.555   0.298  53.752  1.00  0.00    -0.346 OA
HETATM   23  C18 UNL     1      26.824   2.217  51.437  1.00  0.00     0.210 C 
HETATM   24  O3  UNL     1      27.605   1.432  52.370  1.00  0.00    -0.384 OA
HETATM   25  C19 UNL     1      27.410   1.846  53.667  1.00  0.00     0.194 C 
HETATM   26  C20 UNL     1      26.676   0.807  54.494  1.00  0.00     0.202 C 
BRANCH  19  27
HETATM   27  O1  UNL     1      22.979  -0.059  53.815  1.00  0.00    -0.346 OA
BRANCH  27  28
HETATM   28  C13 UNL     1      22.303  -1.250  53.457  1.00  0.00     0.201 C 
BRANCH  28  29
HETATM   29  C14 UNL     1      20.841  -1.196  53.890  1.00  0.00     0.190 C 
BRANCH  29  30
HETATM   30  O2  UNL     1      20.745  -0.292  54.957  1.00  0.00    -0.399 OA
HETATM   31  H13 UNL     1      20.173   0.493  54.727  1.00  0.00     0.209 HD
ENDBRANCH  29  30
ENDBRANCH  28  29
ENDBRANCH  27  28
ENDBRANCH  19  27
ENDBRANCH  10  12
ENDBRANCH   9  10
ENDBRANCH   7   8
ENDBRANCH   2   5
TORSDOF 8
ENDMDL
MODEL 4
REMARK VINA RESULT:      -7.1      5.237      8.452
REMARK  8 active torsions:
REMARK  status: ('A' for Active; 'I' for Inactive)
REMARK    1  A    between atoms: C2_2  and  C4_5 
REMARK    2  A    between atoms: C5_7  and  C6_8 
REMARK    3  A    between atoms: C7_9  and  N2_10 
REMARK    4  A    between atoms: N2_10  and  C8_11 
REMARK    5  A    between atoms: C12_17  and  O1_18 
REMARK    6  A    between atoms: O1_18  and  C13_19 
REMARK    7  A    between atoms: C13_19  and  C14_20 
REMARK    8  A    between atoms: C14_20  and  O2_21 
ROOT
HETATM    1  C1  UNL     1      14.560   2.168  49.928  1.00  0.00     0.038 C 
HETATM    2  C2  UNL     1      15.483   1.675  50.763  1.00  0.00     0.073 C 
HETATM    3  C3  UNL     1      16.176   2.721  51.469  1.00  0.00     0.101 C 
HETATM    4  N1  UNL     1      16.725   3.585  52.044  1.00  0.00    -0.191 NA
ENDROOT
BRANCH   2   5
HETATM    5  C4  UNL     1      15.731   0.270  50.913  1.00  0.00     0.136 C 
HETATM    6  F1  UNL     1      14.621  -0.536  50.829  1.00  0.00    -0.205 F 
HETATM    7  C5  UNL     1      16.825  -0.427  51.121  1.00  0.00     0.045 C 
BRANCH   7   8
HETATM    8  C6  UNL     1      18.216  -0.089  51.283  1.00  0.00     0.020 C 
HETATM    9  C7  UNL     1      19.157  -0.070  52.248  1.00  0.00     0.090 C 
BRANCH   9  10
HETATM   10  N2  UNL     1      20.515   0.371  51.958  1.00  0.00    -0.350 N 
HETATM   11  H6  UNL     1      19.939   0.826  51.216  1.00  0.00     0.166 HD
BRANCH  10  12
HETATM   12  C8  UNL     1      21.436  -0.174  52.898  1.00  0.00     0.142 A 
HETATM   13  N3  UNL     1      20.922  -1.016  53.811  1.00  0.00    -0.224 NA
HETATM   14  C9  UNL     1      21.716  -1.577  54.758  1.00  0.00     0.236 A 
HETATM   15  N4  UNL     1      22.985  -1.240  54.712  1.00  0.00    -0.241 NA
HETATM   16  C10 UNL     1      23.532  -0.407  53.817  1.00  0.00     0.075 A 
HETATM   17  C11 UNL     1      24.865  -0.194  53.957  1.00  0.00     0.072 A 
HETATM   18  C17 UNL     1      22.750   0.171  52.852  1.00  0.00     0.050 A 
HETATM   19  C12 UNL     1      25.439   0.666  53.051  1.00  0.00     0.105 A 
HETATM   20  C15 UNL     1      24.671   1.264  52.063  1.00  0.00     0.111 A 
HETATM   21  C16 UNL     1      23.290   1.035  51.927  1.00  0.00     0.018 A 
HETATM   22  O4  UNL     1      25.476   2.101  51.259  1.00  0.00    -0.346 OA
HETATM   23  C18 UNL     1      22.277   1.518  50.979  1.00  0.00     0.210 C 
HETATM   24  O3  UNL     1      23.054   2.298  50.038  1.00  0.00    -0.384 OA
HETATM   25  C19 UNL     1      23.563   3.434  50.621  1.00  0.00     0.194 C 
HETATM   26  C20 UNL     1      25.075   3.383  50.749  1.00  0.00     0.202 C 
BRANCH  19  27
HETATM   27  O1  UNL     1      26.808   0.915  53.154  1.00  0.00    -0.346 OA
BRANCH  27  28
HETATM   28  C13 UNL     1      27.715  -0.157  53.333  1.00  0.00     0.201 C 
BRANCH  28  29
HETATM   29  C14 UNL     1      28.565   0.054  54.583  1.00  0.00     0.190 C 
BRANCH  29  30
HETATM   30  O2  UNL     1      28.715   1.436  54.768  1.00  0.00    -0.399 OA
HETATM   31  H13 UNL     1      29.388   1.823  54.140  1.00  0.00     0.209 HD
ENDBRANCH  29  30
ENDBRANCH  28  29
ENDBRANCH  27  28
ENDBRANCH  19  27
ENDBRANCH  10  12
ENDBRANCH   9  10
ENDBRANCH   7   8
ENDBRANCH   2   5
TORSDOF 8
ENDMDL
MODEL 5
REMARK VINA RESULT:      -7.0      5.332      8.853
REMARK  8 active torsions:
REMARK  status: ('A' for Active; 'I' for Inactive)
REMARK    1  A    between atoms: C2_2  and  C4_5 
REMARK    2  A    between atoms: C5_7  and  C6_8 
REMARK    3  A    between atoms: C7_9  and  N2_10 
REMARK    4  A    between atoms: N2_10  and  C8_11 
REMARK    5  A    between atoms: C12_17  and  O1_18 
REMARK    6  A    between atoms: O1_18  and  C13_19 
REMARK    7  A    between atoms: C13_19  and  C14_20 
REMARK    8  A    between atoms: C14_20  and  O2_21 
ROOT
HETATM    1  C1  UNL     1      15.976   1.597  50.900  1.00  0.00     0.038 C 
HETATM    2  C2  UNL     1      15.526   0.952  51.985  1.00  0.00     0.073 C 
HETATM    3  C3  UNL     1      14.557   1.736  52.705  1.00  0.00     0.101 C 
HETATM    4  N1  UNL     1      13.761   2.384  53.277  1.00  0.00    -0.191 NA
ENDROOT
BRANCH   2   5
HETATM    5  C4  UNL     1      15.973  -0.358  52.358  1.00  0.00     0.136 C 
HETATM    6  F1  UNL     1      14.977  -1.266  52.628  1.00  0.00    -0.205 F 
HETATM    7  C5  UNL     1      17.167  -0.888  52.501  1.00  0.00     0.045 C 
BRANCH   7   8
HETATM    8  C6  UNL     1      18.511  -0.392  52.348  1.00  0.00     0.020 C 
HETATM    9  C7  UNL     1      19.612  -0.177  53.094  1.00  0.00     0.090 C 
BRANCH   9  10
HETATM   10  N2  UNL     1      20.823   0.371  52.498  1.00  0.00    -0.350 N 
HETATM   11  H6  UNL     1      20.055   0.746  51.898  1.00  0.00     0.166 HD
BRANCH  10  12
HETATM   12  C8  UNL     1      21.978  -0.056  53.214  1.00  0.00     0.142 A 
HETATM   13  N3  UNL     1      21.759  -0.879  54.254  1.00  0.00    -0.224 NA
HETATM   14  C9  UNL     1      22.794  -1.331  55.008  1.00  0.00     0.236 A 
HETATM   15  N4  UNL     1      23.986  -0.911  54.651  1.00  0.00    -0.241 NA
HETATM   16  C10 UNL     1      24.241  -0.092  53.622  1.00  0.00     0.075 A 
HETATM   17  C11 UNL     1      25.549   0.220  53.435  1.00  0.00     0.072 A 
HETATM   18  C17 UNL     1      23.213   0.376  52.847  1.00  0.00     0.050 A 
HETATM   19  C12 UNL     1      25.827   1.065  52.389  1.00  0.00     0.105 A 
HETATM   20  C15 UNL     1      24.805   1.553  51.587  1.00  0.00     0.111 A 
HETATM   21  C16 UNL     1      23.453   1.222  51.789  1.00  0.00     0.018 A 
HETATM   22  O4  UNL     1      25.332   2.397  50.585  1.00  0.00    -0.346 OA
HETATM   23  C18 UNL     1      22.212   1.581  51.089  1.00  0.00     0.210 C 
HETATM   24  O3  UNL     1      22.685   2.359  49.963  1.00  0.00    -0.384 OA
HETATM   25  C19 UNL     1      23.223   3.558  50.366  1.00  0.00     0.194 C 
HETATM   26  C20 UNL     1      24.722   3.618  50.135  1.00  0.00     0.202 C 
BRANCH  19  27
HETATM   27  O1  UNL     1      27.157   1.414  52.156  1.00  0.00    -0.346 OA
BRANCH  27  28
HETATM   28  C13 UNL     1      28.140   1.167  53.144  1.00  0.00     0.201 C 
BRANCH  28  29
HETATM   29  C14 UNL     1      28.544   2.462  53.844  1.00  0.00     0.190 C 
BRANCH  29  30
HETATM   30  O2  UNL     1      29.858   2.304  54.306  1.00  0.00    -0.399 OA
HETATM   31  H13 UNL     1      30.507   2.204  53.554  1.00  0.00     0.209 HD
ENDBRANCH  29  30
ENDBRANCH  28  29
ENDBRANCH  27  28
ENDBRANCH  19  27
ENDBRANCH  10  12
ENDBRANCH   9  10
ENDBRANCH   7   8
ENDBRANCH   2   5
TORSDOF 8
ENDMDL
MODEL 6
REMARK VINA RESULT:      -6.7      2.026      2.446
REMARK  8 active torsions:
REMARK  status: ('A' for Active; 'I' for Inactive)
REMARK    1  A    between atoms: C2_2  and  C4_5 
REMARK    2  A    between atoms: C5_7  and  C6_8 
REMARK    3  A    between atoms: C7_9  and  N2_10 
REMARK    4  A    between atoms: N2_10  and  C8_11 
REMARK    5  A    between atoms: C12_17  and  O1_18 
REMARK    6  A    between atoms: O1_18  and  C13_19 
REMARK    7  A    between atoms: C13_19  and  C14_20 
REMARK    8  A    between atoms: C14_20  and  O2_21 
ROOT
HETATM    1  C1  UNL     1      28.429   6.963  47.712  1.00  0.00     0.038 C 
HETATM    2  C2  UNL     1      27.621   8.028  47.802  1.00  0.00     0.073 C 
HETATM    3  C3  UNL     1      27.191   8.479  46.504  1.00  0.00     0.101 C 
HETATM    4  N1  UNL     1      26.841   8.830  45.439  1.00  0.00    -0.191 NA
ENDROOT
BRANCH   2   5
HETATM    5  C4  UNL     1      27.247   8.624  49.052  1.00  0.00     0.136 C 
HETATM    6  F1  UNL     1      27.852   9.826  49.335  1.00  0.00    -0.205 F 
HETATM    7  C5  UNL     1      26.427   8.253  50.009  1.00  0.00     0.045 C 
BRANCH   7   8
HETATM    8  C6  UNL     1      25.569   7.114  50.211  1.00  0.00     0.020 C 
HETATM    9  C7  UNL     1      25.586   5.778  50.034  1.00  0.00     0.090 C 
BRANCH   9  10
HETATM   10  N2  UNL     1      24.435   4.962  50.396  1.00  0.00    -0.350 N 
HETATM   11  H6  UNL     1      24.013   5.853  50.051  1.00  0.00     0.166 HD
BRANCH  10  12
HETATM   12  C8  UNL     1      24.849   3.693  50.892  1.00  0.00     0.142 A 
HETATM   13  N3  UNL     1      26.138   3.371  50.690  1.00  0.00    -0.224 NA
HETATM   14  C9  UNL     1      26.628   2.177  51.114  1.00  0.00     0.236 A 
HETATM   15  N4  UNL     1      25.767   1.389  51.716  1.00  0.00    -0.241 NA
HETATM   16  C10 UNL     1      24.477   1.677  51.936  1.00  0.00     0.075 A 
HETATM   17  C11 UNL     1      23.764   0.713  52.573  1.00  0.00     0.072 A 
HETATM   18  C17 UNL     1      23.962   2.876  51.517  1.00  0.00     0.050 A 
HETATM   19  C12 UNL     1      22.437   0.991  52.798  1.00  0.00     0.105 A 
HETATM   20  C15 UNL     1      21.890   2.197  52.385  1.00  0.00     0.111 A 
HETATM   21  C16 UNL     1      22.638   3.189  51.727  1.00  0.00     0.018 A 
HETATM   22  O4  UNL     1      20.520   2.251  52.724  1.00  0.00    -0.346 OA
HETATM   23  C18 UNL     1      22.309   4.527  51.216  1.00  0.00     0.210 C 
HETATM   24  O3  UNL     1      20.936   4.708  51.635  1.00  0.00    -0.384 OA
HETATM   25  C19 UNL     1      20.086   3.857  50.969  1.00  0.00     0.194 C 
HETATM   26  C20 UNL     1      19.490   2.808  51.891  1.00  0.00     0.202 C 
BRANCH  19  27
HETATM   27  O1  UNL     1      21.664   0.031  53.451  1.00  0.00    -0.346 OA
BRANCH  27  28
HETATM   28  C13 UNL     1      22.160  -1.283  53.628  1.00  0.00     0.201 C 
BRANCH  28  29
HETATM   29  C14 UNL     1      21.870  -1.788  55.039  1.00  0.00     0.190 C 
BRANCH  29  30
HETATM   30  O2  UNL     1      23.053  -1.680  55.782  1.00  0.00    -0.399 OA
HETATM   31  H13 UNL     1      23.861  -1.675  55.195  1.00  0.00     0.209 HD
ENDBRANCH  29  30
ENDBRANCH  28  29
ENDBRANCH  27  28
ENDBRANCH  19  27
ENDBRANCH  10  12
ENDBRANCH   9  10
ENDBRANCH   7   8
ENDBRANCH   2   5
TORSDOF 8
ENDMDL
MODEL 7
REMARK VINA RESULT:      -6.7      3.763      5.903
REMARK  8 active torsions:
REMARK  status: ('A' for Active; 'I' for Inactive)
REMARK    1  A    between atoms: C2_2  and  C4_5 
REMARK    2  A    between atoms: C5_7  and  C6_8 
REMARK    3  A    between atoms: C7_9  and  N2_10 
REMARK    4  A    between atoms: N2_10  and  C8_11 
REMARK    5  A    between atoms: C12_17  and  O1_18 
REMARK    6  A    between atoms: O1_18  and  C13_19 
REMARK    7  A    between atoms: C13_19  and  C14_20 
REMARK    8  A    between atoms: C14_20  and  O2_21 
ROOT
HETATM    1  C1  UNL     1      17.684   5.655  47.080  1.00  0.00     0.038 C 
HETATM    2  C2  UNL     1      18.792   5.372  47.777  1.00  0.00     0.073 C 
HETATM    3  C3  UNL     1      18.932   3.957  48.001  1.00  0.00     0.101 C 
HETATM    4  N1  UNL     1      19.036   2.799  48.168  1.00  0.00    -0.191 NA
ENDROOT
BRANCH   2   5
HETATM    5  C4  UNL     1      19.710   6.377  48.231  1.00  0.00     0.136 C 
HETATM    6  F1  UNL     1      19.476   7.645  47.756  1.00  0.00    -0.205 F 
HETATM    7  C5  UNL     1      20.755   6.338  49.026  1.00  0.00     0.045 C 
BRANCH   7   8
HETATM    8  C6  UNL     1      21.415   5.294  49.767  1.00  0.00     0.020 C 
HETATM    9  C7  UNL     1      22.660   4.933  50.134  1.00  0.00     0.090 C 
BRANCH   9  10
HETATM   10  N2  UNL     1      22.885   3.733  50.929  1.00  0.00    -0.350 N 
HETATM   11  H6  UNL     1      21.864   3.919  51.039  1.00  0.00     0.166 HD
BRANCH  10  12
HETATM   12  C8  UNL     1      24.254   3.341  50.879  1.00  0.00     0.142 A 
HETATM   13  N3  UNL     1      25.060   4.102  50.118  1.00  0.00    -0.224 NA
HETATM   14  C9  UNL     1      26.379   3.804  49.995  1.00  0.00     0.236 A 
HETATM   15  N4  UNL     1      26.789   2.747  50.658  1.00  0.00    -0.241 NA
HETATM   16  C10 UNL     1      26.016   1.967  51.425  1.00  0.00     0.075 A 
HETATM   17  C11 UNL     1      26.647   0.920  52.016  1.00  0.00     0.072 A 
HETATM   18  C17 UNL     1      24.682   2.249  51.564  1.00  0.00     0.050 A 
HETATM   19  C12 UNL     1      25.865   0.106  52.800  1.00  0.00     0.105 A 
HETATM   20  C15 UNL     1      24.512   0.369  52.959  1.00  0.00     0.111 A 
HETATM   21  C16 UNL     1      23.869   1.457  52.343  1.00  0.00     0.018 A 
HETATM   22  O4  UNL     1      23.924  -0.599  53.802  1.00  0.00    -0.346 OA
HETATM   23  C18 UNL     1      22.487   1.955  52.364  1.00  0.00     0.210 C 
HETATM   24  O3  UNL     1      21.837   1.075  53.313  1.00  0.00    -0.384 OA
HETATM   25  C19 UNL     1      21.744  -0.209  52.832  1.00  0.00     0.194 C 
HETATM   26  C20 UNL     1      22.622  -1.175  53.607  1.00  0.00     0.202 C 
BRANCH  19  27
HETATM   27  O1  UNL     1      26.469  -0.983  53.428  1.00  0.00    -0.346 OA
BRANCH  27  28
HETATM   28  C13 UNL     1      27.031  -2.028  52.657  1.00  0.00     0.201 C 
BRANCH  28  29
HETATM   29  C14 UNL     1      28.494  -2.254  53.030  1.00  0.00     0.190 C 
BRANCH  29  30
HETATM   30  O2  UNL     1      28.637  -3.599  53.397  1.00  0.00    -0.399 OA
HETATM   31  H13 UNL     1      29.277  -3.711  54.155  1.00  0.00     0.209 HD
ENDBRANCH  29  30
ENDBRANCH  28  29
ENDBRANCH  27  28
ENDBRANCH  19  27
ENDBRANCH  10  12
ENDBRANCH   9  10
ENDBRANCH   7   8
ENDBRANCH   2   5
TORSDOF 8
ENDMDL
MODEL 8
REMARK VINA RESULT:      -6.5      4.697      6.666
REMARK  8 active torsions:
REMARK  status: ('A' for Active; 'I' for Inactive)
REMARK    1  A    between atoms: C2_2  and  C4_5 
REMARK    2  A    between atoms: C5_7  and  C6_8 
REMARK    3  A    between atoms: C7_9  and  N2_10 
REMARK    4  A    between atoms: N2_10  and  C8_11 
REMARK    5  A    between atoms: C12_17  and  O1_18 
REMARK    6  A    between atoms: O1_18  and  C13_19 
REMARK    7  A    between atoms: C13_19  and  C14_20 
REMARK    8  A    between atoms: C14_20  and  O2_21 
ROOT
HETATM    1  C1  UNL     1      26.188  -0.141  54.907  1.00  0.00     0.038 C 
HETATM    2  C2  UNL     1      27.144   0.422  54.157  1.00  0.00     0.073 C 
HETATM    3  C3  UNL     1      28.242  -0.481  53.930  1.00  0.00     0.101 C 
HETATM    4  N1  UNL     1      29.126  -1.233  53.746  1.00  0.00    -0.191 NA
ENDROOT
BRANCH   2   5
HETATM    5  C4  UNL     1      27.058   1.763  53.656  1.00  0.00     0.136 C 
HETATM    6  F1  UNL     1      28.185   2.530  53.830  1.00  0.00    -0.205 F 
HETATM    7  C5  UNL     1      26.103   2.430  53.048  1.00  0.00     0.045 C 
BRANCH   7   8
HETATM    8  C6  UNL     1      24.761   2.110  52.635  1.00  0.00     0.020 C 
HETATM    9  C7  UNL     1      23.669   1.479  53.109  1.00  0.00     0.090 C 
BRANCH   9  10
HETATM   10  N2  UNL     1      22.455   1.384  52.309  1.00  0.00    -0.350 N 
HETATM   11  H6  UNL     1      23.024   2.107  51.817  1.00  0.00     0.166 HD
BRANCH  10  12
HETATM   12  C8  UNL     1      21.560   0.421  52.858  1.00  0.00     0.142 A 
HETATM   13  N3  UNL     1      22.086  -0.432  53.754  1.00  0.00    -0.224 NA
HETATM   14  C9  UNL     1      21.318  -1.395  54.325  1.00  0.00     0.236 A 
HETATM   15  N4  UNL     1      20.062  -1.425  53.942  1.00  0.00    -0.241 NA
HETATM   16  C10 UNL     1      19.504  -0.592  53.053  1.00  0.00     0.075 A 
HETATM   17  C11 UNL     1      18.188  -0.806  52.798  1.00  0.00     0.072 A 
HETATM   18  C17 UNL     1      20.260   0.387  52.465  1.00  0.00     0.050 A 
HETATM   19  C12 UNL     1      17.604   0.035  51.882  1.00  0.00     0.105 A 
HETATM   20  C15 UNL     1      18.345   1.037  51.272  1.00  0.00     0.111 A 
HETATM   21  C16 UNL     1      19.708   1.250  51.545  1.00  0.00     0.018 A 
HETATM   22  O4  UNL     1      17.534   1.766  50.375  1.00  0.00    -0.346 OA
HETATM   23  C18 UNL     1      20.692   2.228  51.060  1.00  0.00     0.210 C 
HETATM   24  O3  UNL     1      19.900   3.097  50.215  1.00  0.00    -0.384 OA
HETATM   25  C19 UNL     1      19.463   2.446  49.087  1.00  0.00     0.194 C 
HETATM   26  C20 UNL     1      17.959   2.245  49.089  1.00  0.00     0.202 C 
BRANCH  19  27
HETATM   27  O1  UNL     1      16.252  -0.145  51.589  1.00  0.00    -0.346 OA
BRANCH  27  28
HETATM   28  C13 UNL     1      15.263   0.504  52.365  1.00  0.00     0.201 C 
BRANCH  28  29
HETATM   29  C14 UNL     1      14.107  -0.443  52.676  1.00  0.00     0.190 C 
BRANCH  29  30
HETATM   30  O2  UNL     1      13.781  -0.286  54.030  1.00  0.00    -0.399 OA
HETATM   31  H13 UNL     1      13.730  -1.164  54.504  1.00  0.00     0.209 HD
ENDBRANCH  29  30
ENDBRANCH  28  29
ENDBRANCH  27  28
ENDBRANCH  19  27
ENDBRANCH  10  12
ENDBRANCH   9  10
ENDBRANCH   7   8
ENDBRANCH   2   5
TORSDOF 8
ENDMDL
MODEL 9
REMARK VINA RESULT:      -6.5      5.621      8.506
REMARK  8 active torsions:
REMARK  status: ('A' for Active; 'I' for Inactive)
REMARK    1  A    between atoms: C2_2  and  C4_5 
REMARK    2  A    between atoms: C5_7  and  C6_8 
REMARK    3  A    between atoms: C7_9  and  N2_10 
REMARK    4  A    between atoms: N2_10  and  C8_11 
REMARK    5  A    between atoms: C12_17  and  O1_18 
REMARK    6  A    between atoms: O1_18  and  C13_19 
REMARK    7  A    between atoms: C13_19  and  C14_20 
REMARK    8  A    between atoms: C14_20  and  O2_21 
ROOT
HETATM    1  C1  UNL     1      25.082   0.923  53.224  1.00  0.00     0.038 C 
HETATM    2  C2  UNL     1      25.070  -0.331  53.693  1.00  0.00     0.073 C 
HETATM    3  C3  UNL     1      26.249  -1.058  53.301  1.00  0.00     0.101 C 
HETATM    4  N1  UNL     1      27.221  -1.634  52.981  1.00  0.00    -0.191 NA
ENDROOT
BRANCH   2   5
HETATM    5  C4  UNL     1      23.998  -0.859  54.488  1.00  0.00     0.136 C 
HETATM    6  F1  UNL     1      24.376  -1.440  55.675  1.00  0.00    -0.205 F 
HETATM    7  C5  UNL     1      22.696  -0.906  54.314  1.00  0.00     0.045 C 
BRANCH   7   8
HETATM    8  C6  UNL     1      21.805  -0.459  53.275  1.00  0.00     0.020 C 
HETATM    9  C7  UNL     1      21.228   0.681  52.844  1.00  0.00     0.090 C 
BRANCH   9  10
HETATM   10  N2  UNL     1      20.345   0.679  51.686  1.00  0.00    -0.350 N 
HETATM   11  H6  UNL     1      20.695  -0.303  51.737  1.00  0.00     0.166 HD
BRANCH  10  12
HETATM   12  C8  UNL     1      19.776   1.969  51.480  1.00  0.00     0.142 A 
HETATM   13  N3  UNL     1      20.647   2.982  51.334  1.00  0.00    -0.224 NA
HETATM   14  C9  UNL     1      20.205   4.252  51.145  1.00  0.00     0.236 A 
HETATM   15  N4  UNL     1      18.901   4.404  51.119  1.00  0.00    -0.241 NA
HETATM   16  C10 UNL     1      18.004   3.419  51.260  1.00  0.00     0.075 A 
HETATM   17  C11 UNL     1      16.703   3.801  51.206  1.00  0.00     0.072 A 
HETATM   18  C17 UNL     1      18.428   2.130  51.451  1.00  0.00     0.050 A 
HETATM   19  C12 UNL     1      15.771   2.803  51.358  1.00  0.00     0.105 A 
HETATM   20  C15 UNL     1      16.172   1.489  51.551  1.00  0.00     0.111 A 
HETATM   21  C16 UNL     1      17.523   1.103  51.604  1.00  0.00     0.018 A 
HETATM   22  O4  UNL     1      15.044   0.649  51.681  1.00  0.00    -0.346 OA
HETATM   23  C18 UNL     1      18.196  -0.192  51.776  1.00  0.00     0.210 C 
HETATM   24  O3  UNL     1      17.096  -1.132  51.797  1.00  0.00    -0.384 OA
HETATM   25  C19 UNL     1      16.323  -0.983  52.924  1.00  0.00     0.194 C 
HETATM   26  C20 UNL     1      14.939  -0.449  52.602  1.00  0.00     0.202 C 
BRANCH  19  27
HETATM   27  O1  UNL     1      14.421   3.147  51.308  1.00  0.00    -0.346 OA
BRANCH  27  28
HETATM   28  C13 UNL     1      13.946   4.270  52.028  1.00  0.00     0.201 C 
BRANCH  28  29
HETATM   29  C14 UNL     1      13.765   3.932  53.506  1.00  0.00     0.190 C 
BRANCH  29  30
HETATM   30  O2  UNL     1      14.604   4.781  54.242  1.00  0.00    -0.399 OA
HETATM   31  H13 UNL     1      14.734   4.454  55.176  1.00  0.00     0.209 HD
ENDBRANCH  29  30
ENDBRANCH  28  29
ENDBRANCH  27  28
ENDBRANCH  19  27
ENDBRANCH  10  12
ENDBRANCH   9  10
ENDBRANCH   7   8
ENDBRANCH   2   5
TORSDOF 8
ENDMDL
