MODEL 1
REMARK VINA RESULT:      -8.9      0.000      0.000
REMARK  7 active torsions:
REMARK  status: ('A' for Active; 'I' for Inactive)
REMARK    1  A    between atoms: C1_2  and  N1_3 
REMARK    2  A    between atoms: N1_3  and  C2_4 
REMARK    3  A    between atoms: C4_6  and  C5_7 
REMARK    4  A    between atoms: C13_15  and  C14_16 
REMARK    5  A    between atoms: C18_20  and  C19_21 
REMARK    6  A    between atoms: C19_21  and  C20_22 
REMARK    7  A    between atoms: C20_22  and  C21_23 
ROOT
HETATM    1  C2  UNL     1      23.324  -0.174  53.234  1.00  0.00     0.045 A 
HETATM    2  C3  UNL     1      21.971  -0.531  53.169  1.00  0.00     0.042 A 
HETATM    3  C4  UNL     1      21.071   0.184  52.370  1.00  0.00    -0.024 A 
HETATM    4  C11 UNL     1      21.581   1.247  51.656  1.00  0.00     0.013 A 
HETATM    5  C12 UNL     1      22.900   1.546  51.759  1.00  0.00     0.015 A 
HETATM    6  C13 UNL     1      23.821   0.875  52.529  1.00  0.00    -0.002 A 
ENDROOT
BRANCH   6   7
HETATM    7  C14 UNL     1      25.227   1.218  52.635  1.00  0.00    -0.038 A 
HETATM    8  C15 UNL     1      25.577   2.036  53.606  1.00  0.00     0.008 A 
HETATM    9  C16 UNL     1      27.003   2.314  53.619  1.00  0.00    -0.003 A 
HETATM   10  C17 UNL     1      27.479   1.594  52.588  1.00  0.00    -0.017 A 
HETATM   11  C18 UNL     1      26.435   0.793  51.837  1.00  0.00     0.042 A 
BRANCH  11  12
HETATM   12  C19 UNL     1      26.758  -0.656  52.143  1.00  0.00     0.020 C 
BRANCH  12  13
HETATM   13  C20 UNL     1      28.004  -0.884  52.920  1.00  0.00     0.071 C 
BRANCH  13  14
HETATM   14  C21 UNL     1      28.377  -2.321  53.176  1.00  0.00     0.117 A 
HETATM   15  O2  UNL     1      29.528  -2.555  53.688  1.00  0.00    -0.194 OA
HETATM   16  O3  UNL     1      28.658  -3.629  53.384  1.00  0.00     0.000 OA
HETATM   17  H19 UNL     1      28.033  -4.359  53.085  1.00  0.00     0.000 HD
ENDBRANCH  13  14
ENDBRANCH  12  13
ENDBRANCH  11  12
ENDBRANCH   6   7
BRANCH   1  18
HETATM   18  N1  UNL     1      23.961  -1.098  54.097  1.00  0.00    -0.334 N 
HETATM   19  H2  UNL     1      23.969  -2.036  53.642  1.00  0.00     0.168 HD
BRANCH  18  20
HETATM   20  C1  UNL     1      24.602  -1.062  55.378  1.00  0.00     0.353 C 
HETATM   21  O1  UNL     1      25.785  -0.784  55.682  1.00  0.00    -0.283 OA
ENDBRANCH  18  20
ENDBRANCH   1  18
BRANCH   3  22
HETATM   22  C5  UNL     1      19.650  -0.135  52.247  1.00  0.00    -0.026 A 
HETATM   23  C6  UNL     1      18.936  -0.847  53.201  1.00  0.00     0.012 A 
HETATM   24  C7  UNL     1      17.586  -1.112  53.012  1.00  0.00     0.001 A 
HETATM   25  C8  UNL     1      16.973  -0.662  51.869  1.00  0.00     0.000 A 
HETATM   26  C9  UNL     1      17.629   0.061  50.865  1.00  0.00     0.001 A 
HETATM   27  C10 UNL     1      18.970   0.287  51.124  1.00  0.00     0.012 A 
ENDBRANCH   3  22
TORSDOF 7
ENDMDL
MODEL 2
REMARK VINA RESULT:      -8.7      1.838      2.619
REMARK  7 active torsions:
REMARK  status: ('A' for Active; 'I' for Inactive)
REMARK    1  A    between atoms: C1_2  and  N1_3 
REMARK    2  A    between atoms: N1_3  and  C2_4 
REMARK    3  A    between atoms: C4_6  and  C5_7 
REMARK    4  A    between atoms: C13_15  and  C14_16 
REMARK    5  A    between atoms: C18_20  and  C19_21 
REMARK    6  A    between atoms: C19_21  and  C20_22 
REMARK    7  A    between atoms: C20_22  and  C21_23 
ROOT
HETATM    1  C2  UNL     1      23.045   1.375  51.646  1.00  0.00     0.045 A 
HETATM    2  C3  UNL     1      21.692   1.027  51.536  1.00  0.00     0.042 A 
HETATM    3  C4  UNL     1      21.088   0.168  52.460  1.00  0.00    -0.024 A 
HETATM    4  C11 UNL     1      21.885  -0.313  53.477  1.00  0.00     0.013 A 
HETATM    5  C12 UNL     1      23.187   0.059  53.533  1.00  0.00     0.015 A 
HETATM    6  C13 UNL     1      23.826   0.898  52.649  1.00  0.00    -0.002 A 
ENDROOT
BRANCH   6   7
HETATM    7  C14 UNL     1      25.225   1.274  52.720  1.00  0.00    -0.038 A 
HETATM    8  C15 UNL     1      25.567   2.161  53.632  1.00  0.00     0.008 A 
HETATM    9  C16 UNL     1      26.987   2.466  53.614  1.00  0.00    -0.003 A 
HETATM   10  C17 UNL     1      27.468   1.691  52.628  1.00  0.00    -0.017 A 
HETATM   11  C18 UNL     1      26.435   0.823  51.939  1.00  0.00     0.042 A 
BRANCH  11  12
HETATM   12  C19 UNL     1      26.789  -0.597  52.335  1.00  0.00     0.020 C 
BRANCH  12  13
HETATM   13  C20 UNL     1      28.079  -0.759  53.055  1.00  0.00     0.071 C 
BRANCH  13  14
HETATM   14  C21 UNL     1      28.544  -2.173  53.283  1.00  0.00     0.117 A 
HETATM   15  O2  UNL     1      27.952  -3.106  52.633  1.00  0.00    -0.194 OA
HETATM   16  O3  UNL     1      29.002  -3.423  53.527  1.00  0.00     0.000 OA
HETATM   17  H19 UNL     1      29.704  -3.603  54.225  1.00  0.00     0.000 HD
ENDBRANCH  13  14
ENDBRANCH  12  13
ENDBRANCH  11  12
ENDBRANCH   6   7
BRANCH   1  18
HETATM   18  N1  UNL     1      23.338   2.267  50.587  1.00  0.00    -0.334 N 
HETATM   19  H2  UNL     1      23.283   1.750  49.683  1.00  0.00     0.168 HD
BRANCH  18  20
HETATM   20  C1  UNL     1      23.650   3.659  50.448  1.00  0.00     0.353 C 
HETATM   21  O1  UNL     1      24.509   4.356  51.033  1.00  0.00    -0.283 OA
ENDBRANCH  18  20
ENDBRANCH   1  18
BRANCH   3  22
HETATM   22  C5  UNL     1      19.682  -0.232  52.412  1.00  0.00    -0.026 A 
HETATM   23  C6  UNL     1      18.795   0.191  51.432  1.00  0.00     0.012 A 
HETATM   24  C7  UNL     1      17.473  -0.232  51.454  1.00  0.00     0.001 A 
HETATM   25  C8  UNL     1      17.059  -1.070  52.459  1.00  0.00     0.000 A 
HETATM   26  C9  UNL     1      17.897  -1.537  53.481  1.00  0.00     0.001 A 
HETATM   27  C10 UNL     1      19.199  -1.073  53.391  1.00  0.00     0.012 A 
ENDBRANCH   3  22
TORSDOF 7
ENDMDL
MODEL 3
REMARK VINA RESULT:      -8.6      4.985      8.019
REMARK  7 active torsions:
REMARK  status: ('A' for Active; 'I' for Inactive)
REMARK    1  A    between atoms: C1_2  and  N1_3 
REMARK    2  A    between atoms: N1_3  and  C2_4 
REMARK    3  A    between atoms: C4_6  and  C5_7 
REMARK    4  A    between atoms: C13_15  and  C14_16 
REMARK    5  A    between atoms: C18_20  and  C19_21 
REMARK    6  A    between atoms: C19_21  and  C20_22 
REMARK    7  A    between atoms: C20_22  and  C21_23 
ROOT
HETATM    1  C2  UNL     1      24.541   4.463  50.791  1.00  0.00     0.045 A 
HETATM    2  C3  UNL     1      25.292   5.389  50.056  1.00  0.00     0.042 A 
HETATM    3  C4  UNL     1      26.429   4.995  49.341  1.00  0.00    -0.024 A 
HETATM    4  C11 UNL     1      26.767   3.660  49.396  1.00  0.00     0.013 A 
HETATM    5  C12 UNL     1      26.001   2.810  50.124  1.00  0.00     0.015 A 
HETATM    6  C13 UNL     1      24.878   3.149  50.842  1.00  0.00    -0.002 A 
ENDROOT
BRANCH   6   7
HETATM    7  C14 UNL     1      24.079   2.226  51.625  1.00  0.00    -0.038 A 
HETATM    8  C15 UNL     1      23.065   1.642  51.020  1.00  0.00     0.008 A 
HETATM    9  C16 UNL     1      22.333   0.742  51.895  1.00  0.00    -0.003 A 
HETATM   10  C17 UNL     1      22.990   0.826  53.064  1.00  0.00    -0.017 A 
HETATM   11  C18 UNL     1      24.186   1.756  53.055  1.00  0.00     0.042 A 
BRANCH  11  12
HETATM   12  C19 UNL     1      25.390   0.846  53.199  1.00  0.00     0.020 C 
BRANCH  12  13
HETATM   13  C20 UNL     1      26.473   1.352  54.082  1.00  0.00     0.071 C 
BRANCH  13  14
HETATM   14  C21 UNL     1      27.550   2.169  53.417  1.00  0.00     0.117 A 
HETATM   15  O2  UNL     1      28.479   2.647  54.161  1.00  0.00    -0.194 OA
HETATM   16  O3  UNL     1      28.490   2.893  52.768  1.00  0.00     0.000 OA
HETATM   17  H19 UNL     1      28.415   3.099  51.785  1.00  0.00     0.000 HD
ENDBRANCH  13  14
ENDBRANCH  12  13
ENDBRANCH  11  12
ENDBRANCH   6   7
BRANCH   1  18
HETATM   18  N1  UNL     1      23.455   5.166  51.368  1.00  0.00    -0.334 N 
HETATM   19  H2  UNL     1      23.711   5.446  52.339  1.00  0.00     0.168 HD
BRANCH  18  20
HETATM   20  C1  UNL     1      22.153   5.598  50.956  1.00  0.00     0.353 C 
HETATM   21  O1  UNL     1      21.606   6.720  51.054  1.00  0.00    -0.283 OA
ENDBRANCH  18  20
ENDBRANCH   1  18
BRANCH   3  22
HETATM   22  C5  UNL     1      27.255   5.903  48.547  1.00  0.00    -0.026 A 
HETATM   23  C6  UNL     1      28.607   5.699  48.304  1.00  0.00     0.012 A 
HETATM   24  C7  UNL     1      29.326   6.609  47.540  1.00  0.00     0.001 A 
HETATM   25  C8  UNL     1      28.680   7.709  47.032  1.00  0.00     0.000 A 
HETATM   26  C9  UNL     1      27.320   7.978  47.236  1.00  0.00     0.001 A 
HETATM   27  C10 UNL     1      26.672   7.028  48.006  1.00  0.00     0.012 A 
ENDBRANCH   3  22
TORSDOF 7
ENDMDL
MODEL 4
REMARK VINA RESULT:      -8.6      2.812      7.455
REMARK  7 active torsions:
REMARK  status: ('A' for Active; 'I' for Inactive)
REMARK    1  A    between atoms: C1_2  and  N1_3 
REMARK    2  A    between atoms: N1_3  and  C2_4 
REMARK    3  A    between atoms: C4_6  and  C5_7 
REMARK    4  A    between atoms: C13_15  and  C14_16 
REMARK    5  A    between atoms: C18_20  and  C19_21 
REMARK    6  A    between atoms: C19_21  and  C20_22 
REMARK    7  A    between atoms: C20_22  and  C21_23 
ROOT
HETATM    1  C2  UNL     1      23.612   0.309  53.332  1.00  0.00     0.045 A 
HETATM    2  C3  UNL     1      24.799  -0.412  53.517  1.00  0.00     0.042 A 
HETATM    3  C4  UNL     1      25.981  -0.040  52.865  1.00  0.00    -0.024 A 
HETATM    4  C11 UNL     1      25.916   1.061  52.038  1.00  0.00     0.013 A 
HETATM    5  C12 UNL     1      24.738   1.718  51.898  1.00  0.00     0.015 A 
HETATM    6  C13 UNL     1      23.554   1.392  52.516  1.00  0.00    -0.002 A 
ENDROOT
BRANCH   6   7
HETATM    7  C14 UNL     1      22.300   2.102  52.343  1.00  0.00    -0.038 A 
HETATM    8  C15 UNL     1      22.367   3.361  51.962  1.00  0.00     0.008 A 
HETATM    9  C16 UNL     1      21.058   3.975  51.822  1.00  0.00    -0.003 A 
HETATM   10  C17 UNL     1      20.205   2.987  52.141  1.00  0.00    -0.017 A 
HETATM   11  C18 UNL     1      20.863   1.670  52.497  1.00  0.00     0.042 A 
BRANCH  11  12
HETATM   12  C19 UNL     1      20.495   0.730  51.365  1.00  0.00     0.020 C 
BRANCH  12  13
HETATM   13  C20 UNL     1      19.118   0.173  51.417  1.00  0.00     0.071 C 
BRANCH  13  14
HETATM   14  C21 UNL     1      18.742  -0.561  52.677  1.00  0.00     0.117 A 
HETATM   15  O2  UNL     1      17.572  -1.083  52.735  1.00  0.00    -0.194 OA
HETATM   16  O3  UNL     1      18.459  -1.209  53.831  1.00  0.00     0.000 OA
HETATM   17  H19 UNL     1      19.098  -1.210  54.608  1.00  0.00     0.000 HD
ENDBRANCH  13  14
ENDBRANCH  12  13
ENDBRANCH  11  12
ENDBRANCH   6   7
BRANCH   1  18
HETATM   18  N1  UNL     1      22.621  -0.298  54.142  1.00  0.00    -0.334 N 
HETATM   19  H2  UNL     1      22.283   0.398  54.841  1.00  0.00     0.168 HD
BRANCH  18  20
HETATM   20  C1  UNL     1      21.970  -1.572  54.219  1.00  0.00     0.353 C 
HETATM   21  O1  UNL     1      21.090  -1.983  55.009  1.00  0.00    -0.283 OA
ENDBRANCH  18  20
ENDBRANCH   1  18
BRANCH   3  22
HETATM   22  C5  UNL     1      27.256  -0.739  53.016  1.00  0.00    -0.026 A 
HETATM   23  C6  UNL     1      27.418  -2.100  52.801  1.00  0.00     0.012 A 
HETATM   24  C7  UNL     1      28.664  -2.692  52.968  1.00  0.00     0.001 A 
HETATM   25  C8  UNL     1      29.726  -1.911  53.347  1.00  0.00     0.000 A 
HETATM   26  C9  UNL     1      29.637  -0.532  53.581  1.00  0.00     0.001 A 
HETATM   27  C10 UNL     1      28.366  -0.015  53.395  1.00  0.00     0.012 A 
ENDBRANCH   3  22
TORSDOF 7
ENDMDL
MODEL 5
REMARK VINA RESULT:      -8.4      4.249      6.109
REMARK  7 active torsions:
REMARK  status: ('A' for Active; 'I' for Inactive)
REMARK    1  A    between atoms: C1_2  and  N1_3 
REMARK    2  A    between atoms: N1_3  and  C2_4 
REMARK    3  A    between atoms: C4_6  and  C5_7 
REMARK    4  A    between atoms: C13_15  and  C14_16 
REMARK    5  A    between atoms: C18_20  and  C19_21 
REMARK    6  A    between atoms: C19_21  and  C20_22 
REMARK    7  A    between atoms: C20_22  and  C21_23 
ROOT
HETATM    1  C2  UNL     1      25.713   2.651  51.746  1.00  0.00     0.045 A 
HETATM    2  C3  UNL     1      25.030   1.715  52.533  1.00  0.00     0.042 A 
HETATM    3  C4  UNL     1      23.696   1.382  52.267  1.00  0.00    -0.024 A 
HETATM    4  C11 UNL     1      23.097   2.016  51.200  1.00  0.00     0.013 A 
HETATM    5  C12 UNL     1      23.809   2.913  50.474  1.00  0.00     0.015 A 
HETATM    6  C13 UNL     1      25.118   3.272  50.696  1.00  0.00    -0.002 A 
ENDROOT
BRANCH   6   7
HETATM    7  C14 UNL     1      25.860   4.245  49.914  1.00  0.00    -0.038 A 
HETATM    8  C15 UNL     1      26.951   3.825  49.308  1.00  0.00     0.008 A 
HETATM    9  C16 UNL     1      27.615   4.877  48.557  1.00  0.00    -0.003 A 
HETATM   10  C17 UNL     1      26.835   5.953  48.755  1.00  0.00    -0.017 A 
HETATM   11  C18 UNL     1      25.616   5.704  49.620  1.00  0.00     0.042 A 
BRANCH  11  12
HETATM   12  C19 UNL     1      24.434   5.839  48.680  1.00  0.00     0.020 C 
BRANCH  12  13
HETATM   13  C20 UNL     1      23.357   6.757  49.134  1.00  0.00     0.071 C 
BRANCH  13  14
HETATM   14  C21 UNL     1      22.801   6.504  50.511  1.00  0.00     0.117 A 
HETATM   15  O2  UNL     1      21.730   5.805  50.601  1.00  0.00    -0.194 OA
HETATM   16  O3  UNL     1      22.347   6.308  51.770  1.00  0.00     0.000 OA
HETATM   17  H19 UNL     1      22.783   6.747  52.565  1.00  0.00     0.000 HD
ENDBRANCH  13  14
ENDBRANCH  12  13
ENDBRANCH  11  12
ENDBRANCH   6   7
BRANCH   1  18
HETATM   18  N1  UNL     1      27.033   2.742  52.252  1.00  0.00    -0.334 N 
HETATM   19  H2  UNL     1      27.552   3.468  51.714  1.00  0.00     0.168 HD
BRANCH  18  20
HETATM   20  C1  UNL     1      27.795   2.130  53.300  1.00  0.00     0.353 C 
HETATM   21  O1  UNL     1      28.440   2.649  54.238  1.00  0.00    -0.283 OA
ENDBRANCH  18  20
ENDBRANCH   1  18
BRANCH   3  22
HETATM   22  C5  UNL     1      22.924   0.410  53.039  1.00  0.00    -0.026 A 
HETATM   23  C6  UNL     1      23.483  -0.446  53.978  1.00  0.00     0.012 A 
HETATM   24  C7  UNL     1      22.682  -1.344  54.672  1.00  0.00     0.001 A 
HETATM   25  C8  UNL     1      21.334  -1.370  54.413  1.00  0.00     0.000 A 
HETATM   26  C9  UNL     1      20.702  -0.537  53.481  1.00  0.00     0.001 A 
HETATM   27  C10 UNL     1      21.564   0.329  52.831  1.00  0.00     0.012 A 
ENDBRANCH   3  22
TORSDOF 7
ENDMDL
MODEL 6
REMARK VINA RESULT:      -8.4      4.383      7.121
REMARK  7 active torsions:
REMARK  status: ('A' for Active; 'I' for Inactive)
REMARK    1  A    between atoms: C1_2  and  N1_3 
REMARK    2  A    between atoms: N1_3  and  C2_4 
REMARK    3  A    between atoms: C4_6  and  C5_7 
REMARK    4  A    between atoms: C13_15  and  C14_16 
REMARK    5  A    between atoms: C18_20  and  C19_21 
REMARK    6  A    between atoms: C19_21  and  C20_22 
REMARK    7  A    between atoms: C20_22  and  C21_23 
ROOT
HETATM    1  C2  UNL     1      24.449   3.690  51.255  1.00  0.00     0.045 A 
HETATM    2  C3  UNL     1      24.901   4.762  50.474  1.00  0.00     0.042 A 
HETATM    3  C4  UNL     1      26.046   4.645  49.678  1.00  0.00    -0.024 A 
HETATM    4  C11 UNL     1      26.700   3.432  49.702  1.00  0.00     0.013 A 
HETATM    5  C12 UNL     1      26.216   2.431  50.478  1.00  0.00     0.015 A 
HETATM    6  C13 UNL     1      25.097   2.497  51.275  1.00  0.00    -0.002 A 
ENDROOT
BRANCH   6   7
HETATM    7  C14 UNL     1      24.601   1.417  52.108  1.00  0.00    -0.038 A 
HETATM    8  C15 UNL     1      23.330   1.096  51.986  1.00  0.00     0.008 A 
HETATM    9  C16 UNL     1      22.940   0.007  52.865  1.00  0.00    -0.003 A 
HETATM   10  C17 UNL     1      24.074  -0.302  53.516  1.00  0.00    -0.017 A 
HETATM   11  C18 UNL     1      25.279   0.528  53.121  1.00  0.00     0.042 A 
BRANCH  11  12
HETATM   12  C19 UNL     1      26.203  -0.438  52.406  1.00  0.00     0.020 C 
BRANCH  12  13
HETATM   13  C20 UNL     1      27.494  -0.714  53.089  1.00  0.00     0.071 C 
BRANCH  13  14
HETATM   14  C21 UNL     1      28.000  -2.131  53.011  1.00  0.00     0.117 A 
HETATM   15  O2  UNL     1      29.149  -2.381  53.521  1.00  0.00    -0.194 OA
HETATM   16  O3  UNL     1      28.404  -3.419  52.913  1.00  0.00     0.000 OA
HETATM   17  H19 UNL     1      27.868  -4.105  52.408  1.00  0.00     0.000 HD
ENDBRANCH  13  14
ENDBRANCH  12  13
ENDBRANCH  11  12
ENDBRANCH   6   7
BRANCH   1  18
HETATM   18  N1  UNL     1      23.268   4.116  51.911  1.00  0.00    -0.334 N 
HETATM   19  H2  UNL     1      23.243   3.699  52.866  1.00  0.00     0.168 HD
BRANCH  18  20
HETATM   20  C1  UNL     1      22.157   4.970  51.613  1.00  0.00     0.353 C 
HETATM   21  O1  UNL     1      20.931   4.718  51.583  1.00  0.00    -0.283 OA
ENDBRANCH  18  20
ENDBRANCH   1  18
BRANCH   3  22
HETATM   22  C5  UNL     1      26.571   5.716  48.833  1.00  0.00    -0.026 A 
HETATM   23  C6  UNL     1      27.893   5.791  48.417  1.00  0.00     0.012 A 
HETATM   24  C7  UNL     1      28.317   6.842  47.615  1.00  0.00     0.001 A 
HETATM   25  C8  UNL     1      27.410   7.802  47.242  1.00  0.00     0.000 A 
HETATM   26  C9  UNL     1      26.062   7.792  47.623  1.00  0.00     0.001 A 
HETATM   27  C10 UNL     1      25.715   6.714  48.421  1.00  0.00     0.012 A 
ENDBRANCH   3  22
TORSDOF 7
ENDMDL
MODEL 7
REMARK VINA RESULT:      -8.0      3.030      7.333
REMARK  7 active torsions:
REMARK  status: ('A' for Active; 'I' for Inactive)
REMARK    1  A    between atoms: C1_2  and  N1_3 
REMARK    2  A    between atoms: N1_3  and  C2_4 
REMARK    3  A    between atoms: C4_6  and  C5_7 
REMARK    4  A    between atoms: C13_15  and  C14_16 
REMARK    5  A    between atoms: C18_20  and  C19_21 
REMARK    6  A    between atoms: C19_21  and  C20_22 
REMARK    7  A    between atoms: C20_22  and  C21_23 
ROOT
HETATM    1  C2  UNL     1      23.518  -0.154  52.892  1.00  0.00     0.045 A 
HETATM    2  C3  UNL     1      24.804  -0.604  53.217  1.00  0.00     0.042 A 
HETATM    3  C4  UNL     1      25.944   0.053  52.739  1.00  0.00    -0.024 A 
HETATM    4  C11 UNL     1      25.737   1.156  51.939  1.00  0.00     0.013 A 
HETATM    5  C12 UNL     1      24.469   1.544  51.657  1.00  0.00     0.015 A 
HETATM    6  C13 UNL     1      23.320   0.933  52.103  1.00  0.00    -0.002 A 
ENDROOT
BRANCH   6   7
HETATM    7  C14 UNL     1      21.971   1.358  51.780  1.00  0.00    -0.038 A 
HETATM    8  C15 UNL     1      21.548   2.484  52.318  1.00  0.00     0.008 A 
HETATM    9  C16 UNL     1      20.186   2.813  51.932  1.00  0.00    -0.003 A 
HETATM   10  C17 UNL     1      19.832   1.805  51.118  1.00  0.00    -0.017 A 
HETATM   11  C18 UNL     1      20.905   0.759  50.896  1.00  0.00     0.042 A 
BRANCH  11  12
HETATM   12  C19 UNL     1      21.310   0.915  49.443  1.00  0.00     0.020 C 
BRANCH  12  13
HETATM   13  C20 UNL     1      20.900   2.190  48.797  1.00  0.00     0.071 C 
BRANCH  13  14
HETATM   14  C21 UNL     1      21.999   3.185  48.530  1.00  0.00     0.117 A 
HETATM   15  O2  UNL     1      23.209   2.765  48.582  1.00  0.00    -0.194 OA
HETATM   16  O3  UNL     1      22.944   4.121  48.281  1.00  0.00     0.000 OA
HETATM   17  H19 UNL     1      22.707   5.089  48.141  1.00  0.00     0.000 HD
ENDBRANCH  13  14
ENDBRANCH  12  13
ENDBRANCH  11  12
ENDBRANCH   6   7
BRANCH   1  18
HETATM   18  N1  UNL     1      22.596  -1.006  53.546  1.00  0.00    -0.334 N 
HETATM   19  H2  UNL     1      21.928  -1.387  52.841  1.00  0.00     0.168 HD
BRANCH  18  20
HETATM   20  C1  UNL     1      22.377  -1.483  54.879  1.00  0.00     0.353 C 
HETATM   21  O1  UNL     1      23.125  -1.447  55.883  1.00  0.00    -0.283 OA
ENDBRANCH  18  20
ENDBRANCH   1  18
BRANCH   3  22
HETATM   22  C5  UNL     1      27.315  -0.355  53.043  1.00  0.00    -0.026 A 
HETATM   23  C6  UNL     1      27.764  -1.666  52.958  1.00  0.00     0.012 A 
HETATM   24  C7  UNL     1      29.083  -1.975  53.266  1.00  0.00     0.001 A 
HETATM   25  C8  UNL     1      29.930  -0.967  53.654  1.00  0.00     0.000 A 
HETATM   26  C9  UNL     1      29.546   0.377  53.762  1.00  0.00     0.001 A 
HETATM   27  C10 UNL     1      28.219   0.606  53.440  1.00  0.00     0.012 A 
ENDBRANCH   3  22
TORSDOF 7
ENDMDL
MODEL 8
REMARK VINA RESULT:      -7.9      3.759      7.919
REMARK  7 active torsions:
REMARK  status: ('A' for Active; 'I' for Inactive)
REMARK    1  A    between atoms: C1_2  and  N1_3 
REMARK    2  A    between atoms: N1_3  and  C2_4 
REMARK    3  A    between atoms: C4_6  and  C5_7 
REMARK    4  A    between atoms: C13_15  and  C14_16 
REMARK    5  A    between atoms: C18_20  and  C19_21 
REMARK    6  A    between atoms: C19_21  and  C20_22 
REMARK    7  A    between atoms: C20_22  and  C21_23 
ROOT
HETATM    1  C2  UNL     1      24.262   1.438  51.707  1.00  0.00     0.045 A 
HETATM    2  C3  UNL     1      25.616   1.179  51.957  1.00  0.00     0.042 A 
HETATM    3  C4  UNL     1      26.009   0.149  52.818  1.00  0.00    -0.024 A 
HETATM    4  C11 UNL     1      25.004  -0.593  53.402  1.00  0.00     0.013 A 
HETATM    5  C12 UNL     1      23.711  -0.295  53.122  1.00  0.00     0.015 A 
HETATM    6  C13 UNL     1      23.276   0.706  52.285  1.00  0.00    -0.002 A 
ENDROOT
BRANCH   6   7
HETATM    7  C14 UNL     1      21.886   1.016  52.008  1.00  0.00    -0.038 A 
HETATM    8  C15 UNL     1      21.347   2.017  52.672  1.00  0.00     0.008 A 
HETATM    9  C16 UNL     1      19.955   2.239  52.321  1.00  0.00    -0.003 A 
HETATM   10  C17 UNL     1      19.705   1.301  51.392  1.00  0.00    -0.017 A 
HETATM   11  C18 UNL     1      20.885   0.412  51.054  1.00  0.00     0.042 A 
BRANCH  11  12
HETATM   12  C19 UNL     1      21.258   0.781  49.631  1.00  0.00     0.020 C 
BRANCH  12  13
HETATM   13  C20 UNL     1      20.464   1.882  49.026  1.00  0.00     0.071 C 
BRANCH  13  14
HETATM   14  C21 UNL     1      21.217   3.145  48.698  1.00  0.00     0.117 A 
HETATM   15  O2  UNL     1      21.119   4.126  49.517  1.00  0.00    -0.194 OA
HETATM   16  O3  UNL     1      21.914   4.253  48.354  1.00  0.00     0.000 OA
HETATM   17  H19 UNL     1      22.408   4.317  47.479  1.00  0.00     0.000 HD
ENDBRANCH  13  14
ENDBRANCH  12  13
ENDBRANCH  11  12
ENDBRANCH   6   7
BRANCH   1  18
HETATM   18  N1  UNL     1      24.202   2.511  50.785  1.00  0.00    -0.334 N 
HETATM   19  H2  UNL     1      23.879   2.147  49.863  1.00  0.00     0.168 HD
BRANCH  18  20
HETATM   20  C1  UNL     1      24.437   3.925  50.808  1.00  0.00     0.353 C 
HETATM   21  O1  UNL     1      24.435   4.760  49.876  1.00  0.00    -0.283 OA
ENDBRANCH  18  20
ENDBRANCH   1  18
BRANCH   3  22
HETATM   22  C5  UNL     1      27.400  -0.184  53.119  1.00  0.00    -0.026 A 
HETATM   23  C6  UNL     1      28.343   0.749  53.528  1.00  0.00     0.012 A 
HETATM   24  C7  UNL     1      29.649   0.356  53.794  1.00  0.00     0.001 A 
HETATM   25  C8  UNL     1      29.988  -0.966  53.646  1.00  0.00     0.000 A 
HETATM   26  C9  UNL     1      29.091  -1.961  53.238  1.00  0.00     0.001 A 
HETATM   27  C10 UNL     1      27.811  -1.493  52.992  1.00  0.00     0.012 A 
ENDBRANCH   3  22
TORSDOF 7
ENDMDL
MODEL 9
REMARK VINA RESULT:      -7.9      4.767      8.071
REMARK  7 active torsions:
REMARK  status: ('A' for Active; 'I' for Inactive)
REMARK    1  A    between atoms: C1_2  and  N1_3 
REMARK    2  A    between atoms: N1_3  and  C2_4 
REMARK    3  A    between atoms: C4_6  and  C5_7 
REMARK    4  A    between atoms: C13_15  and  C14_16 
REMARK    5  A    between atoms: C18_20  and  C19_21 
REMARK    6  A    between atoms: C19_21  and  C20_22 
REMARK    7  A    between atoms: C20_22  and  C21_23 
ROOT
HETATM    1  C2  UNL     1      24.147   4.334  50.476  1.00  0.00     0.045 A 
HETATM    2  C3  UNL     1      24.974   5.255  49.821  1.00  0.00     0.042 A 
HETATM    3  C4  UNL     1      26.210   4.867  49.290  1.00  0.00    -0.024 A 
HETATM    4  C11 UNL     1      26.566   3.544  49.443  1.00  0.00     0.013 A 
HETATM    5  C12 UNL     1      25.724   2.699  50.087  1.00  0.00     0.015 A 
HETATM    6  C13 UNL     1      24.502   3.032  50.625  1.00  0.00    -0.002 A 
ENDROOT
BRANCH   6   7
HETATM    7  C14 UNL     1      23.620   2.115  51.321  1.00  0.00    -0.038 A 
HETATM    8  C15 UNL     1      22.659   1.551  50.618  1.00  0.00     0.008 A 
HETATM    9  C16 UNL     1      21.835   0.655  51.412  1.00  0.00    -0.003 A 
HETATM   10  C17 UNL     1      22.381   0.720  52.638  1.00  0.00    -0.017 A 
HETATM   11  C18 UNL     1      23.586   1.632  52.750  1.00  0.00     0.042 A 
BRANCH  11  12
HETATM   12  C19 UNL     1      24.759   0.703  52.997  1.00  0.00     0.020 C 
BRANCH  12  13
HETATM   13  C20 UNL     1      24.405  -0.669  53.446  1.00  0.00     0.071 C 
BRANCH  13  14
HETATM   14  C21 UNL     1      24.759  -1.017  54.868  1.00  0.00     0.117 A 
HETATM   15  O2  UNL     1      23.801  -1.334  55.659  1.00  0.00    -0.194 OA
HETATM   16  O3  UNL     1      25.134  -1.321  56.133  1.00  0.00     0.000 OA
HETATM   17  H19 UNL     1      26.089  -1.228  56.438  1.00  0.00     0.000 HD
ENDBRANCH  13  14
ENDBRANCH  12  13
ENDBRANCH  11  12
ENDBRANCH   6   7
BRANCH   1  18
HETATM   18  N1  UNL     1      22.974   5.026  50.867  1.00  0.00    -0.334 N 
HETATM   19  H2  UNL     1      22.272   4.336  51.210  1.00  0.00     0.168 HD
BRANCH  18  20
HETATM   20  C1  UNL     1      22.539   6.389  50.934  1.00  0.00     0.353 C 
HETATM   21  O1  UNL     1      21.710   7.008  50.229  1.00  0.00    -0.283 OA
ENDBRANCH  18  20
ENDBRANCH   1  18
BRANCH   3  22
HETATM   22  C5  UNL     1      27.121   5.770  48.588  1.00  0.00    -0.026 A 
HETATM   23  C6  UNL     1      26.730   6.983  48.039  1.00  0.00     0.012 A 
HETATM   24  C7  UNL     1      27.655   7.786  47.384  1.00  0.00     0.001 A 
HETATM   25  C8  UNL     1      28.957   7.361  47.290  1.00  0.00     0.000 A 
HETATM   26  C9  UNL     1      29.422   6.150  47.820  1.00  0.00     0.001 A 
HETATM   27  C10 UNL     1      28.444   5.406  48.456  1.00  0.00     0.012 A 
ENDBRANCH   3  22
TORSDOF 7
ENDMDL
