MODEL 1
REMARK VINA RESULT:      -9.6      0.000      0.000
REMARK  5 active torsions:
REMARK  status: ('A' for Active; 'I' for Inactive)
REMARK    1  A    between atoms: C2_2  and  O1_3 
REMARK    2  A    between atoms: C2_2  and  C15_21 
REMARK    3  A    between atoms: O1_3  and  C3_4 
REMARK    4  A    between atoms: C6_9  and  C7_10 
REMARK    5  A    between atoms: N4_13  and  C9_14 
ROOT
HETATM    1  C3  UNL     1      25.757   2.696  51.591  1.00  0.00     0.259 A 
HETATM    2  N1  UNL     1      26.706   3.560  50.860  1.00  0.00    -0.354 N 
HETATM    3  C4  UNL     1      26.650   4.272  49.635  1.00  0.00     0.204 A 
HETATM    4  N2  UNL     1      25.512   4.160  49.049  1.00  0.00    -0.256 NA
HETATM    5  C5  UNL     1      24.467   3.387  49.622  1.00  0.00     0.130 A 
HETATM    6  C6  UNL     1      24.528   2.706  50.776  1.00  0.00     0.021 A 
HETATM    7  H6  UNL     1      27.563   3.563  51.489  1.00  0.00     0.163 HD
ENDROOT
BRANCH   1   8
HETATM    8  O1  UNL     1      26.255   1.395  51.606  1.00  0.00    -0.353 OA
BRANCH   8   9
HETATM    9  C2  UNL     1      26.187   0.743  52.807  1.00  0.00     0.157 C 
HETATM   10  C1  UNL     1      26.053   1.831  53.898  1.00  0.00     0.045 C 
BRANCH   9  11
HETATM   11  C15 UNL     1      27.500   0.110  53.081  1.00  0.00     0.017 A 
HETATM   12  C16 UNL     1      28.563   0.907  53.460  1.00  0.00     0.044 A 
HETATM   13 CL1  UNL     1      28.412   2.653  53.628  1.00  0.00    -0.084 Cl
HETATM   14  C17 UNL     1      29.810   0.383  53.729  1.00  0.00     0.028 A 
HETATM   15  C18 UNL     1      29.983  -0.997  53.611  1.00  0.00     0.046 A 
HETATM   16  C19 UNL     1      28.916  -1.804  53.229  1.00  0.00     0.138 A 
HETATM   17  F1  UNL     1      28.991  -3.152  53.088  1.00  0.00    -0.204 F 
HETATM   18  C20 UNL     1      27.671  -1.271  52.961  1.00  0.00     0.083 A 
HETATM   19 CL2  UNL     1      26.303  -2.252  52.479  1.00  0.00    -0.080 Cl
ENDBRANCH   9  11
ENDBRANCH   8   9
ENDBRANCH   1   8
BRANCH   6  20
HETATM   20  C7  UNL     1      23.277   2.037  51.082  1.00  0.00     0.012 A 
HETATM   21  C8  UNL     1      22.447   1.320  50.251  1.00  0.00     0.152 A 
HETATM   22  N3  UNL     1      21.372   0.883  50.924  1.00  0.00    -0.184 NA
HETATM   23  N4  UNL     1      21.461   1.288  52.176  1.00  0.00    -0.276 N 
HETATM   24  C14 UNL     1      22.604   1.984  52.283  1.00  0.00     0.126 A 
BRANCH  23  25
HETATM   25  C9  UNL     1      20.440   0.969  53.155  1.00  0.00     0.113 C 
HETATM   26  C10 UNL     1      21.061   0.391  54.399  1.00  0.00     0.057 C 
HETATM   27  C11 UNL     1      21.341  -1.082  54.217  1.00  0.00     0.271 C 
HETATM   28  N5  UNL     1      20.105  -1.809  54.070  1.00  0.00     0.083 N 
HETATM   29  C12 UNL     1      19.002  -0.977  53.634  1.00  0.00     0.271 C 
HETATM   30  H15 UNL     1      20.275  -2.597  53.405  1.00  0.00     0.315 HD
HETATM   31  C13 UNL     1      19.467  -0.003  52.548  1.00  0.00     0.057 C 
ENDBRANCH  23  25
ENDBRANCH   6  20
TORSDOF 5
ENDMDL
MODEL 2
REMARK VINA RESULT:      -9.2      3.267      6.688
REMARK  5 active torsions:
REMARK  status: ('A' for Active; 'I' for Inactive)
REMARK    1  A    between atoms: C2_2  and  O1_3 
REMARK    2  A    between atoms: C2_2  and  C15_21 
REMARK    3  A    between atoms: O1_3  and  C3_4 
REMARK    4  A    between atoms: C6_9  and  C7_10 
REMARK    5  A    between atoms: N4_13  and  C9_14 
ROOT
HETATM    1  C3  UNL     1      22.142   3.390  50.416  1.00  0.00     0.259 A 
HETATM    2  N1  UNL     1      21.267   4.493  49.973  1.00  0.00    -0.354 N 
HETATM    3  C4  UNL     1      21.159   5.865  50.315  1.00  0.00     0.204 A 
HETATM    4  N2  UNL     1      22.034   6.230  51.182  1.00  0.00    -0.256 NA
HETATM    5  C5  UNL     1      22.978   5.304  51.702  1.00  0.00     0.130 A 
HETATM    6  C6  UNL     1      23.070   4.004  51.384  1.00  0.00     0.021 A 
HETATM    7  H6  UNL     1      20.639   4.028  49.252  1.00  0.00     0.163 HD
ENDROOT
BRANCH   1   8
HETATM    8  O1  UNL     1      21.370   2.450  51.095  1.00  0.00    -0.353 OA
BRANCH   8   9
HETATM    9  C2  UNL     1      21.794   1.152  51.009  1.00  0.00     0.157 C 
HETATM   10  C1  UNL     1      21.383   0.642  49.607  1.00  0.00     0.045 C 
BRANCH   9  11
HETATM   11  C15 UNL     1      20.994   0.326  51.946  1.00  0.00     0.017 A 
HETATM   12  C16 UNL     1      19.622   0.275  51.793  1.00  0.00     0.044 A 
HETATM   13 CL1  UNL     1      18.788   1.160  50.521  1.00  0.00    -0.084 Cl
HETATM   14  C17 UNL     1      18.821  -0.474  52.630  1.00  0.00     0.028 A 
HETATM   15  C18 UNL     1      19.433  -1.195  53.656  1.00  0.00     0.046 A 
HETATM   16  C19 UNL     1      20.814  -1.147  53.814  1.00  0.00     0.138 A 
HETATM   17  F1  UNL     1      21.495  -1.814  54.780  1.00  0.00    -0.204 F 
HETATM   18  C20 UNL     1      21.610  -0.395  52.972  1.00  0.00     0.083 A 
HETATM   19 CL2  UNL     1      23.350  -0.309  53.137  1.00  0.00    -0.080 Cl
ENDBRANCH   9  11
ENDBRANCH   8   9
ENDBRANCH   1   8
BRANCH   6  20
HETATM   20  C7  UNL     1      24.159   3.346  52.082  1.00  0.00     0.012 A 
HETATM   21  C8  UNL     1      24.378   3.225  53.435  1.00  0.00     0.152 A 
HETATM   22  N3  UNL     1      25.519   2.560  53.669  1.00  0.00    -0.184 NA
HETATM   23  N4  UNL     1      26.065   2.235  52.514  1.00  0.00    -0.276 N 
HETATM   24  C14 UNL     1      25.255   2.703  51.551  1.00  0.00     0.126 A 
BRANCH  23  25
HETATM   25  C9  UNL     1      27.316   1.504  52.440  1.00  0.00     0.113 C 
HETATM   26  C10 UNL     1      27.068   0.021  52.511  1.00  0.00     0.057 C 
HETATM   27  C11 UNL     1      26.898  -0.421  53.946  1.00  0.00     0.271 C 
HETATM   28  N5  UNL     1      28.130  -0.234  54.672  1.00  0.00     0.083 N 
HETATM   29  C12 UNL     1      29.010   0.741  54.061  1.00  0.00     0.271 C 
HETATM   30  H15 UNL     1      27.885   0.033  55.652  1.00  0.00     0.315 HD
HETATM   31  C13 UNL     1      28.207   1.947  53.566  1.00  0.00     0.057 C 
ENDBRANCH  23  25
ENDBRANCH   6  20
TORSDOF 5
ENDMDL
MODEL 3
REMARK VINA RESULT:      -9.2      3.855      6.508
REMARK  5 active torsions:
REMARK  status: ('A' for Active; 'I' for Inactive)
REMARK    1  A    between atoms: C2_2  and  O1_3 
REMARK    2  A    between atoms: C2_2  and  C15_21 
REMARK    3  A    between atoms: O1_3  and  C3_4 
REMARK    4  A    between atoms: C6_9  and  C7_10 
REMARK    5  A    between atoms: N4_13  and  C9_14 
ROOT
HETATM    1  C3  UNL     1      23.737   4.875  51.870  1.00  0.00     0.259 A 
HETATM    2  N1  UNL     1      22.881   6.010  51.470  1.00  0.00    -0.354 N 
HETATM    3  C4  UNL     1      21.506   6.144  51.149  1.00  0.00     0.204 A 
HETATM    4  N2  UNL     1      20.862   5.037  51.258  1.00  0.00    -0.256 NA
HETATM    5  C5  UNL     1      21.521   3.844  51.658  1.00  0.00     0.130 A 
HETATM    6  C6  UNL     1      22.825   3.719  51.951  1.00  0.00     0.021 A 
HETATM    7  H6  UNL     1      23.557   6.830  51.458  1.00  0.00     0.163 HD
ENDROOT
BRANCH   1   8
HETATM    8  O1  UNL     1      24.657   4.628  50.854  1.00  0.00    -0.353 OA
BRANCH   8   9
HETATM    9  C2  UNL     1      24.471   5.330  49.694  1.00  0.00     0.157 C 
HETATM   10  C1  UNL     1      23.869   4.341  48.668  1.00  0.00     0.045 C 
BRANCH   9  11
HETATM   11  C15 UNL     1      25.798   5.678  49.129  1.00  0.00     0.017 A 
HETATM   12  C16 UNL     1      26.777   4.706  49.065  1.00  0.00     0.044 A 
HETATM   13 CL1  UNL     1      26.504   3.063  49.634  1.00  0.00    -0.084 Cl
HETATM   14  C17 UNL     1      28.031   4.965  48.551  1.00  0.00     0.028 A 
HETATM   15  C18 UNL     1      28.299   6.253  48.087  1.00  0.00     0.046 A 
HETATM   16  C19 UNL     1      27.316   7.235  48.149  1.00  0.00     0.138 A 
HETATM   17  F1  UNL     1      27.486   8.512  47.721  1.00  0.00    -0.204 F 
HETATM   18  C20 UNL     1      26.063   6.969  48.665  1.00  0.00     0.083 A 
HETATM   19 CL2  UNL     1      24.800   8.177  48.759  1.00  0.00    -0.080 Cl
ENDBRANCH   9  11
ENDBRANCH   8   9
ENDBRANCH   1   8
BRANCH   6  20
HETATM   20  C7  UNL     1      23.170   2.366  52.344  1.00  0.00     0.012 A 
HETATM   21  C8  UNL     1      22.361   1.372  52.845  1.00  0.00     0.152 A 
HETATM   22  N3  UNL     1      23.078   0.269  53.106  1.00  0.00    -0.184 NA
HETATM   23  N4  UNL     1      24.338   0.498  52.793  1.00  0.00    -0.276 N 
HETATM   24  C14 UNL     1      24.406   1.758  52.334  1.00  0.00     0.126 A 
BRANCH  23  25
HETATM   25  C9  UNL     1      25.363  -0.513  52.965  1.00  0.00     0.113 C 
HETATM   26  C10 UNL     1      25.615  -0.770  54.427  1.00  0.00     0.057 C 
HETATM   27  C11 UNL     1      26.551   0.270  54.996  1.00  0.00     0.271 C 
HETATM   28  N5  UNL     1      27.853   0.153  54.388  1.00  0.00     0.083 N 
HETATM   29  C12 UNL     1      27.826  -0.522  53.106  1.00  0.00     0.271 C 
HETATM   30  H15 UNL     1      28.255   1.113  54.306  1.00  0.00     0.315 HD
HETATM   31  C13 UNL     1      26.622  -0.054  52.284  1.00  0.00     0.057 C 
ENDBRANCH  23  25
ENDBRANCH   6  20
TORSDOF 5
ENDMDL
MODEL 4
REMARK VINA RESULT:      -9.0      3.273      7.118
REMARK  5 active torsions:
REMARK  status: ('A' for Active; 'I' for Inactive)
REMARK    1  A    between atoms: C2_2  and  O1_3 
REMARK    2  A    between atoms: C2_2  and  C15_21 
REMARK    3  A    between atoms: O1_3  and  C3_4 
REMARK    4  A    between atoms: C6_9  and  C7_10 
REMARK    5  A    between atoms: N4_13  and  C9_14 
ROOT
HETATM    1  C3  UNL     1      21.355   0.747  53.672  1.00  0.00     0.259 A 
HETATM    2  N1  UNL     1      19.992   0.180  53.730  1.00  0.00    -0.354 N 
HETATM    3  C4  UNL     1      19.476  -1.134  53.866  1.00  0.00     0.204 A 
HETATM    4  N2  UNL     1      20.399  -2.019  53.992  1.00  0.00    -0.256 NA
HETATM    5  C5  UNL     1      21.771  -1.650  53.985  1.00  0.00     0.130 A 
HETATM    6  C6  UNL     1      22.256  -0.407  53.846  1.00  0.00     0.021 A 
HETATM    7  H6  UNL     1      19.370   1.037  53.641  1.00  0.00     0.163 HD
ENDROOT
BRANCH   1   8
HETATM    8  O1  UNL     1      21.567   1.273  52.400  1.00  0.00    -0.353 OA
BRANCH   8   9
HETATM    9  C2  UNL     1      21.627   2.637  52.319  1.00  0.00     0.157 C 
HETATM   10  C1  UNL     1      20.219   3.120  51.897  1.00  0.00     0.045 C 
BRANCH   9  11
HETATM   11  C15 UNL     1      22.497   3.010  51.177  1.00  0.00     0.017 A 
HETATM   12  C16 UNL     1      23.425   4.019  51.341  1.00  0.00     0.044 A 
HETATM   13 CL1  UNL     1      23.612   4.882  52.863  1.00  0.00    -0.084 Cl
HETATM   14  C17 UNL     1      24.265   4.413  50.319  1.00  0.00     0.028 A 
HETATM   15  C18 UNL     1      24.157   3.760  49.090  1.00  0.00     0.046 A 
HETATM   16  C19 UNL     1      23.223   2.743  48.920  1.00  0.00     0.138 A 
HETATM   17  F1  UNL     1      23.048   2.054  47.764  1.00  0.00    -0.204 F 
HETATM   18  C20 UNL     1      22.387   2.354  49.948  1.00  0.00     0.083 A 
HETATM   19 CL2  UNL     1      21.200   1.080  49.774  1.00  0.00    -0.080 Cl
ENDBRANCH   9  11
ENDBRANCH   8   9
ENDBRANCH   1   8
BRANCH   6  20
HETATM   20  C7  UNL     1      23.706  -0.377  53.903  1.00  0.00     0.012 A 
HETATM   21  C8  UNL     1      24.557  -1.018  54.774  1.00  0.00     0.152 A 
HETATM   22  N3  UNL     1      25.832  -0.705  54.501  1.00  0.00    -0.184 NA
HETATM   23  N4  UNL     1      25.856   0.124  53.475  1.00  0.00    -0.276 N 
HETATM   24  C14 UNL     1      24.581   0.329  53.107  1.00  0.00     0.126 A 
BRANCH  23  25
HETATM   25  C9  UNL     1      27.101   0.644  52.943  1.00  0.00     0.113 C 
HETATM   26  C10 UNL     1      28.273  -0.136  53.478  1.00  0.00     0.057 C 
HETATM   27  C11 UNL     1      28.657   0.360  54.852  1.00  0.00     0.271 C 
HETATM   28  N5  UNL     1      29.142   1.715  54.774  1.00  0.00     0.083 N 
HETATM   29  C12 UNL     1      28.691   2.415  53.588  1.00  0.00     0.271 C 
HETATM   30  H15 UNL     1      28.846   2.211  55.645  1.00  0.00     0.315 HD
HETATM   31  C13 UNL     1      27.220   2.097  53.309  1.00  0.00     0.057 C 
ENDBRANCH  23  25
ENDBRANCH   6  20
TORSDOF 5
ENDMDL
MODEL 5
REMARK VINA RESULT:      -9.0      3.559      6.317
REMARK  5 active torsions:
REMARK  status: ('A' for Active; 'I' for Inactive)
REMARK    1  A    between atoms: C2_2  and  O1_3 
REMARK    2  A    between atoms: C2_2  and  C15_21 
REMARK    3  A    between atoms: O1_3  and  C3_4 
REMARK    4  A    between atoms: C6_9  and  C7_10 
REMARK    5  A    between atoms: N4_13  and  C9_14 
ROOT
HETATM    1  C3  UNL     1      23.746   4.945  51.842  1.00  0.00     0.259 A 
HETATM    2  N1  UNL     1      22.866   6.072  51.469  1.00  0.00    -0.354 N 
HETATM    3  C4  UNL     1      21.482   6.190  51.183  1.00  0.00     0.204 A 
HETATM    4  N2  UNL     1      20.855   5.075  51.301  1.00  0.00    -0.256 NA
HETATM    5  C5  UNL     1      21.539   3.887  51.677  1.00  0.00     0.130 A 
HETATM    6  C6  UNL     1      22.850   3.777  51.937  1.00  0.00     0.021 A 
HETATM    7  H6  UNL     1      23.532   6.900  51.447  1.00  0.00     0.163 HD
ENDROOT
BRANCH   1   8
HETATM    8  O1  UNL     1      24.644   4.716  50.802  1.00  0.00    -0.353 OA
BRANCH   8   9
HETATM    9  C2  UNL     1      24.348   5.320  49.611  1.00  0.00     0.157 C 
HETATM   10  C1  UNL     1      23.908   4.198  48.641  1.00  0.00     0.045 C 
BRANCH   9  11
HETATM   11  C15 UNL     1      25.602   5.844  49.017  1.00  0.00     0.017 A 
HETATM   12  C16 UNL     1      25.638   7.150  48.567  1.00  0.00     0.044 A 
HETATM   13 CL1  UNL     1      24.241   8.215  48.673  1.00  0.00    -0.084 Cl
HETATM   14  C17 UNL     1      26.772   7.699  48.006  1.00  0.00     0.028 A 
HETATM   15  C18 UNL     1      27.908   6.895  47.898  1.00  0.00     0.046 A 
HETATM   16  C19 UNL     1      27.877   5.580  48.350  1.00  0.00     0.138 A 
HETATM   17  F1  UNL     1      28.931   4.726  48.286  1.00  0.00    -0.204 F 
HETATM   18  C20 UNL     1      26.737   5.038  48.911  1.00  0.00     0.083 A 
HETATM   19 CL2  UNL     1      26.659   3.388  49.491  1.00  0.00    -0.080 Cl
ENDBRANCH   9  11
ENDBRANCH   8   9
ENDBRANCH   1   8
BRANCH   6  20
HETATM   20  C7  UNL     1      23.221   2.426  52.314  1.00  0.00     0.012 A 
HETATM   21  C8  UNL     1      22.433   1.412  52.806  1.00  0.00     0.152 A 
HETATM   22  N3  UNL     1      23.171   0.319  53.052  1.00  0.00    -0.184 NA
HETATM   23  N4  UNL     1      24.426   0.575  52.738  1.00  0.00    -0.276 N 
HETATM   24  C14 UNL     1      24.468   1.841  52.292  1.00  0.00     0.126 A 
BRANCH  23  25
HETATM   25  C9  UNL     1      25.470  -0.419  52.894  1.00  0.00     0.113 C 
HETATM   26  C10 UNL     1      25.665  -0.758  54.348  1.00  0.00     0.057 C 
HETATM   27  C11 UNL     1      26.547   0.269  55.019  1.00  0.00     0.271 C 
HETATM   28  N5  UNL     1      27.877   0.220  54.464  1.00  0.00     0.083 N 
HETATM   29  C12 UNL     1      27.923  -0.375  53.144  1.00  0.00     0.271 C 
HETATM   30  H15 UNL     1      28.256   1.194  54.457  1.00  0.00     0.315 HD
HETATM   31  C13 UNL     1      26.743   0.112  52.298  1.00  0.00     0.057 C 
ENDBRANCH  23  25
ENDBRANCH   6  20
TORSDOF 5
ENDMDL
MODEL 6
REMARK VINA RESULT:      -8.9      3.739      7.524
REMARK  5 active torsions:
REMARK  status: ('A' for Active; 'I' for Inactive)
REMARK    1  A    between atoms: C2_2  and  O1_3 
REMARK    2  A    between atoms: C2_2  and  C15_21 
REMARK    3  A    between atoms: O1_3  and  C3_4 
REMARK    4  A    between atoms: C6_9  and  C7_10 
REMARK    5  A    between atoms: N4_13  and  C9_14 
ROOT
HETATM    1  C3  UNL     1      22.834   1.375  50.809  1.00  0.00     0.259 A 
HETATM    2  N1  UNL     1      22.257   2.149  49.691  1.00  0.00    -0.354 N 
HETATM    3  C4  UNL     1      22.550   3.408  49.109  1.00  0.00     0.204 A 
HETATM    4  N2  UNL     1      23.555   3.988  49.661  1.00  0.00    -0.256 NA
HETATM    5  C5  UNL     1      24.251   3.376  50.738  1.00  0.00     0.130 A 
HETATM    6  C6  UNL     1      23.964   2.188  51.293  1.00  0.00     0.021 A 
HETATM    7  H6  UNL     1      21.474   1.521  49.341  1.00  0.00     0.163 HD
ENDROOT
BRANCH   1   8
HETATM    8  O1  UNL     1      21.891   1.294  51.831  1.00  0.00    -0.353 OA
BRANCH   8   9
HETATM    9  C2  UNL     1      20.630   1.723  51.517  1.00  0.00     0.157 C 
HETATM   10  C1  UNL     1      20.327   2.926  52.441  1.00  0.00     0.045 C 
BRANCH   9  11
HETATM   11  C15 UNL     1      19.656   0.686  51.937  1.00  0.00     0.017 A 
HETATM   12  C16 UNL     1      19.879  -0.011  53.108  1.00  0.00     0.044 A 
HETATM   13 CL1  UNL     1      21.286   0.288  54.122  1.00  0.00    -0.084 Cl
HETATM   14  C17 UNL     1      19.013  -0.987  53.554  1.00  0.00     0.028 A 
HETATM   15  C18 UNL     1      17.881  -1.264  52.786  1.00  0.00     0.046 A 
HETATM   16  C19 UNL     1      17.652  -0.565  51.605  1.00  0.00     0.138 A 
HETATM   17  F1  UNL     1      16.581  -0.765  50.796  1.00  0.00    -0.204 F 
HETATM   18  C20 UNL     1      18.524   0.411  51.165  1.00  0.00     0.083 A 
HETATM   19 CL2  UNL     1      18.271   1.313  49.687  1.00  0.00    -0.080 Cl
ENDBRANCH   9  11
ENDBRANCH   8   9
ENDBRANCH   1   8
BRANCH   6  20
HETATM   20  C7  UNL     1      24.885   1.848  52.362  1.00  0.00     0.012 A 
HETATM   21  C8  UNL     1      25.223   2.571  53.483  1.00  0.00     0.152 A 
HETATM   22  N3  UNL     1      26.134   1.910  54.211  1.00  0.00    -0.184 NA
HETATM   23  N4  UNL     1      26.413   0.770  53.610  1.00  0.00    -0.276 N 
HETATM   24  C14 UNL     1      25.667   0.722  52.494  1.00  0.00     0.126 A 
BRANCH  23  25
HETATM   25  C9  UNL     1      27.371  -0.170  54.161  1.00  0.00     0.113 C 
HETATM   26  C10 UNL     1      28.425   0.553  54.957  1.00  0.00     0.057 C 
HETATM   27  C11 UNL     1      29.495   1.104  54.044  1.00  0.00     0.271 C 
HETATM   28  N5  UNL     1      30.211   0.026  53.410  1.00  0.00     0.083 N 
HETATM   29  C12 UNL     1      29.464  -1.215  53.380  1.00  0.00     0.271 C 
HETATM   30  H15 UNL     1      30.471   0.338  52.447  1.00  0.00     0.315 HD
HETATM   31  C13 UNL     1      27.996  -0.945  53.035  1.00  0.00     0.057 C 
ENDBRANCH  23  25
ENDBRANCH   6  20
TORSDOF 5
ENDMDL
MODEL 7
REMARK VINA RESULT:      -8.9      2.247      5.467
REMARK  5 active torsions:
REMARK  status: ('A' for Active; 'I' for Inactive)
REMARK    1  A    between atoms: C2_2  and  O1_3 
REMARK    2  A    between atoms: C2_2  and  C15_21 
REMARK    3  A    between atoms: O1_3  and  C3_4 
REMARK    4  A    between atoms: C6_9  and  C7_10 
REMARK    5  A    between atoms: N4_13  and  C9_14 
ROOT
HETATM    1  C3  UNL     1      23.351  -0.214  52.648  1.00  0.00     0.259 A 
HETATM    2  N1  UNL     1      22.698  -0.921  53.768  1.00  0.00    -0.354 N 
HETATM    3  C4  UNL     1      21.548  -0.666  54.559  1.00  0.00     0.204 A 
HETATM    4  N2  UNL     1      20.926   0.400  54.200  1.00  0.00    -0.256 NA
HETATM    5  C5  UNL     1      21.398   1.194  53.120  1.00  0.00     0.130 A 
HETATM    6  C6  UNL     1      22.493   0.955  52.382  1.00  0.00     0.021 A 
HETATM    7  H6  UNL     1      23.316  -1.774  53.909  1.00  0.00     0.163 HD
ENDROOT
BRANCH   1   8
HETATM    8  O1  UNL     1      24.593   0.250  53.074  1.00  0.00    -0.353 OA
BRANCH   8   9
HETATM    9  C2  UNL     1      25.461  -0.702  53.536  1.00  0.00     0.157 C 
HETATM   10  C1  UNL     1      25.180  -0.865  55.048  1.00  0.00     0.045 C 
BRANCH   9  11
HETATM   11  C15 UNL     1      26.840  -0.158  53.478  1.00  0.00     0.017 A 
HETATM   12  C16 UNL     1      27.888  -1.012  53.196  1.00  0.00     0.044 A 
HETATM   13 CL1  UNL     1      27.643  -2.730  52.904  1.00  0.00    -0.084 Cl
HETATM   14  C17 UNL     1      29.193  -0.570  53.127  1.00  0.00     0.028 A 
HETATM   15  C18 UNL     1      29.442   0.784  53.352  1.00  0.00     0.046 A 
HETATM   16  C19 UNL     1      28.389   1.649  53.636  1.00  0.00     0.138 A 
HETATM   17  F1  UNL     1      28.535   2.979  53.867  1.00  0.00    -0.204 F 
HETATM   18  C20 UNL     1      27.085   1.199  53.703  1.00  0.00     0.083 A 
HETATM   19 CL2  UNL     1      25.735   2.254  54.057  1.00  0.00    -0.080 Cl
ENDBRANCH   9  11
ENDBRANCH   8   9
ENDBRANCH   1   8
BRANCH   6  20
HETATM   20  C7  UNL     1      22.679   1.952  51.344  1.00  0.00     0.012 A 
HETATM   21  C8  UNL     1      22.608   1.809  49.977  1.00  0.00     0.152 A 
HETATM   22  N3  UNL     1      22.871   2.975  49.368  1.00  0.00    -0.184 NA
HETATM   23  N4  UNL     1      23.114   3.889  50.288  1.00  0.00    -0.276 N 
HETATM   24  C14 UNL     1      23.002   3.284  51.481  1.00  0.00     0.126 A 
BRANCH  23  25
HETATM   25  C9  UNL     1      23.431   5.259  49.937  1.00  0.00     0.113 C 
HETATM   26  C10 UNL     1      24.444   5.300  48.823  1.00  0.00     0.057 C 
HETATM   27  C11 UNL     1      25.841   5.119  49.368  1.00  0.00     0.271 C 
HETATM   28  N5  UNL     1      26.195   6.236  50.207  1.00  0.00     0.083 N 
HETATM   29  C12 UNL     1      25.045   6.952  50.722  1.00  0.00     0.271 C 
HETATM   30  H15 UNL     1      26.798   5.876  50.982  1.00  0.00     0.315 HD
HETATM   31  C13 UNL     1      23.956   5.967  51.155  1.00  0.00     0.057 C 
ENDBRANCH  23  25
ENDBRANCH   6  20
TORSDOF 5
ENDMDL
MODEL 8
REMARK VINA RESULT:      -8.8      3.641      6.815
REMARK  5 active torsions:
REMARK  status: ('A' for Active; 'I' for Inactive)
REMARK    1  A    between atoms: C2_2  and  O1_3 
REMARK    2  A    between atoms: C2_2  and  C15_21 
REMARK    3  A    between atoms: O1_3  and  C3_4 
REMARK    4  A    between atoms: C6_9  and  C7_10 
REMARK    5  A    between atoms: N4_13  and  C9_14 
ROOT
HETATM    1  C3  UNL     1      22.123   3.377  50.431  1.00  0.00     0.259 A 
HETATM    2  N1  UNL     1      21.237   4.473  49.989  1.00  0.00    -0.354 N 
HETATM    3  C4  UNL     1      21.125   5.846  50.325  1.00  0.00     0.204 A 
HETATM    4  N2  UNL     1      22.005   6.221  51.182  1.00  0.00    -0.256 NA
HETATM    5  C5  UNL     1      22.959   5.303  51.700  1.00  0.00     0.130 A 
HETATM    6  C6  UNL     1      23.055   4.002  51.387  1.00  0.00     0.021 A 
HETATM    7  H6  UNL     1      20.606   4.001  49.276  1.00  0.00     0.163 HD
ENDROOT
BRANCH   1   8
HETATM    8  O1  UNL     1      21.361   2.437  51.122  1.00  0.00    -0.353 OA
BRANCH   8   9
HETATM    9  C2  UNL     1      21.789   1.140  51.035  1.00  0.00     0.157 C 
HETATM   10  C1  UNL     1      21.366   0.624  49.639  1.00  0.00     0.045 C 
BRANCH   9  11
HETATM   11  C15 UNL     1      21.002   0.314  51.983  1.00  0.00     0.017 A 
HETATM   12  C16 UNL     1      21.663  -0.382  52.977  1.00  0.00     0.044 A 
HETATM   13 CL1  UNL     1      23.412  -0.323  53.156  1.00  0.00    -0.084 Cl
HETATM   14  C17 UNL     1      20.990  -1.167  53.890  1.00  0.00     0.028 A 
HETATM   15  C18 UNL     1      19.601  -1.248  53.791  1.00  0.00     0.046 A 
HETATM   16  C19 UNL     1      18.931  -0.549  52.792  1.00  0.00     0.138 A 
HETATM   17  F1  UNL     1      17.584  -0.567  52.619  1.00  0.00    -0.204 F 
HETATM   18  C20 UNL     1      19.611   0.235  51.881  1.00  0.00     0.083 A 
HETATM   19 CL2  UNL     1      18.805   1.130  50.611  1.00  0.00    -0.080 Cl
ENDBRANCH   9  11
ENDBRANCH   8   9
ENDBRANCH   1   8
BRANCH   6  20
HETATM   20  C7  UNL     1      24.153   3.353  52.080  1.00  0.00     0.012 A 
HETATM   21  C8  UNL     1      24.391   3.251  53.432  1.00  0.00     0.152 A 
HETATM   22  N3  UNL     1      25.535   2.590  53.659  1.00  0.00    -0.184 NA
HETATM   23  N4  UNL     1      26.066   2.248  52.501  1.00  0.00    -0.276 N 
HETATM   24  C14 UNL     1      25.243   2.703  51.543  1.00  0.00     0.126 A 
BRANCH  23  25
HETATM   25  C9  UNL     1      27.315   1.517  52.420  1.00  0.00     0.113 C 
HETATM   26  C10 UNL     1      27.063   0.032  52.445  1.00  0.00     0.057 C 
HETATM   27  C11 UNL     1      26.875  -0.451  53.864  1.00  0.00     0.271 C 
HETATM   28  N5  UNL     1      28.098  -0.289  54.609  1.00  0.00     0.083 N 
HETATM   29  C12 UNL     1      28.988   0.701  54.038  1.00  0.00     0.271 C 
HETATM   30  H15 UNL     1      27.843  -0.050  55.594  1.00  0.00     0.315 HD
HETATM   31  C13 UNL     1      28.194   1.923  53.569  1.00  0.00     0.057 C 
ENDBRANCH  23  25
ENDBRANCH   6  20
TORSDOF 5
ENDMDL
MODEL 9
REMARK VINA RESULT:      -8.8      2.010      5.527
REMARK  5 active torsions:
REMARK  status: ('A' for Active; 'I' for Inactive)
REMARK    1  A    between atoms: C2_2  and  O1_3 
REMARK    2  A    between atoms: C2_2  and  C15_21 
REMARK    3  A    between atoms: O1_3  and  C3_4 
REMARK    4  A    between atoms: C6_9  and  C7_10 
REMARK    5  A    between atoms: N4_13  and  C9_14 
ROOT
HETATM    1  C3  UNL     1      23.372   0.780  52.179  1.00  0.00     0.259 A 
HETATM    2  N1  UNL     1      22.451  -0.297  52.596  1.00  0.00    -0.354 N 
HETATM    3  C4  UNL     1      21.109  -0.324  53.055  1.00  0.00     0.204 A 
HETATM    4  N2  UNL     1      20.573   0.843  53.087  1.00  0.00    -0.256 NA
HETATM    5  C5  UNL     1      21.305   1.996  52.695  1.00  0.00     0.130 A 
HETATM    6  C6  UNL     1      22.578   2.019  52.272  1.00  0.00     0.021 A 
HETATM    7  H6  UNL     1      23.038  -1.175  52.482  1.00  0.00     0.163 HD
ENDROOT
BRANCH   1   8
HETATM    8  O1  UNL     1      24.411   0.863  53.103  1.00  0.00    -0.353 OA
BRANCH   8   9
HETATM    9  C2  UNL     1      25.148  -0.277  53.279  1.00  0.00     0.157 C 
HETATM   10  C1  UNL     1      24.809  -0.813  54.689  1.00  0.00     0.045 C 
BRANCH   9  11
HETATM   11  C15 UNL     1      26.583   0.092  53.364  1.00  0.00     0.017 A 
HETATM   12  C16 UNL     1      26.924   1.379  53.733  1.00  0.00     0.044 A 
HETATM   13 CL1  UNL     1      25.713   2.600  54.105  1.00  0.00    -0.084 Cl
HETATM   14  C17 UNL     1      28.239   1.786  53.832  1.00  0.00     0.028 A 
HETATM   15  C18 UNL     1      29.239   0.856  53.547  1.00  0.00     0.046 A 
HETATM   16  C19 UNL     1      28.900  -0.441  53.175  1.00  0.00     0.138 A 
HETATM   17  F1  UNL     1      29.803  -1.411  52.881  1.00  0.00    -0.204 F 
HETATM   18  C20 UNL     1      27.582  -0.841  53.078  1.00  0.00     0.083 A 
HETATM   19 CL2  UNL     1      27.114  -2.463  52.615  1.00  0.00    -0.080 Cl
ENDBRANCH   9  11
ENDBRANCH   8   9
ENDBRANCH   1   8
BRANCH   6  20
HETATM   20  C7  UNL     1      23.016   3.360  51.931  1.00  0.00     0.012 A 
HETATM   21  C8  UNL     1      23.025   4.496  52.706  1.00  0.00     0.152 A 
HETATM   22  N3  UNL     1      23.488   5.540  52.004  1.00  0.00    -0.184 NA
HETATM   23  N4  UNL     1      23.788   5.134  50.786  1.00  0.00    -0.276 N 
HETATM   24  C14 UNL     1      23.507   3.822  50.730  1.00  0.00     0.126 A 
BRANCH  23  25
HETATM   25  C9  UNL     1      24.315   6.042  49.786  1.00  0.00     0.113 C 
HETATM   26  C10 UNL     1      25.081   5.285  48.733  1.00  0.00     0.057 C 
HETATM   27  C11 UNL     1      26.486   4.993  49.205  1.00  0.00     0.271 C 
HETATM   28  N5  UNL     1      27.223   6.222  49.361  1.00  0.00     0.083 N 
HETATM   29  C12 UNL     1      26.371   7.381  49.531  1.00  0.00     0.271 C 
HETATM   30  H15 UNL     1      27.873   6.104  50.171  1.00  0.00     0.315 HD
HETATM   31  C13 UNL     1      25.201   7.051  50.462  1.00  0.00     0.057 C 
ENDBRANCH  23  25
ENDBRANCH   6  20
TORSDOF 5
ENDMDL
