MODEL 1
REMARK VINA RESULT:      -8.9      0.000      0.000
REMARK  3 active torsions:
REMARK  status: ('A' for Active; 'I' for Inactive)
REMARK    1  A    between atoms: C5_6  and  N1_7 
REMARK    2  A    between atoms: N1_7  and  C6_8 
REMARK    3  A    between atoms: C20_25  and  C21_26 
ROOT
HETATM    1  C6  UNL     1      26.802   2.409  51.601  1.00  0.00     0.138 A 
HETATM    2  N2  UNL     1      27.973   2.526  52.239  1.00  0.00    -0.224 NA
HETATM    3  C7  UNL     1      28.105   1.758  53.361  1.00  0.00     0.232 A 
HETATM    4  N3  UNL     1      27.088   0.961  53.742  1.00  0.00    -0.233 NA
HETATM    5  C8  UNL     1      25.904   0.915  52.999  1.00  0.00     0.325 A 
HETATM    6  C9  UNL     1      25.724   1.625  51.924  1.00  0.00     0.074 A 
HETATM    7  C10 UNL     1      24.499   0.793  52.209  1.00  0.00     0.259 A 
HETATM    8  C11 UNL     1      23.300   0.775  51.620  1.00  0.00     0.042 C 
HETATM    9  C12 UNL     1      21.993   0.823  50.906  1.00  0.00     0.012 C 
HETATM   10  C13 UNL     1      21.014   0.932  51.991  1.00  0.00     0.027 C 
HETATM   11  C14 UNL     1      20.109   1.043  52.996  1.00  0.00    -0.027 C 
HETATM   12  C15 UNL     1      20.197   0.543  54.263  1.00  0.00    -0.008 C 
HETATM   13  C16 UNL     1      21.346  -0.203  54.753  1.00  0.00    -0.020 C 
HETATM   14  C17 UNL     1      22.467  -0.460  54.119  1.00  0.00     0.046 C 
HETATM   15  C18 UNL     1      23.703  -0.832  53.621  1.00  0.00     0.287 C 
HETATM   16  N4  UNL     1      24.851   0.017  53.479  1.00  0.00     0.147 N 
ENDROOT
BRANCH   1  17
HETATM   17  N1  UNL     1      26.444   3.096  50.399  1.00  0.00    -0.350 N 
HETATM   18  H5  UNL     1      26.743   3.063  49.433  1.00  0.00     0.166 HD
BRANCH  17  19
HETATM   19  C5  UNL     1      25.433   4.045  50.661  1.00  0.00     0.097 C 
HETATM   20  C4  UNL     1      24.225   4.268  50.156  1.00  0.00    -0.038 A 
HETATM   21  C3  UNL     1      23.406   5.389  50.686  1.00  0.00     0.070 A 
HETATM   22  C19 UNL     1      23.769   3.387  49.082  1.00  0.00     0.028 A 
HETATM   23  C2  UNL     1      22.146   5.430  49.866  1.00  0.00     0.021 A 
HETATM   24  C1  UNL     1      21.675   4.666  48.879  1.00  0.00     0.128 A 
HETATM   25  F1  UNL     1      20.492   4.901  48.284  1.00  0.00    -0.206 F 
HETATM   26  C20 UNL     1      22.591   3.597  48.514  1.00  0.00     0.086 A 
BRANCH  26  27
HETATM   27  C21 UNL     1      22.162   2.674  47.420  1.00  0.00     0.420 C 
HETATM   28  F2  UNL     1      23.075   1.616  47.334  1.00  0.00    -0.166 F 
HETATM   29  F3  UNL     1      22.126   3.316  46.204  1.00  0.00    -0.166 F 
HETATM   30  F4  UNL     1      20.946   2.116  47.770  1.00  0.00    -0.166 F 
ENDBRANCH  26  27
ENDBRANCH  17  19
ENDBRANCH   1  17
TORSDOF 3
ENDMDL
MODEL 2
REMARK VINA RESULT:      -8.7      2.698      5.241
REMARK  3 active torsions:
REMARK  status: ('A' for Active; 'I' for Inactive)
REMARK    1  A    between atoms: C5_6  and  N1_7 
REMARK    2  A    between atoms: N1_7  and  C6_8 
REMARK    3  A    between atoms: C20_25  and  C21_26 
ROOT
HETATM    1  C6  UNL     1      19.863   0.238  52.707  1.00  0.00     0.138 A 
HETATM    2  N2  UNL     1      18.918  -0.663  53.002  1.00  0.00    -0.224 NA
HETATM    3  C7  UNL     1      19.325  -1.697  53.796  1.00  0.00     0.232 A 
HETATM    4  N3  UNL     1      20.604  -1.744  54.218  1.00  0.00    -0.233 NA
HETATM    5  C8  UNL     1      21.512  -0.747  53.850  1.00  0.00     0.325 A 
HETATM    6  C9  UNL     1      21.178   0.260  53.095  1.00  0.00     0.074 A 
HETATM    7  C10 UNL     1      22.634   0.356  53.478  1.00  0.00     0.259 A 
HETATM    8  C11 UNL     1      23.586   1.205  53.082  1.00  0.00     0.042 C 
HETATM    9  C12 UNL     1      24.584   2.194  52.584  1.00  0.00     0.012 C 
HETATM   10  C13 UNL     1      25.719   1.360  52.181  1.00  0.00     0.027 C 
HETATM   11  C14 UNL     1      26.766   0.587  51.799  1.00  0.00    -0.027 C 
HETATM   12  C15 UNL     1      27.166  -0.606  52.330  1.00  0.00    -0.008 C 
HETATM   13  C16 UNL     1      26.476  -1.267  53.427  1.00  0.00    -0.020 C 
HETATM   14  C17 UNL     1      25.372  -0.886  54.028  1.00  0.00     0.046 C 
HETATM   15  C18 UNL     1      24.235  -0.652  54.778  1.00  0.00     0.287 C 
HETATM   16  N4  UNL     1      22.880  -0.871  54.357  1.00  0.00     0.147 N 
ENDROOT
BRANCH   1  17
HETATM   17  N1  UNL     1      19.668   1.410  51.911  1.00  0.00    -0.350 N 
HETATM   18  H5  UNL     1      19.107   2.250  51.989  1.00  0.00     0.166 HD
BRANCH  17  19
HETATM   19  C5  UNL     1      20.455   1.345  50.743  1.00  0.00     0.097 C 
HETATM   20  C4  UNL     1      21.371   2.140  50.203  1.00  0.00    -0.038 A 
HETATM   21  C3  UNL     1      22.019   1.748  48.924  1.00  0.00     0.070 A 
HETATM   22  C19 UNL     1      21.687   3.382  50.907  1.00  0.00     0.028 A 
HETATM   23  C2  UNL     1      22.935   2.877  48.539  1.00  0.00     0.021 A 
HETATM   24  C1  UNL     1      23.261   4.028  49.129  1.00  0.00     0.128 A 
HETATM   25  F1  UNL     1      24.126   4.902  48.581  1.00  0.00    -0.206 F 
HETATM   26  C20 UNL     1      22.560   4.231  50.386  1.00  0.00     0.086 A 
BRANCH  26  27
HETATM   27  C21 UNL     1      22.854   5.489  51.137  1.00  0.00     0.420 C 
HETATM   28  F2  UNL     1      22.130   5.483  52.334  1.00  0.00    -0.166 F 
HETATM   29  F3  UNL     1      22.493   6.603  50.416  1.00  0.00    -0.166 F 
HETATM   30  F4  UNL     1      24.192   5.486  51.487  1.00  0.00    -0.166 F 
ENDBRANCH  26  27
ENDBRANCH  17  19
ENDBRANCH   1  17
TORSDOF 3
ENDMDL
MODEL 3
REMARK VINA RESULT:      -8.6      4.430      8.265
REMARK  3 active torsions:
REMARK  status: ('A' for Active; 'I' for Inactive)
REMARK    1  A    between atoms: C5_6  and  N1_7 
REMARK    2  A    between atoms: N1_7  and  C6_8 
REMARK    3  A    between atoms: C20_25  and  C21_26 
ROOT
HETATM    1  C6  UNL     1      25.403   4.341  49.814  1.00  0.00     0.138 A 
HETATM    2  N2  UNL     1      24.225   4.608  50.391  1.00  0.00    -0.224 NA
HETATM    3  C7  UNL     1      23.918   5.934  50.504  1.00  0.00     0.232 A 
HETATM    4  N3  UNL     1      24.787   6.857  50.045  1.00  0.00    -0.233 NA
HETATM    5  C8  UNL     1      25.994   6.466  49.457  1.00  0.00     0.325 A 
HETATM    6  C9  UNL     1      26.336   5.218  49.324  1.00  0.00     0.074 A 
HETATM    7  C10 UNL     1      27.411   6.116  48.764  1.00  0.00     0.259 A 
HETATM    8  C11 UNL     1      28.628   5.830  48.292  1.00  0.00     0.042 C 
HETATM    9  C12 UNL     1      29.969   5.421  47.786  1.00  0.00     0.012 C 
HETATM   10  C13 UNL     1      30.887   6.332  48.475  1.00  0.00     0.027 C 
HETATM   11  C14 UNL     1      31.737   7.169  49.120  1.00  0.00    -0.027 C 
HETATM   12  C15 UNL     1      31.503   8.451  49.528  1.00  0.00    -0.008 C 
HETATM   13  C16 UNL     1      30.233   9.134  49.340  1.00  0.00    -0.020 C 
HETATM   14  C17 UNL     1      29.126   8.645  48.829  1.00  0.00     0.046 C 
HETATM   15  C18 UNL     1      27.882   8.318  48.321  1.00  0.00     0.287 C 
HETATM   16  N4  UNL     1      26.877   7.532  48.979  1.00  0.00     0.147 N 
ENDROOT
BRANCH   1  17
HETATM   17  N1  UNL     1      25.926   3.032  49.572  1.00  0.00    -0.350 N 
HETATM   18  H5  UNL     1      25.905   2.379  48.799  1.00  0.00     0.166 HD
BRANCH  17  19
HETATM   19  C5  UNL     1      26.629   2.569  50.704  1.00  0.00     0.097 C 
HETATM   20  C4  UNL     1      26.304   1.809  51.742  1.00  0.00    -0.038 A 
HETATM   21  C3  UNL     1      27.325   1.513  52.781  1.00  0.00     0.070 A 
HETATM   22  C19 UNL     1      24.933   1.306  51.808  1.00  0.00     0.028 A 
HETATM   23  C2  UNL     1      26.637   0.709  53.849  1.00  0.00     0.021 A 
HETATM   24  C1  UNL     1      25.400   0.226  53.971  1.00  0.00     0.128 A 
HETATM   25  F1  UNL     1      25.003  -0.484  55.043  1.00  0.00    -0.206 F 
HETATM   26  C20 UNL     1      24.547   0.581  52.848  1.00  0.00     0.086 A 
BRANCH  26  27
HETATM   27  C21 UNL     1      23.137   0.087  52.878  1.00  0.00     0.420 C 
HETATM   28  F2  UNL     1      22.482   0.648  53.979  1.00  0.00    -0.166 F 
HETATM   29  F3  UNL     1      23.086  -1.283  52.993  1.00  0.00    -0.166 F 
HETATM   30  F4  UNL     1      22.486   0.556  51.752  1.00  0.00    -0.166 F 
ENDBRANCH  26  27
ENDBRANCH  17  19
ENDBRANCH   1  17
TORSDOF 3
ENDMDL
MODEL 4
REMARK VINA RESULT:      -8.6      3.150      5.576
REMARK  3 active torsions:
REMARK  status: ('A' for Active; 'I' for Inactive)
REMARK    1  A    between atoms: C5_6  and  N1_7 
REMARK    2  A    between atoms: N1_7  and  C6_8 
REMARK    3  A    between atoms: C20_25  and  C21_26 
ROOT
HETATM    1  C6  UNL     1      22.931   5.021  51.605  1.00  0.00     0.138 A 
HETATM    2  N2  UNL     1      23.172   6.179  50.980  1.00  0.00    -0.224 NA
HETATM    3  C7  UNL     1      24.384   6.265  50.356  1.00  0.00     0.232 A 
HETATM    4  N3  UNL     1      25.231   5.218  50.407  1.00  0.00    -0.233 NA
HETATM    5  C8  UNL     1      24.878   4.050  51.090  1.00  0.00     0.325 A 
HETATM    6  C9  UNL     1      23.737   3.915  51.702  1.00  0.00     0.074 A 
HETATM    7  C10 UNL     1      24.562   2.661  51.854  1.00  0.00     0.259 A 
HETATM    8  C11 UNL     1      24.347   1.558  52.576  1.00  0.00     0.042 C 
HETATM    9  C12 UNL     1      24.027   0.366  53.412  1.00  0.00     0.012 C 
HETATM   10  C13 UNL     1      25.261   0.139  54.169  1.00  0.00     0.027 C 
HETATM   11  C14 UNL     1      26.400  -0.066  54.876  1.00  0.00    -0.027 C 
HETATM   12  C15 UNL     1      27.684   0.197  54.493  1.00  0.00    -0.008 C 
HETATM   13  C16 UNL     1      28.033   0.787  53.210  1.00  0.00    -0.020 C 
HETATM   14  C17 UNL     1      27.217   1.207  52.270  1.00  0.00     0.046 C 
HETATM   15  C18 UNL     1      26.529   1.694  51.174  1.00  0.00     0.287 C 
HETATM   16  N4  UNL     1      25.853   2.958  51.091  1.00  0.00     0.147 N 
ENDROOT
BRANCH   1  17
HETATM   17  N1  UNL     1      21.729   4.695  52.308  1.00  0.00    -0.350 N 
HETATM   18  H5  UNL     1      21.411   4.769  53.266  1.00  0.00     0.166 HD
BRANCH  17  19
HETATM   19  C5  UNL     1      20.784   4.131  51.425  1.00  0.00     0.097 C 
HETATM   20  C4  UNL     1      20.137   2.972  51.386  1.00  0.00    -0.038 A 
HETATM   21  C3  UNL     1      19.184   2.703  50.277  1.00  0.00     0.070 A 
HETATM   22  C19 UNL     1      20.414   2.008  52.449  1.00  0.00     0.028 A 
HETATM   23  C2  UNL     1      18.683   1.299  50.467  1.00  0.00     0.021 A 
HETATM   24  C1  UNL     1      18.897   0.374  51.405  1.00  0.00     0.128 A 
HETATM   25  F1  UNL     1      18.325  -0.843  51.364  1.00  0.00    -0.206 F 
HETATM   26  C20 UNL     1      19.828   0.820  52.429  1.00  0.00     0.086 A 
BRANCH  26  27
HETATM   27  C21 UNL     1      20.137  -0.137  53.534  1.00  0.00     0.420 C 
HETATM   28  F2  UNL     1      21.104  -1.047  53.091  1.00  0.00    -0.166 F 
HETATM   29  F3  UNL     1      19.020  -0.842  53.918  1.00  0.00    -0.166 F 
HETATM   30  F4  UNL     1      20.711   0.569  54.576  1.00  0.00    -0.166 F 
ENDBRANCH  26  27
ENDBRANCH  17  19
ENDBRANCH   1  17
TORSDOF 3
ENDMDL
MODEL 5
REMARK VINA RESULT:      -8.6      5.344      9.212
REMARK  3 active torsions:
REMARK  status: ('A' for Active; 'I' for Inactive)
REMARK    1  A    between atoms: C5_6  and  N1_7 
REMARK    2  A    between atoms: N1_7  and  C6_8 
REMARK    3  A    between atoms: C20_25  and  C21_26 
ROOT
HETATM    1  C6  UNL     1      25.988   5.181  49.638  1.00  0.00     0.138 A 
HETATM    2  N2  UNL     1      24.718   5.585  49.759  1.00  0.00    -0.224 NA
HETATM    3  C7  UNL     1      24.387   6.694  49.033  1.00  0.00     0.232 A 
HETATM    4  N3  UNL     1      25.324   7.291  48.271  1.00  0.00    -0.233 NA
HETATM    5  C8  UNL     1      26.626   6.784  48.217  1.00  0.00     0.325 A 
HETATM    6  C9  UNL     1      26.995   5.731  48.887  1.00  0.00     0.074 A 
HETATM    7  C10 UNL     1      28.155   6.275  48.090  1.00  0.00     0.259 A 
HETATM    8  C11 UNL     1      29.443   5.921  48.071  1.00  0.00     0.042 C 
HETATM    9  C12 UNL     1      30.860   5.461  48.114  1.00  0.00     0.012 C 
HETATM   10  C13 UNL     1      31.617   6.703  48.284  1.00  0.00     0.027 C 
HETATM   11  C14 UNL     1      32.317   7.853  48.452  1.00  0.00    -0.027 C 
HETATM   12  C15 UNL     1      31.999   9.102  48.000  1.00  0.00    -0.008 C 
HETATM   13  C16 UNL     1      30.788   9.400  47.254  1.00  0.00    -0.020 C 
HETATM   14  C17 UNL     1      29.807   8.580  46.951  1.00  0.00     0.046 C 
HETATM   15  C18 UNL     1      28.691   7.877  46.537  1.00  0.00     0.287 C 
HETATM   16  N4  UNL     1      27.580   7.488  47.358  1.00  0.00     0.147 N 
ENDROOT
BRANCH   1  17
HETATM   17  N1  UNL     1      26.558   4.039  50.284  1.00  0.00    -0.350 N 
HETATM   18  H5  UNL     1      27.497   3.701  50.457  1.00  0.00     0.166 HD
BRANCH  17  19
HETATM   19  C5  UNL     1      25.539   3.200  50.783  1.00  0.00     0.097 C 
HETATM   20  C4  UNL     1      25.523   2.162  51.611  1.00  0.00    -0.038 A 
HETATM   21  C3  UNL     1      24.232   1.497  51.926  1.00  0.00     0.070 A 
HETATM   22  C19 UNL     1      26.802   1.722  52.166  1.00  0.00     0.028 A 
HETATM   23  C2  UNL     1      24.553   0.325  52.812  1.00  0.00     0.021 A 
HETATM   24  C1  UNL     1      25.688  -0.130  53.345  1.00  0.00     0.128 A 
HETATM   25  F1  UNL     1      25.731  -1.224  54.127  1.00  0.00    -0.206 F 
HETATM   26  C20 UNL     1      26.844   0.662  52.960  1.00  0.00     0.086 A 
BRANCH  26  27
HETATM   27  C21 UNL     1      28.171   0.244  53.506  1.00  0.00     0.420 C 
HETATM   28  F2  UNL     1      28.519  -0.995  52.956  1.00  0.00    -0.166 F 
HETATM   29  F3  UNL     1      28.135   0.116  54.876  1.00  0.00    -0.166 F 
HETATM   30  F4  UNL     1      29.125   1.148  53.076  1.00  0.00    -0.166 F 
ENDBRANCH  26  27
ENDBRANCH  17  19
ENDBRANCH   1  17
TORSDOF 3
ENDMDL
MODEL 6
REMARK VINA RESULT:      -8.4      5.740      9.385
REMARK  3 active torsions:
REMARK  status: ('A' for Active; 'I' for Inactive)
REMARK    1  A    between atoms: C5_6  and  N1_7 
REMARK    2  A    between atoms: N1_7  and  C6_8 
REMARK    3  A    between atoms: C20_25  and  C21_26 
ROOT
HETATM    1  C6  UNL     1      27.116   5.681  48.733  1.00  0.00     0.138 A 
HETATM    2  N2  UNL     1      26.017   6.443  48.764  1.00  0.00    -0.224 NA
HETATM    3  C7  UNL     1      26.146   7.678  48.193  1.00  0.00     0.232 A 
HETATM    4  N3  UNL     1      27.327   8.038  47.656  1.00  0.00    -0.233 NA
HETATM    5  C8  UNL     1      28.416   7.161  47.677  1.00  0.00     0.325 A 
HETATM    6  C9  UNL     1      28.348   5.975  48.207  1.00  0.00     0.074 A 
HETATM    7  C10 UNL     1      29.730   6.220  47.653  1.00  0.00     0.259 A 
HETATM    8  C11 UNL     1      30.844   5.487  47.732  1.00  0.00     0.042 C 
HETATM    9  C12 UNL     1      32.039   4.607  47.870  1.00  0.00     0.012 C 
HETATM   10  C13 UNL     1      33.086   5.523  48.329  1.00  0.00     0.027 C 
HETATM   11  C14 UNL     1      34.054   6.370  48.763  1.00  0.00    -0.027 C 
HETATM   12  C15 UNL     1      34.191   7.699  48.484  1.00  0.00    -0.008 C 
HETATM   13  C16 UNL     1      33.258   8.446  47.656  1.00  0.00    -0.020 C 
HETATM   14  C17 UNL     1      32.144   8.013  47.109  1.00  0.00     0.046 C 
HETATM   15  C18 UNL     1      30.955   7.747  46.456  1.00  0.00     0.287 C 
HETATM   16  N4  UNL     1      29.660   7.630  47.064  1.00  0.00     0.147 N 
ENDROOT
BRANCH   1  17
HETATM   17  N1  UNL     1      27.215   4.351  49.249  1.00  0.00    -0.350 N 
HETATM   18  H5  UNL     1      27.968   3.693  49.408  1.00  0.00     0.166 HD
BRANCH  17  19
HETATM   19  C5  UNL     1      25.939   3.869  49.607  1.00  0.00     0.097 C 
HETATM   20  C4  UNL     1      25.507   2.955  50.469  1.00  0.00    -0.038 A 
HETATM   21  C3  UNL     1      24.048   2.695  50.590  1.00  0.00     0.070 A 
HETATM   22  C19 UNL     1      26.511   2.240  51.254  1.00  0.00     0.028 A 
HETATM   23  C2  UNL     1      23.889   1.569  51.573  1.00  0.00     0.021 A 
HETATM   24  C1  UNL     1      24.756   0.877  52.314  1.00  0.00     0.128 A 
HETATM   25  F1  UNL     1      24.372  -0.111  53.143  1.00  0.00    -0.206 F 
HETATM   26  C20 UNL     1      26.133   1.288  52.094  1.00  0.00     0.086 A 
BRANCH  26  27
HETATM   27  C21 UNL     1      27.191   0.581  52.878  1.00  0.00     0.420 C 
HETATM   28  F2  UNL     1      28.407   1.254  52.711  1.00  0.00    -0.166 F 
HETATM   29  F3  UNL     1      27.351  -0.718  52.452  1.00  0.00    -0.166 F 
HETATM   30  F4  UNL     1      26.873   0.670  54.221  1.00  0.00    -0.166 F 
ENDBRANCH  26  27
ENDBRANCH  17  19
ENDBRANCH   1  17
TORSDOF 3
ENDMDL
MODEL 7
REMARK VINA RESULT:      -8.4      2.701      5.832
REMARK  3 active torsions:
REMARK  status: ('A' for Active; 'I' for Inactive)
REMARK    1  A    between atoms: C5_6  and  N1_7 
REMARK    2  A    between atoms: N1_7  and  C6_8 
REMARK    3  A    between atoms: C20_25  and  C21_26 
ROOT
HETATM    1  C6  UNL     1      26.954   4.409  49.090  1.00  0.00     0.138 A 
HETATM    2  N2  UNL     1      28.097   4.798  48.513  1.00  0.00    -0.224 NA
HETATM    3  C7  UNL     1      28.255   6.149  48.383  1.00  0.00     0.232 A 
HETATM    4  N3  UNL     1      27.287   6.974  48.827  1.00  0.00    -0.233 NA
HETATM    5  C8  UNL     1      26.128   6.460  49.417  1.00  0.00     0.325 A 
HETATM    6  C9  UNL     1      25.926   5.183  49.566  1.00  0.00     0.074 A 
HETATM    7  C10 UNL     1      24.756   5.963  50.111  1.00  0.00     0.259 A 
HETATM    8  C11 UNL     1      23.576   5.550  50.583  1.00  0.00     0.042 C 
HETATM    9  C12 UNL     1      22.287   5.001  51.091  1.00  0.00     0.012 C 
HETATM   10  C13 UNL     1      21.277   5.795  50.388  1.00  0.00     0.027 C 
HETATM   11  C14 UNL     1      20.341   6.523  49.729  1.00  0.00    -0.027 C 
HETATM   12  C15 UNL     1      20.433   7.818  49.305  1.00  0.00    -0.008 C 
HETATM   13  C16 UNL     1      21.619   8.640  49.487  1.00  0.00    -0.020 C 
HETATM   14  C17 UNL     1      22.771   8.284  50.008  1.00  0.00     0.046 C 
HETATM   15  C18 UNL     1      24.041   8.105  50.524  1.00  0.00     0.287 C 
HETATM   16  N4  UNL     1      25.130   7.427  49.879  1.00  0.00     0.147 N 
ENDROOT
BRANCH   1  17
HETATM   17  N1  UNL     1      26.578   3.054  49.348  1.00  0.00    -0.350 N 
HETATM   18  H5  UNL     1      26.404   2.233  48.781  1.00  0.00     0.166 HD
BRANCH  17  19
HETATM   19  C5  UNL     1      26.411   2.847  50.734  1.00  0.00     0.097 C 
HETATM   20  C4  UNL     1      25.422   2.373  51.482  1.00  0.00    -0.038 A 
HETATM   21  C3  UNL     1      25.593   2.293  52.956  1.00  0.00     0.070 A 
HETATM   22  C19 UNL     1      24.197   1.958  50.799  1.00  0.00     0.028 A 
HETATM   23  C2  UNL     1      24.289   1.798  53.518  1.00  0.00     0.021 A 
HETATM   24  C1  UNL     1      23.143   1.411  52.955  1.00  0.00     0.128 A 
HETATM   25  F1  UNL     1      22.086   0.997  53.678  1.00  0.00    -0.206 F 
HETATM   26  C20 UNL     1      23.165   1.521  51.506  1.00  0.00     0.086 A 
BRANCH  26  27
HETATM   27  C21 UNL     1      21.932   1.107  50.770  1.00  0.00     0.420 C 
HETATM   28  F2  UNL     1      21.588  -0.193  51.155  1.00  0.00    -0.166 F 
HETATM   29  F3  UNL     1      22.130   1.120  49.408  1.00  0.00    -0.166 F 
HETATM   30  F4  UNL     1      20.890   1.924  51.169  1.00  0.00    -0.166 F 
ENDBRANCH  26  27
ENDBRANCH  17  19
ENDBRANCH   1  17
TORSDOF 3
ENDMDL
MODEL 8
REMARK VINA RESULT:      -8.4      4.543      8.290
REMARK  3 active torsions:
REMARK  status: ('A' for Active; 'I' for Inactive)
REMARK    1  A    between atoms: C5_6  and  N1_7 
REMARK    2  A    between atoms: N1_7  and  C6_8 
REMARK    3  A    between atoms: C20_25  and  C21_26 
ROOT
HETATM    1  C6  UNL     1      23.497   4.546  51.990  1.00  0.00     0.138 A 
HETATM    2  N2  UNL     1      22.257   4.634  52.484  1.00  0.00    -0.224 NA
HETATM    3  C7  UNL     1      21.350   5.261  51.677  1.00  0.00     0.232 A 
HETATM    4  N3  UNL     1      21.745   5.734  50.479  1.00  0.00    -0.233 NA
HETATM    5  C8  UNL     1      23.071   5.588  50.059  1.00  0.00     0.325 A 
HETATM    6  C9  UNL     1      23.975   5.000  50.787  1.00  0.00     0.074 A 
HETATM    7  C10 UNL     1      24.577   5.468  49.485  1.00  0.00     0.259 A 
HETATM    8  C11 UNL     1      25.844   5.468  49.060  1.00  0.00     0.042 C 
HETATM    9  C12 UNL     1      27.281   5.429  48.668  1.00  0.00     0.012 C 
HETATM   10  C13 UNL     1      27.541   6.789  48.188  1.00  0.00     0.027 C 
HETATM   11  C14 UNL     1      27.783   8.051  47.752  1.00  0.00    -0.027 C 
HETATM   12  C15 UNL     1      26.913   8.909  47.143  1.00  0.00    -0.008 C 
HETATM   13  C16 UNL     1      25.520   8.587  46.880  1.00  0.00    -0.020 C 
HETATM   14  C17 UNL     1      24.870   7.496  47.218  1.00  0.00     0.046 C 
HETATM   15  C18 UNL     1      24.024   6.434  47.478  1.00  0.00     0.287 C 
HETATM   16  N4  UNL     1      23.414   6.124  48.740  1.00  0.00     0.147 N 
ENDROOT
BRANCH   1  17
HETATM   17  N1  UNL     1      24.605   3.920  52.642  1.00  0.00    -0.350 N 
HETATM   18  H5  UNL     1      25.427   4.243  53.138  1.00  0.00     0.166 HD
BRANCH  17  19
HETATM   19  C5  UNL     1      24.498   2.516  52.549  1.00  0.00     0.097 C 
HETATM   20  C4  UNL     1      25.331   1.511  52.790  1.00  0.00    -0.038 A 
HETATM   21  C3  UNL     1      24.872   0.113  52.578  1.00  0.00     0.070 A 
HETATM   22  C19 UNL     1      26.678   1.845  53.248  1.00  0.00     0.028 A 
HETATM   23  C2  UNL     1      26.051  -0.777  52.855  1.00  0.00     0.021 A 
HETATM   24  C1  UNL     1      27.297  -0.538  53.268  1.00  0.00     0.128 A 
HETATM   25  F1  UNL     1      28.199  -1.518  53.450  1.00  0.00    -0.206 F 
HETATM   26  C20 UNL     1      27.561   0.879  53.458  1.00  0.00     0.086 A 
BRANCH  26  27
HETATM   27  C21 UNL     1      28.927   1.263  53.926  1.00  0.00     0.420 C 
HETATM   28  F2  UNL     1      29.044   2.658  53.891  1.00  0.00    -0.166 F 
HETATM   29  F3  UNL     1      29.905   0.724  53.123  1.00  0.00    -0.166 F 
HETATM   30  F4  UNL     1      29.056   0.892  55.252  1.00  0.00    -0.166 F 
ENDBRANCH  26  27
ENDBRANCH  17  19
ENDBRANCH   1  17
TORSDOF 3
ENDMDL
MODEL 9
REMARK VINA RESULT:      -8.2      3.173      5.608
REMARK  3 active torsions:
REMARK  status: ('A' for Active; 'I' for Inactive)
REMARK    1  A    between atoms: C5_6  and  N1_7 
REMARK    2  A    between atoms: N1_7  and  C6_8 
REMARK    3  A    between atoms: C20_25  and  C21_26 
ROOT
HETATM    1  C6  UNL     1      18.228   0.356  51.343  1.00  0.00     0.138 A 
HETATM    2  N2  UNL     1      17.185  -0.478  51.422  1.00  0.00    -0.224 NA
HETATM    3  C7  UNL     1      17.238  -1.385  52.441  1.00  0.00     0.232 A 
HETATM    4  N3  UNL     1      18.297  -1.385  53.273  1.00  0.00    -0.233 NA
HETATM    5  C8  UNL     1      19.337  -0.466  53.101  1.00  0.00     0.325 A 
HETATM    6  C9  UNL     1      19.338   0.419  52.147  1.00  0.00     0.074 A 
HETATM    7  C10 UNL     1      20.586   0.553  52.983  1.00  0.00     0.259 A 
HETATM    8  C11 UNL     1      21.667   1.321  52.819  1.00  0.00     0.042 C 
HETATM    9  C12 UNL     1      22.835   2.210  52.558  1.00  0.00     0.012 C 
HETATM   10  C13 UNL     1      23.984   1.310  52.682  1.00  0.00     0.027 C 
HETATM   11  C14 UNL     1      25.048   0.474  52.788  1.00  0.00    -0.027 C 
HETATM   12  C15 UNL     1      25.172  -0.629  53.582  1.00  0.00    -0.008 C 
HETATM   13  C16 UNL     1      24.116  -1.108  54.461  1.00  0.00    -0.020 C 
HETATM   14  C17 UNL     1      22.901  -0.627  54.593  1.00  0.00     0.046 C 
HETATM   15  C18 UNL     1      21.596  -0.267  54.874  1.00  0.00     0.287 C 
HETATM   16  N4  UNL     1      20.447  -0.530  54.053  1.00  0.00     0.147 N 
ENDROOT
BRANCH   1  17
HETATM   17  N1  UNL     1      18.384   1.397  50.375  1.00  0.00    -0.350 N 
HETATM   18  H5  UNL     1      17.868   2.231  50.123  1.00  0.00     0.166 HD
BRANCH  17  19
HETATM   19  C5  UNL     1      19.539   1.173  49.597  1.00  0.00     0.097 C 
HETATM   20  C4  UNL     1      20.614   1.900  49.313  1.00  0.00    -0.038 A 
HETATM   21  C3  UNL     1      21.669   1.332  48.433  1.00  0.00     0.070 A 
HETATM   22  C19 UNL     1      20.692   3.242  49.886  1.00  0.00     0.028 A 
HETATM   23  C2  UNL     1      22.698   2.412  48.240  1.00  0.00     0.021 A 
HETATM   24  C1  UNL     1      22.825   3.648  48.725  1.00  0.00     0.128 A 
HETATM   25  F1  UNL     1      23.856   4.449  48.404  1.00  0.00    -0.206 F 
HETATM   26  C20 UNL     1      21.722   4.023  49.595  1.00  0.00     0.086 A 
BRANCH  26  27
HETATM   27  C21 UNL     1      21.763   5.389  50.201  1.00  0.00     0.420 C 
HETATM   28  F2  UNL     1      21.762   6.341  49.175  1.00  0.00    -0.166 F 
HETATM   29  F3  UNL     1      22.897   5.569  50.959  1.00  0.00    -0.166 F 
HETATM   30  F4  UNL     1      20.599   5.583  50.920  1.00  0.00    -0.166 F 
ENDBRANCH  26  27
ENDBRANCH  17  19
ENDBRANCH   1  17
TORSDOF 3
ENDMDL
