MODEL 1
REMARK VINA RESULT:      -8.6      0.000      0.000
REMARK  3 active torsions:
REMARK  status: ('A' for Active; 'I' for Inactive)
REMARK    1  A    between atoms: C7_10  and  N3_11 
REMARK    2  A    between atoms: N3_11  and  C8_12 
REMARK    3  A    between atoms: C8_12  and  C9_13 
ROOT
HETATM    1  C1  UNL     1      17.010  -0.489  50.108  1.00  0.00     0.048 C 
HETATM    2  C2  UNL     1      18.089  -0.091  51.048  1.00  0.00    -0.063 A 
HETATM    3  C3  UNL     1      18.209  -0.266  52.353  1.00  0.00     0.016 A 
HETATM    4  C4  UNL     1      19.468   0.299  52.902  1.00  0.00     0.185 A 
HETATM    5  O1  UNL     1      20.206  -0.761  53.479  1.00  0.00    -0.319 OA
HETATM    6  C5  UNL     1      21.552  -0.738  53.827  1.00  0.00     0.197 A 
HETATM    7  N1  UNL     1      21.834  -1.497  54.924  1.00  0.00    -0.216 NA
HETATM    8  C6  UNL     1      23.122  -1.561  55.372  1.00  0.00     0.238 A 
HETATM    9  N2  UNL     1      24.097  -0.887  54.745  1.00  0.00    -0.222 NA
HETATM   10  C7  UNL     1      23.905  -0.121  53.664  1.00  0.00     0.156 A 
HETATM   11  C15 UNL     1      22.608  -0.063  53.218  1.00  0.00     0.128 A 
HETATM   12  N4  UNL     1      22.517   0.753  52.070  1.00  0.00    -0.379 N 
HETATM   13  C16 UNL     1      21.428   1.576  51.575  1.00  0.00     0.157 C 
HETATM   14  C17 UNL     1      20.121   0.864  51.695  1.00  0.00    -0.029 A 
HETATM   15  C18 UNL     1      19.287   0.611  50.670  1.00  0.00     0.014 A 
HETATM   16  H15 UNL     1      23.411   0.719  51.506  1.00  0.00     0.160 HD
ENDROOT
BRANCH  10  17
HETATM   17  N3  UNL     1      25.018   0.565  53.107  1.00  0.00    -0.369 N 
HETATM   18  H7  UNL     1      25.296   1.559  53.250  1.00  0.00     0.161 HD
BRANCH  17  19
HETATM   19  C8  UNL     1      25.983  -0.054  52.223  1.00  0.00     0.160 C 
BRANCH  19  20
HETATM   20  C9  UNL     1      27.349  -0.136  52.780  1.00  0.00    -0.041 A 
HETATM   21  C10 UNL     1      28.243   0.791  53.264  1.00  0.00     0.009 A 
HETATM   22  C11 UNL     1      29.469   0.401  53.745  1.00  0.00     0.001 A 
HETATM   23  C12 UNL     1      29.870  -0.915  53.772  1.00  0.00     0.000 A 
HETATM   24  C13 UNL     1      28.997  -1.870  53.293  1.00  0.00     0.001 A 
HETATM   25  C14 UNL     1      27.746  -1.476  52.802  1.00  0.00     0.009 A 
ENDBRANCH  19  20
ENDBRANCH  17  19
ENDBRANCH  10  17
TORSDOF 3
ENDMDL
MODEL 2
REMARK VINA RESULT:      -8.5      3.997      7.517
REMARK  3 active torsions:
REMARK  status: ('A' for Active; 'I' for Inactive)
REMARK    1  A    between atoms: C7_10  and  N3_11 
REMARK    2  A    between atoms: N3_11  and  C8_12 
REMARK    3  A    between atoms: C8_12  and  C9_13 
ROOT
HETATM    1  C1  UNL     1      26.947   7.208  48.136  1.00  0.00     0.048 C 
HETATM    2  C2  UNL     1      26.620   5.846  48.631  1.00  0.00    -0.063 A 
HETATM    3  C3  UNL     1      27.390   4.788  48.830  1.00  0.00     0.016 A 
HETATM    4  C4  UNL     1      26.641   3.613  49.341  1.00  0.00     0.185 A 
HETATM    5  O1  UNL     1      27.177   3.269  50.603  1.00  0.00    -0.319 OA
HETATM    6  C5  UNL     1      26.591   2.442  51.555  1.00  0.00     0.197 A 
HETATM    7  N1  UNL     1      27.500   1.727  52.277  1.00  0.00    -0.216 NA
HETATM    8  C6  UNL     1      27.054   0.875  53.245  1.00  0.00     0.238 A 
HETATM    9  N2  UNL     1      25.741   0.739  53.484  1.00  0.00    -0.222 NA
HETATM   10  C7  UNL     1      24.786   1.403  52.822  1.00  0.00     0.156 A 
HETATM   11  C15 UNL     1      25.241   2.259  51.850  1.00  0.00     0.128 A 
HETATM   12  N4  UNL     1      24.160   2.918  51.227  1.00  0.00    -0.379 N 
HETATM   13  C16 UNL     1      24.011   3.427  49.875  1.00  0.00     0.157 C 
HETATM   14  C17 UNL     1      25.252   4.128  49.427  1.00  0.00    -0.029 A 
HETATM   15  C18 UNL     1      25.304   5.405  49.009  1.00  0.00     0.014 A 
HETATM   16  H15 UNL     1      23.353   3.046  51.899  1.00  0.00     0.160 HD
ENDROOT
BRANCH  10  17
HETATM   17  N3  UNL     1      23.427   1.150  53.151  1.00  0.00    -0.369 N 
HETATM   18  H7  UNL     1      22.654   1.842  53.263  1.00  0.00     0.161 HD
BRANCH  17  19
HETATM   19  C8  UNL     1      22.888  -0.173  53.382  1.00  0.00     0.160 C 
BRANCH  19  20
HETATM   20  C9  UNL     1      21.443  -0.297  53.100  1.00  0.00    -0.041 A 
HETATM   21  C10 UNL     1      20.377  -0.837  53.782  1.00  0.00     0.009 A 
HETATM   22  C11 UNL     1      19.108  -0.786  53.257  1.00  0.00     0.001 A 
HETATM   23  C12 UNL     1      18.831  -0.201  52.042  1.00  0.00     0.000 A 
HETATM   24  C13 UNL     1      19.879   0.349  51.333  1.00  0.00     0.001 A 
HETATM   25  C14 UNL     1      21.173   0.299  51.864  1.00  0.00     0.009 A 
ENDBRANCH  19  20
ENDBRANCH  17  19
ENDBRANCH  10  17
TORSDOF 3
ENDMDL
MODEL 3
REMARK VINA RESULT:      -8.4      3.785      4.960
REMARK  3 active torsions:
REMARK  status: ('A' for Active; 'I' for Inactive)
REMARK    1  A    between atoms: C7_10  and  N3_11 
REMARK    2  A    between atoms: N3_11  and  C8_12 
REMARK    3  A    between atoms: C8_12  and  C9_13 
ROOT
HETATM    1  C1  UNL     1      18.569  -0.905  52.724  1.00  0.00     0.048 C 
HETATM    2  C2  UNL     1      19.879  -0.274  53.030  1.00  0.00    -0.063 A 
HETATM    3  C3  UNL     1      20.850  -0.647  53.847  1.00  0.00     0.016 A 
HETATM    4  C4  UNL     1      22.001   0.290  53.847  1.00  0.00     0.185 A 
HETATM    5  O1  UNL     1      23.145  -0.424  53.420  1.00  0.00    -0.319 OA
HETATM    6  C5  UNL     1      24.348   0.121  52.988  1.00  0.00     0.197 A 
HETATM    7  N1  UNL     1      25.430  -0.643  53.311  1.00  0.00    -0.216 NA
HETATM    8  C6  UNL     1      26.675  -0.219  52.945  1.00  0.00     0.238 A 
HETATM    9  N2  UNL     1      26.834   0.933  52.278  1.00  0.00    -0.222 NA
HETATM   10  C7  UNL     1      25.827   1.741  51.923  1.00  0.00     0.156 A 
HETATM   11  C15 UNL     1      24.578   1.307  52.293  1.00  0.00     0.128 A 
HETATM   12  N4  UNL     1      23.591   2.217  51.859  1.00  0.00    -0.379 N 
HETATM   13  C16 UNL     1      22.296   2.553  52.422  1.00  0.00     0.157 C 
HETATM   14  C17 UNL     1      21.574   1.326  52.873  1.00  0.00    -0.029 A 
HETATM   15  C18 UNL     1      20.356   0.949  52.443  1.00  0.00     0.014 A 
HETATM   16  H15 UNL     1      23.887   2.704  50.967  1.00  0.00     0.160 HD
ENDROOT
BRANCH  10  17
HETATM   17  N3  UNL     1      26.130   2.950  51.241  1.00  0.00    -0.369 N 
HETATM   18  H7  UNL     1      26.187   3.913  51.636  1.00  0.00     0.161 HD
BRANCH  17  19
HETATM   19  C8  UNL     1      26.431   3.022  49.827  1.00  0.00     0.160 C 
BRANCH  19  20
HETATM   20  C9  UNL     1      26.372   4.386  49.263  1.00  0.00    -0.041 A 
HETATM   21  C10 UNL     1      25.374   5.323  49.128  1.00  0.00     0.009 A 
HETATM   22  C11 UNL     1      25.631   6.547  48.560  1.00  0.00     0.001 A 
HETATM   23  C12 UNL     1      26.879   6.904  48.102  1.00  0.00     0.000 A 
HETATM   24  C13 UNL     1      27.901   5.986  48.222  1.00  0.00     0.001 A 
HETATM   25  C14 UNL     1      27.643   4.738  48.800  1.00  0.00     0.009 A 
ENDBRANCH  19  20
ENDBRANCH  17  19
ENDBRANCH  10  17
TORSDOF 3
ENDMDL
MODEL 4
REMARK VINA RESULT:      -8.2      2.650      7.942
REMARK  3 active torsions:
REMARK  status: ('A' for Active; 'I' for Inactive)
REMARK    1  A    between atoms: C7_10  and  N3_11 
REMARK    2  A    between atoms: N3_11  and  C8_12 
REMARK    3  A    between atoms: C8_12  and  C9_13 
ROOT
HETATM    1  C1  UNL     1      30.114  -1.155  53.906  1.00  0.00     0.048 C 
HETATM    2  C2  UNL     1      29.008  -0.187  53.688  1.00  0.00    -0.063 A 
HETATM    3  C3  UNL     1      29.031   1.106  53.407  1.00  0.00     0.016 A 
HETATM    4  C4  UNL     1      27.675   1.694  53.271  1.00  0.00     0.185 A 
HETATM    5  O1  UNL     1      27.552   2.206  51.958  1.00  0.00    -0.319 OA
HETATM    6  C5  UNL     1      26.372   2.561  51.315  1.00  0.00     0.197 A 
HETATM    7  N1  UNL     1      26.524   3.610  50.457  1.00  0.00    -0.216 NA
HETATM    8  C6  UNL     1      25.439   4.059  49.761  1.00  0.00     0.238 A 
HETATM    9  N2  UNL     1      24.239   3.480  49.918  1.00  0.00    -0.222 NA
HETATM   10  C7  UNL     1      24.006   2.448  50.739  1.00  0.00     0.156 A 
HETATM   11  C15 UNL     1      25.101   2.001  51.434  1.00  0.00     0.128 A 
HETATM   12  N4  UNL     1      24.753   0.906  52.253  1.00  0.00    -0.379 N 
HETATM   13  C16 UNL     1      25.299   0.459  53.522  1.00  0.00     0.157 C 
HETATM   14  C17 UNL     1      26.791   0.528  53.517  1.00  0.00    -0.029 A 
HETATM   15  C18 UNL     1      27.608  -0.514  53.750  1.00  0.00     0.014 A 
HETATM   16  H15 UNL     1      23.964   0.345  51.825  1.00  0.00     0.160 HD
ENDROOT
BRANCH  10  17
HETATM   17  N3  UNL     1      22.682   1.941  50.836  1.00  0.00    -0.369 N 
HETATM   18  H7  UNL     1      22.211   1.251  50.212  1.00  0.00     0.161 HD
BRANCH  17  19
HETATM   19  C8  UNL     1      21.751   2.320  51.877  1.00  0.00     0.160 C 
BRANCH  19  20
HETATM   20  C9  UNL     1      21.111   1.177  52.563  1.00  0.00    -0.041 A 
HETATM   21  C10 UNL     1      21.446   0.406  53.652  1.00  0.00     0.009 A 
HETATM   22  C11 UNL     1      20.619  -0.606  54.077  1.00  0.00     0.001 A 
HETATM   23  C12 UNL     1      19.429  -0.902  53.453  1.00  0.00     0.000 A 
HETATM   24  C13 UNL     1      19.065  -0.147  52.357  1.00  0.00     0.001 A 
HETATM   25  C14 UNL     1      19.905   0.884  51.921  1.00  0.00     0.009 A 
ENDBRANCH  19  20
ENDBRANCH  17  19
ENDBRANCH  10  17
TORSDOF 3
ENDMDL
MODEL 5
REMARK VINA RESULT:      -8.1      2.084      6.834
REMARK  3 active torsions:
REMARK  status: ('A' for Active; 'I' for Inactive)
REMARK    1  A    between atoms: C7_10  and  N3_11 
REMARK    2  A    between atoms: N3_11  and  C8_12 
REMARK    3  A    between atoms: C8_12  and  C9_13 
ROOT
HETATM    1  C1  UNL     1      29.385   0.417  53.736  1.00  0.00     0.048 C 
HETATM    2  C2  UNL     1      27.983   0.220  53.287  1.00  0.00    -0.063 A 
HETATM    3  C3  UNL     1      27.198  -0.844  53.337  1.00  0.00     0.016 A 
HETATM    4  C4  UNL     1      25.850  -0.599  52.768  1.00  0.00     0.185 A 
HETATM    5  O1  UNL     1      24.898  -0.815  53.792  1.00  0.00    -0.319 OA
HETATM    6  C5  UNL     1      23.568  -0.410  53.785  1.00  0.00     0.197 A 
HETATM    7  N1  UNL     1      22.742  -1.273  54.442  1.00  0.00    -0.216 NA
HETATM    8  C6  UNL     1      21.408  -0.992  54.508  1.00  0.00     0.238 A 
HETATM    9  N2  UNL     1      20.914   0.115  53.935  1.00  0.00    -0.222 NA
HETATM   10  C7  UNL     1      21.655   1.012  53.273  1.00  0.00     0.156 A 
HETATM   11  C15 UNL     1      22.996   0.724  53.211  1.00  0.00     0.128 A 
HETATM   12  N4  UNL     1      23.686   1.735  52.510  1.00  0.00    -0.379 N 
HETATM   13  C16 UNL     1      24.890   1.676  51.701  1.00  0.00     0.157 C 
HETATM   14  C17 UNL     1      25.930   0.823  52.349  1.00  0.00    -0.029 A 
HETATM   15  C18 UNL     1      27.170   1.234  52.670  1.00  0.00     0.014 A 
HETATM   16  H15 UNL     1      23.214   2.674  52.633  1.00  0.00     0.160 HD
ENDROOT
BRANCH  10  17
HETATM   17  N3  UNL     1      21.007   2.133  52.687  1.00  0.00    -0.369 N 
HETATM   18  H7  UNL     1      21.017   3.123  53.013  1.00  0.00     0.161 HD
BRANCH  17  19
HETATM   19  C8  UNL     1      20.207   2.059  51.483  1.00  0.00     0.160 C 
BRANCH  19  20
HETATM   20  C9  UNL     1      20.995   2.021  50.233  1.00  0.00    -0.041 A 
HETATM   21  C10 UNL     1      21.123   1.109  49.210  1.00  0.00     0.009 A 
HETATM   22  C11 UNL     1      21.944   1.366  48.140  1.00  0.00     0.001 A 
HETATM   23  C12 UNL     1      22.673   2.528  48.026  1.00  0.00     0.000 A 
HETATM   24  C13 UNL     1      22.567   3.462  49.035  1.00  0.00     0.001 A 
HETATM   25  C14 UNL     1      21.732   3.204  50.129  1.00  0.00     0.009 A 
ENDBRANCH  19  20
ENDBRANCH  17  19
ENDBRANCH  10  17
TORSDOF 3
ENDMDL
MODEL 6
REMARK VINA RESULT:      -8.0      4.865      6.700
REMARK  3 active torsions:
REMARK  status: ('A' for Active; 'I' for Inactive)
REMARK    1  A    between atoms: C7_10  and  N3_11 
REMARK    2  A    between atoms: N3_11  and  C8_12 
REMARK    3  A    between atoms: C8_12  and  C9_13 
ROOT
HETATM    1  C1  UNL     1      24.242  -1.418  55.610  1.00  0.00     0.048 C 
HETATM    2  C2  UNL     1      24.079  -0.537  54.425  1.00  0.00    -0.063 A 
HETATM    3  C3  UNL     1      22.989  -0.105  53.811  1.00  0.00     0.016 A 
HETATM    4  C4  UNL     1      23.287   0.770  52.649  1.00  0.00     0.185 A 
HETATM    5  O1  UNL     1      22.706   2.035  52.896  1.00  0.00    -0.319 OA
HETATM    6  C5  UNL     1      22.991   3.222  52.229  1.00  0.00     0.197 A 
HETATM    7  N1  UNL     1      21.912   4.048  52.120  1.00  0.00    -0.216 NA
HETATM    8  C6  UNL     1      22.056   5.247  51.484  1.00  0.00     0.238 A 
HETATM    9  N2  UNL     1      23.242   5.609  50.972  1.00  0.00    -0.222 NA
HETATM   10  C7  UNL     1      24.348   4.858  51.036  1.00  0.00     0.156 A 
HETATM   11  C15 UNL     1      24.195   3.654  51.678  1.00  0.00     0.128 A 
HETATM   12  N4  UNL     1      25.419   2.951  51.706  1.00  0.00    -0.379 N 
HETATM   13  C16 UNL     1      25.693   1.526  51.716  1.00  0.00     0.157 C 
HETATM   14  C17 UNL     1      24.770   0.809  52.645  1.00  0.00    -0.029 A 
HETATM   15  C18 UNL     1      25.163   0.045  53.680  1.00  0.00     0.014 A 
HETATM   16  H15 UNL     1      26.241   3.617  51.730  1.00  0.00     0.160 HD
ENDROOT
BRANCH  10  17
HETATM   17  N3  UNL     1      25.538   5.344  50.430  1.00  0.00    -0.369 N 
HETATM   18  H7  UNL     1      26.331   5.847  50.884  1.00  0.00     0.161 HD
BRANCH  17  19
HETATM   19  C8  UNL     1      25.842   5.194  49.023  1.00  0.00     0.160 C 
BRANCH  19  20
HETATM   20  C9  UNL     1      27.024   5.959  48.574  1.00  0.00    -0.041 A 
HETATM   21  C10 UNL     1      27.242   7.277  48.243  1.00  0.00     0.009 A 
HETATM   22  C11 UNL     1      28.491   7.709  47.866  1.00  0.00     0.001 A 
HETATM   23  C12 UNL     1      29.578   6.868  47.800  1.00  0.00     0.000 A 
HETATM   24  C13 UNL     1      29.392   5.541  48.125  1.00  0.00     0.001 A 
HETATM   25  C14 UNL     1      28.122   5.095  48.509  1.00  0.00     0.009 A 
ENDBRANCH  19  20
ENDBRANCH  17  19
ENDBRANCH  10  17
TORSDOF 3
ENDMDL
MODEL 7
REMARK VINA RESULT:      -7.8      9.148     11.335
REMARK  3 active torsions:
REMARK  status: ('A' for Active; 'I' for Inactive)
REMARK    1  A    between atoms: C7_10  and  N3_11 
REMARK    2  A    between atoms: N3_11  and  C8_12 
REMARK    3  A    between atoms: C8_12  and  C9_13 
ROOT
HETATM    1  C1  UNL     1      25.037   4.236  49.770  1.00  0.00     0.048 C 
HETATM    2  C2  UNL     1      26.115   5.046  49.145  1.00  0.00    -0.063 A 
HETATM    3  C3  UNL     1      26.106   6.280  48.669  1.00  0.00     0.016 A 
HETATM    4  C4  UNL     1      27.421   6.702  48.126  1.00  0.00     0.185 A 
HETATM    5  O1  UNL     1      27.859   7.824  48.867  1.00  0.00    -0.319 OA
HETATM    6  C5  UNL     1      29.149   8.342  48.900  1.00  0.00     0.197 A 
HETATM    7  N1  UNL     1      29.179   9.697  49.052  1.00  0.00    -0.216 NA
HETATM    8  C6  UNL     1      30.386  10.332  49.098  1.00  0.00     0.238 A 
HETATM    9  N2  UNL     1      31.528   9.637  48.995  1.00  0.00    -0.222 NA
HETATM   10  C7  UNL     1      31.586   8.308  48.844  1.00  0.00     0.156 A 
HETATM   11  C15 UNL     1      30.369   7.676  48.800  1.00  0.00     0.128 A 
HETATM   12  N4  UNL     1      30.541   6.282  48.657  1.00  0.00    -0.379 N 
HETATM   13  C16 UNL     1      29.703   5.283  48.018  1.00  0.00     0.157 C 
HETATM   14  C17 UNL     1      28.263   5.501  48.349  1.00  0.00    -0.029 A 
HETATM   15  C18 UNL     1      27.463   4.591  48.932  1.00  0.00     0.014 A 
HETATM   16  H15 UNL     1      31.440   5.960  49.113  1.00  0.00     0.160 HD
ENDROOT
BRANCH  10  17
HETATM   17  N3  UNL     1      32.860   7.691  48.720  1.00  0.00    -0.369 N 
HETATM   18  H7  UNL     1      33.509   7.399  49.482  1.00  0.00     0.161 HD
BRANCH  17  19
HETATM   19  C8  UNL     1      33.468   7.352  47.451  1.00  0.00     0.160 C 
BRANCH  19  20
HETATM   20  C9  UNL     1      33.965   5.962  47.370  1.00  0.00    -0.041 A 
HETATM   21  C10 UNL     1      34.342   5.024  48.303  1.00  0.00     0.009 A 
HETATM   22  C11 UNL     1      34.757   3.774  47.914  1.00  0.00     0.001 A 
HETATM   23  C12 UNL     1      34.818   3.390  46.594  1.00  0.00     0.000 A 
HETATM   24  C13 UNL     1      34.448   4.308  45.633  1.00  0.00     0.001 A 
HETATM   25  C14 UNL     1      34.024   5.584  46.025  1.00  0.00     0.009 A 
ENDBRANCH  19  20
ENDBRANCH  17  19
ENDBRANCH  10  17
TORSDOF 3
ENDMDL
MODEL 8
REMARK VINA RESULT:      -7.8      0.824      1.306
REMARK  3 active torsions:
REMARK  status: ('A' for Active; 'I' for Inactive)
REMARK    1  A    between atoms: C7_10  and  N3_11 
REMARK    2  A    between atoms: N3_11  and  C8_12 
REMARK    3  A    between atoms: C8_12  and  C9_13 
ROOT
HETATM    1  C1  UNL     1      17.637   1.132  49.613  1.00  0.00     0.048 C 
HETATM    2  C2  UNL     1      18.694   1.244  50.650  1.00  0.00    -0.063 A 
HETATM    3  C3  UNL     1      18.651   1.044  51.957  1.00  0.00     0.016 A 
HETATM    4  C4  UNL     1      19.958   1.271  52.623  1.00  0.00     0.185 A 
HETATM    5  O1  UNL     1      20.350   0.059  53.237  1.00  0.00    -0.319 OA
HETATM    6  C5  UNL     1      21.622  -0.261  53.700  1.00  0.00     0.197 A 
HETATM    7  N1  UNL     1      21.605  -1.066  54.800  1.00  0.00    -0.216 NA
HETATM    8  C6  UNL     1      22.790  -1.455  55.355  1.00  0.00     0.238 A 
HETATM    9  N2  UNL     1      23.955  -1.051  54.829  1.00  0.00    -0.222 NA
HETATM   10  C7  UNL     1      24.059  -0.262  53.752  1.00  0.00     0.156 A 
HETATM   11  C15 UNL     1      22.864   0.124  53.199  1.00  0.00     0.128 A 
HETATM   12  N4  UNL     1      23.083   0.935  52.065  1.00  0.00    -0.379 N 
HETATM   13  C16 UNL     1      22.287   2.007  51.496  1.00  0.00     0.157 C 
HETATM   14  C17 UNL     1      20.836   1.651  51.489  1.00  0.00    -0.029 A 
HETATM   15  C18 UNL     1      20.059   1.618  50.391  1.00  0.00     0.014 A 
HETATM   16  H15 UNL     1      23.987   0.674  51.579  1.00  0.00     0.160 HD
ENDROOT
BRANCH  10  17
HETATM   17  N3  UNL     1      25.354   0.118  53.308  1.00  0.00    -0.369 N 
HETATM   18  H7  UNL     1      25.903   0.962  53.578  1.00  0.00     0.161 HD
BRANCH  17  19
HETATM   19  C8  UNL     1      26.143  -0.657  52.375  1.00  0.00     0.160 C 
BRANCH  19  20
HETATM   20  C9  UNL     1      27.509  -0.966  52.848  1.00  0.00    -0.041 A 
HETATM   21  C10 UNL     1      28.250  -2.122  52.943  1.00  0.00     0.009 A 
HETATM   22  C11 UNL     1      29.538  -2.093  53.421  1.00  0.00     0.001 A 
HETATM   23  C12 UNL     1      30.153  -0.930  53.825  1.00  0.00     0.000 A 
HETATM   24  C13 UNL     1      29.436   0.245  53.743  1.00  0.00     0.001 A 
HETATM   25  C14 UNL     1      28.124   0.221  53.256  1.00  0.00     0.009 A 
ENDBRANCH  19  20
ENDBRANCH  17  19
ENDBRANCH  10  17
TORSDOF 3
ENDMDL
MODEL 9
REMARK VINA RESULT:      -7.7      4.781      7.911
REMARK  3 active torsions:
REMARK  status: ('A' for Active; 'I' for Inactive)
REMARK    1  A    between atoms: C7_10  and  N3_11 
REMARK    2  A    between atoms: N3_11  and  C8_12 
REMARK    3  A    between atoms: C8_12  and  C9_13 
ROOT
HETATM    1  C1  UNL     1      28.485   7.085  47.311  1.00  0.00     0.048 C 
HETATM    2  C2  UNL     1      27.513   6.491  48.264  1.00  0.00    -0.063 A 
HETATM    3  C3  UNL     1      26.552   7.049  48.982  1.00  0.00     0.016 A 
HETATM    4  C4  UNL     1      25.807   6.071  49.815  1.00  0.00     0.185 A 
HETATM    5  O1  UNL     1      24.452   6.099  49.412  1.00  0.00    -0.319 OA
HETATM    6  C5  UNL     1      23.481   5.147  49.706  1.00  0.00     0.197 A 
HETATM    7  N1  UNL     1      22.235   5.680  49.852  1.00  0.00    -0.216 NA
HETATM    8  C6  UNL     1      21.190   4.852  50.143  1.00  0.00     0.238 A 
HETATM    9  N2  UNL     1      21.383   3.533  50.286  1.00  0.00    -0.222 NA
HETATM   10  C7  UNL     1      22.572   2.931  50.159  1.00  0.00     0.156 A 
HETATM   11  C15 UNL     1      23.618   3.769  49.865  1.00  0.00     0.128 A 
HETATM   12  N4  UNL     1      24.818   3.037  49.736  1.00  0.00    -0.379 N 
HETATM   13  C16 UNL     1      26.194   3.416  49.999  1.00  0.00     0.157 C 
HETATM   14  C17 UNL     1      26.479   4.789  49.486  1.00  0.00    -0.029 A 
HETATM   15  C18 UNL     1      27.442   5.093  48.598  1.00  0.00     0.014 A 
HETATM   16  H15 UNL     1      24.630   2.059  49.378  1.00  0.00     0.160 HD
ENDROOT
BRANCH  10  17
HETATM   17  N3  UNL     1      22.651   1.526  50.361  1.00  0.00    -0.369 N 
HETATM   18  H7  UNL     1      23.426   0.882  50.094  1.00  0.00     0.161 HD
BRANCH  17  19
HETATM   19  C8  UNL     1      21.616   0.749  51.009  1.00  0.00     0.160 C 
BRANCH  19  20
HETATM   20  C9  UNL     1      22.024   0.153  52.298  1.00  0.00    -0.041 A 
HETATM   21  C10 UNL     1      23.237  -0.073  52.907  1.00  0.00     0.009 A 
HETATM   22  C11 UNL     1      23.301  -0.647  54.154  1.00  0.00     0.001 A 
HETATM   23  C12 UNL     1      22.178  -1.021  54.856  1.00  0.00     0.000 A 
HETATM   24  C13 UNL     1      20.947  -0.808  54.273  1.00  0.00     0.001 A 
HETATM   25  C14 UNL     1      20.877  -0.224  53.003  1.00  0.00     0.009 A 
ENDBRANCH  19  20
ENDBRANCH  17  19
ENDBRANCH  10  17
TORSDOF 3
ENDMDL
