MODEL 1
REMARK VINA RESULT:      -8.5      0.000      0.000
REMARK  1 active torsions:
REMARK  status: ('A' for Active; 'I' for Inactive)
REMARK    1  A    between atoms: C4_5  and  C5_6 
ROOT
HETATM    1  O1  UNL     1      21.789  -1.520  55.199  1.00  0.00     0.000 OA
HETATM    2  C1  UNL     1      22.997  -1.269  55.270  1.00  0.00     0.093 A 
HETATM    3  C2  UNL     1      24.020  -0.907  54.422  1.00  0.00    -0.085 C 
HETATM    4  C3  UNL     1      24.846  -0.595  53.722  1.00  0.00    -0.066 C 
HETATM    5  C4  UNL     1      25.847  -0.195  52.853  1.00  0.00     0.015 C 
HETATM    6  C7  UNL     1      24.959   0.676  52.456  1.00  0.00     0.022 C 
HETATM    7  C8  UNL     1      24.062   1.663  51.953  1.00  0.00     0.019 C 
HETATM    8  C9  UNL     1      22.865   1.710  52.485  1.00  0.00     0.090 C 
HETATM    9  N1  UNL     1      21.683   1.503  53.249  1.00  0.00    -0.350 N 
HETATM   10  C10 UNL     1      20.453   0.848  52.830  1.00  0.00     0.138 A 
HETATM   11  N2  UNL     1      19.971   1.786  52.015  1.00  0.00    -0.224 NA
HETATM   12  C11 UNL     1      18.816   1.713  51.330  1.00  0.00     0.234 A 
HETATM   13  N3  UNL     1      18.066   0.588  51.474  1.00  0.00    -0.253 NA
HETATM   14  C12 UNL     1      18.567  -0.349  52.300  1.00  0.00     0.130 A 
HETATM   15  C13 UNL     1      19.739  -0.319  53.020  1.00  0.00     0.025 A 
HETATM   16  C14 UNL     1      19.913  -1.582  53.827  1.00  0.00     0.186 C 
HETATM   17  N4  UNL     1      21.159  -1.482  54.583  1.00  0.00    -0.316 N 
HETATM   18  C15 UNL     1      22.277  -1.219  53.943  1.00  0.00     0.152 A 
HETATM   19  H6  UNL     1      21.573   1.818  54.233  1.00  0.00     0.166 HD
ENDROOT
BRANCH   5  20
HETATM   20  C5  UNL     1      27.165  -0.738  52.729  1.00  0.00     0.011 C 
HETATM   21  C6  UNL     1      27.926  -0.328  53.726  1.00  0.00     0.208 C 
HETATM   22 BR1  UNL     1      29.648  -1.107  53.460  1.00  0.00    -0.193 Br
ENDBRANCH   5  20
TORSDOF 1
ENDMDL
MODEL 2
REMARK VINA RESULT:      -7.6      1.221      1.363
REMARK  1 active torsions:
REMARK  status: ('A' for Active; 'I' for Inactive)
REMARK    1  A    between atoms: C4_5  and  C5_6 
ROOT
HETATM    1  O1  UNL     1      20.574  -0.690  54.326  1.00  0.00     0.000 OA
HETATM    2  C1  UNL     1      21.759  -0.582  54.659  1.00  0.00     0.093 A 
HETATM    3  C2  UNL     1      22.983  -0.416  54.051  1.00  0.00    -0.085 C 
HETATM    4  C3  UNL     1      23.978  -0.263  53.544  1.00  0.00    -0.066 C 
HETATM    5  C4  UNL     1      25.190  -0.056  52.907  1.00  0.00     0.015 C 
HETATM    6  C7  UNL     1      24.538   0.881  52.275  1.00  0.00     0.022 C 
HETATM    7  C8  UNL     1      23.916   1.927  51.531  1.00  0.00     0.019 C 
HETATM    8  C9  UNL     1      22.649   2.161  51.773  1.00  0.00     0.090 C 
HETATM    9  N1  UNL     1      21.311   2.159  52.256  1.00  0.00    -0.350 N 
HETATM   10  C10 UNL     1      20.126   1.627  51.600  1.00  0.00     0.138 A 
HETATM   11  N2  UNL     1      19.967   2.549  50.651  1.00  0.00    -0.224 NA
HETATM   12  C11 UNL     1      18.993   2.563  49.725  1.00  0.00     0.234 A 
HETATM   13  N3  UNL     1      18.084   1.552  49.749  1.00  0.00    -0.253 NA
HETATM   14  C12 UNL     1      18.259   0.629  50.713  1.00  0.00     0.130 A 
HETATM   15  C13 UNL     1      19.237   0.574  51.680  1.00  0.00     0.025 A 
HETATM   16  C14 UNL     1      19.055  -0.633  52.567  1.00  0.00     0.186 C 
HETATM   17  N4  UNL     1      20.106  -0.625  53.583  1.00  0.00    -0.316 N 
HETATM   18  C15 UNL     1      21.363  -0.551  53.202  1.00  0.00     0.152 A 
HETATM   19  H6  UNL     1      21.031   2.562  53.172  1.00  0.00     0.166 HD
ENDROOT
BRANCH   5  20
HETATM   20  C5  UNL     1      26.416  -0.763  53.115  1.00  0.00     0.011 C 
HETATM   21  C6  UNL     1      27.428   0.081  53.181  1.00  0.00     0.208 C 
HETATM   22 BR1  UNL     1      29.000  -0.964  53.458  1.00  0.00    -0.193 Br
ENDBRANCH   5  20
TORSDOF 1
ENDMDL
MODEL 3
REMARK VINA RESULT:      -7.6      5.227      7.621
REMARK  1 active torsions:
REMARK  status: ('A' for Active; 'I' for Inactive)
REMARK    1  A    between atoms: C4_5  and  C5_6 
ROOT
HETATM    1  O1  UNL     1      23.069   1.419  50.872  1.00  0.00     0.000 OA
HETATM    2  C1  UNL     1      22.874   2.066  49.837  1.00  0.00     0.093 A 
HETATM    3  C2  UNL     1      23.185   3.309  49.332  1.00  0.00    -0.085 C 
HETATM    4  C3  UNL     1      23.460   4.322  48.922  1.00  0.00    -0.066 C 
HETATM    5  C4  UNL     1      23.820   5.564  48.425  1.00  0.00     0.015 C 
HETATM    6  C7  UNL     1      25.010   5.229  48.844  1.00  0.00     0.022 C 
HETATM    7  C8  UNL     1      26.345   4.958  49.265  1.00  0.00     0.019 C 
HETATM    8  C9  UNL     1      26.564   3.807  49.853  1.00  0.00     0.090 C 
HETATM    9  N1  UNL     1      26.470   2.515  50.440  1.00  0.00    -0.350 N 
HETATM   10  C10 UNL     1      26.455   2.176  51.855  1.00  0.00     0.138 A 
HETATM   11  N2  UNL     1      27.734   2.407  52.150  1.00  0.00    -0.224 NA
HETATM   12  C11 UNL     1      28.302   2.252  53.359  1.00  0.00     0.234 A 
HETATM   13  N3  UNL     1      27.510   1.822  54.378  1.00  0.00    -0.253 NA
HETATM   14  C12 UNL     1      26.222   1.593  54.063  1.00  0.00     0.130 A 
HETATM   15  C13 UNL     1      25.599   1.736  52.845  1.00  0.00     0.025 A 
HETATM   16  C14 UNL     1      24.139   1.363  52.935  1.00  0.00     0.186 C 
HETATM   17  N4  UNL     1      23.538   1.515  51.611  1.00  0.00    -0.316 N 
HETATM   18  C15 UNL     1      23.655   2.664  50.984  1.00  0.00     0.152 A 
HETATM   19  H6  UNL     1      26.402   1.637  49.888  1.00  0.00     0.166 HD
ENDROOT
BRANCH   5  20
HETATM   20  C5  UNL     1      22.976   6.528  47.789  1.00  0.00     0.011 C 
HETATM   21  C6  UNL     1      22.397   6.003  46.727  1.00  0.00     0.208 C 
HETATM   22 BR1  UNL     1      21.304   7.368  45.964  1.00  0.00    -0.193 Br
ENDBRANCH   5  20
TORSDOF 1
ENDMDL
MODEL 4
REMARK VINA RESULT:      -7.5      4.042      6.762
REMARK  1 active torsions:
REMARK  status: ('A' for Active; 'I' for Inactive)
REMARK    1  A    between atoms: C4_5  and  C5_6 
ROOT
HETATM    1  O1  UNL     1      23.672  -0.871  53.345  1.00  0.00     0.000 OA
HETATM    2  C1  UNL     1      22.771  -0.350  52.679  1.00  0.00     0.093 A 
HETATM    3  C2  UNL     1      22.311   0.915  52.391  1.00  0.00    -0.085 C 
HETATM    4  C3  UNL     1      21.953   1.956  52.148  1.00  0.00    -0.066 C 
HETATM    5  C4  UNL     1      21.536   3.242  51.846  1.00  0.00     0.015 C 
HETATM    6  C7  UNL     1      22.804   3.447  51.615  1.00  0.00     0.022 C 
HETATM    7  C8  UNL     1      24.164   3.773  51.338  1.00  0.00     0.019 C 
HETATM    8  C9  UNL     1      25.050   2.818  51.489  1.00  0.00     0.090 C 
HETATM    9  N1  UNL     1      25.740   1.600  51.743  1.00  0.00    -0.350 N 
HETATM   10  C10 UNL     1      26.549   1.257  52.902  1.00  0.00     0.138 A 
HETATM   11  N2  UNL     1      27.618   2.014  52.656  1.00  0.00    -0.224 NA
HETATM   12  C11 UNL     1      28.718   2.094  53.425  1.00  0.00     0.234 A 
HETATM   13  N3  UNL     1      28.753   1.341  54.557  1.00  0.00    -0.253 NA
HETATM   14  C12 UNL     1      27.666   0.583  54.791  1.00  0.00     0.130 A 
HETATM   15  C13 UNL     1      26.522   0.468  54.035  1.00  0.00     0.025 A 
HETATM   16  C14 UNL     1      25.552  -0.503  54.663  1.00  0.00     0.186 C 
HETATM   17  N4  UNL     1      24.371  -0.598  53.807  1.00  0.00    -0.316 N 
HETATM   18  C15 UNL     1      23.731   0.502  53.476  1.00  0.00     0.152 A 
HETATM   19  H6  UNL     1      25.737   0.792  51.089  1.00  0.00     0.166 HD
ENDROOT
BRANCH   5  20
HETATM   20  C5  UNL     1      20.202   3.758  51.882  1.00  0.00     0.011 C 
HETATM   21  C6  UNL     1      19.373   2.936  51.268  1.00  0.00     0.208 C 
HETATM   22 BR1  UNL     1      17.638   3.720  51.376  1.00  0.00    -0.193 Br
ENDBRANCH   5  20
TORSDOF 1
ENDMDL
MODEL 5
REMARK VINA RESULT:      -7.3      3.866      6.929
REMARK  1 active torsions:
REMARK  status: ('A' for Active; 'I' for Inactive)
REMARK    1  A    between atoms: C4_5  and  C5_6 
ROOT
HETATM    1  O1  UNL     1      22.584   3.067  51.960  1.00  0.00     0.000 OA
HETATM    2  C1  UNL     1      21.428   2.820  52.322  1.00  0.00     0.093 A 
HETATM    3  C2  UNL     1      20.609   1.721  52.454  1.00  0.00    -0.085 C 
HETATM    4  C3  UNL     1      19.952   0.812  52.574  1.00  0.00    -0.066 C 
HETATM    5  C4  UNL     1      19.164  -0.315  52.733  1.00  0.00     0.015 C 
HETATM    6  C7  UNL     1      20.218  -0.794  53.335  1.00  0.00     0.022 C 
HETATM    7  C8  UNL     1      21.315  -1.409  54.007  1.00  0.00     0.019 C 
HETATM    8  C9  UNL     1      22.411  -0.701  54.134  1.00  0.00     0.090 C 
HETATM    9  N1  UNL     1      23.421   0.300  54.103  1.00  0.00    -0.350 N 
HETATM   10  C10 UNL     1      24.592   0.361  53.243  1.00  0.00     0.138 A 
HETATM   11  N2  UNL     1      25.323  -0.606  53.797  1.00  0.00    -0.224 NA
HETATM   12  C11 UNL     1      26.546  -0.995  53.395  1.00  0.00     0.234 A 
HETATM   13  N3  UNL     1      27.094  -0.353  52.330  1.00  0.00    -0.253 NA
HETATM   14  C12 UNL     1      26.343   0.620  51.781  1.00  0.00     0.130 A 
HETATM   15  C13 UNL     1      25.092   1.052  52.157  1.00  0.00     0.025 A 
HETATM   16  C14 UNL     1      24.617   2.177  51.270  1.00  0.00     0.186 C 
HETATM   17  N4  UNL     1      23.298   2.606  51.730  1.00  0.00    -0.316 N 
HETATM   18  C15 UNL     1      22.340   1.712  51.849  1.00  0.00     0.152 A 
HETATM   19  H6  UNL     1      23.424   1.130  54.728  1.00  0.00     0.166 HD
ENDROOT
BRANCH   5  20
HETATM   20  C5  UNL     1      17.816  -0.506  52.294  1.00  0.00     0.011 C 
HETATM   21  C6  UNL     1      17.276  -1.544  52.904  1.00  0.00     0.208 C 
HETATM   22 BR1  UNL     1      15.492  -1.704  52.247  1.00  0.00    -0.193 Br
ENDBRANCH   5  20
TORSDOF 1
ENDMDL
MODEL 6
REMARK VINA RESULT:      -7.1      4.714      6.494
REMARK  1 active torsions:
REMARK  status: ('A' for Active; 'I' for Inactive)
REMARK    1  A    between atoms: C4_5  and  C5_6 
ROOT
HETATM    1  O1  UNL     1      26.384   5.355  48.918  1.00  0.00     0.000 OA
HETATM    2  C1  UNL     1      26.757   4.195  49.122  1.00  0.00     0.093 A 
HETATM    3  C2  UNL     1      26.562   3.207  50.062  1.00  0.00    -0.085 C 
HETATM    4  C3  UNL     1      26.383   2.400  50.828  1.00  0.00    -0.066 C 
HETATM    5  C4  UNL     1      26.138   1.413  51.768  1.00  0.00     0.015 C 
HETATM    6  C7  UNL     1      24.889   1.738  51.577  1.00  0.00     0.022 C 
HETATM    7  C8  UNL     1      23.497   2.019  51.442  1.00  0.00     0.019 C 
HETATM    8  C9  UNL     1      23.158   2.965  50.600  1.00  0.00     0.090 C 
HETATM    9  N1  UNL     1      23.124   4.013  49.639  1.00  0.00    -0.350 N 
HETATM   10  C10 UNL     1      22.908   5.432  49.872  1.00  0.00     0.138 A 
HETATM   11  N2  UNL     1      21.606   5.413  50.154  1.00  0.00    -0.224 NA
HETATM   12  C11 UNL     1      20.851   6.484  50.457  1.00  0.00     0.234 A 
HETATM   13  N3  UNL     1      21.461   7.699  50.481  1.00  0.00    -0.253 NA
HETATM   14  C12 UNL     1      22.776   7.701  50.195  1.00  0.00     0.130 A 
HETATM   15  C13 UNL     1      23.587   6.635  49.880  1.00  0.00     0.025 A 
HETATM   16  C14 UNL     1      25.003   7.087  49.623  1.00  0.00     0.186 C 
HETATM   17  N4  UNL     1      25.808   5.918  49.274  1.00  0.00    -0.316 N 
HETATM   18  C15 UNL     1      25.823   4.885  50.088  1.00  0.00     0.152 A 
HETATM   19  H6  UNL     1      23.255   3.860  48.619  1.00  0.00     0.166 HD
ENDROOT
BRANCH   5  20
HETATM   20  C5  UNL     1      27.098   0.593  52.442  1.00  0.00     0.011 C 
HETATM   21  C6  UNL     1      27.943   1.340  53.125  1.00  0.00     0.208 C 
HETATM   22 BR1  UNL     1      29.167   0.150  53.976  1.00  0.00    -0.193 Br
ENDBRANCH   5  20
TORSDOF 1
ENDMDL
MODEL 7
REMARK VINA RESULT:      -7.1      2.915      3.736
REMARK  1 active torsions:
REMARK  status: ('A' for Active; 'I' for Inactive)
REMARK    1  A    between atoms: C4_5  and  C5_6 
ROOT
HETATM    1  O1  UNL     1      21.811   1.185  52.460  1.00  0.00     0.000 OA
HETATM    2  C1  UNL     1      22.876   1.041  53.069  1.00  0.00     0.093 A 
HETATM    3  C2  UNL     1      24.211   0.877  52.775  1.00  0.00    -0.085 C 
HETATM    4  C3  UNL     1      25.303   0.761  52.522  1.00  0.00    -0.066 C 
HETATM    5  C4  UNL     1      26.643   0.636  52.197  1.00  0.00     0.015 C 
HETATM    6  C7  UNL     1      26.402   1.651  51.412  1.00  0.00     0.022 C 
HETATM    7  C8  UNL     1      26.241   2.755  50.525  1.00  0.00     0.019 C 
HETATM    8  C9  UNL     1      25.047   3.291  50.448  1.00  0.00     0.090 C 
HETATM    9  N1  UNL     1      23.673   3.632  50.590  1.00  0.00    -0.350 N 
HETATM   10  C10 UNL     1      22.581   3.341  49.674  1.00  0.00     0.138 A 
HETATM   11  N2  UNL     1      22.874   4.204  48.702  1.00  0.00    -0.224 NA
HETATM   12  C11 UNL     1      22.175   4.375  47.566  1.00  0.00     0.234 A 
HETATM   13  N3  UNL     1      21.070   3.605  47.383  1.00  0.00    -0.253 NA
HETATM   14  C12 UNL     1      20.788   2.739  48.374  1.00  0.00     0.130 A 
HETATM   15  C13 UNL     1      21.471   2.530  49.550  1.00  0.00     0.025 A 
HETATM   16  C14 UNL     1      20.803   1.464  50.383  1.00  0.00     0.186 C 
HETATM   17  N4  UNL     1      21.559   1.302  51.623  1.00  0.00    -0.316 N 
HETATM   18  C15 UNL     1      22.849   1.058  51.559  1.00  0.00     0.152 A 
HETATM   19  H6  UNL     1      23.293   4.153  51.405  1.00  0.00     0.166 HD
ENDROOT
BRANCH   5  20
HETATM   20  C5  UNL     1      27.581  -0.317  52.707  1.00  0.00     0.011 C 
HETATM   21  C6  UNL     1      28.621   0.299  53.235  1.00  0.00     0.208 C 
HETATM   22 BR1  UNL     1      29.797  -1.060  53.878  1.00  0.00    -0.193 Br
ENDBRANCH   5  20
TORSDOF 1
ENDMDL
MODEL 8
REMARK VINA RESULT:      -6.9      4.257      7.121
REMARK  1 active torsions:
REMARK  status: ('A' for Active; 'I' for Inactive)
REMARK    1  A    between atoms: C4_5  and  C5_6 
ROOT
HETATM    1  O1  UNL     1      21.525   4.750  51.370  1.00  0.00     0.000 OA
HETATM    2  C1  UNL     1      20.593   4.089  51.840  1.00  0.00     0.093 A 
HETATM    3  C2  UNL     1      20.211   2.768  51.917  1.00  0.00    -0.085 C 
HETATM    4  C3  UNL     1      19.916   1.683  51.989  1.00  0.00    -0.066 C 
HETATM    5  C4  UNL     1      19.577   0.343  52.085  1.00  0.00     0.015 C 
HETATM    6  C7  UNL     1      20.816   0.202  52.468  1.00  0.00     0.022 C 
HETATM    7  C8  UNL     1      22.151  -0.058  52.895  1.00  0.00     0.019 C 
HETATM    8  C9  UNL     1      22.963   0.968  52.978  1.00  0.00     0.090 C 
HETATM    9  N1  UNL     1      23.571   2.254  52.961  1.00  0.00    -0.350 N 
HETATM   10  C10 UNL     1      24.493   2.793  51.973  1.00  0.00     0.138 A 
HETATM   11  N2  UNL     1      25.582   2.089  52.281  1.00  0.00    -0.224 NA
HETATM   12  C11 UNL     1      26.776   2.182  51.671  1.00  0.00     0.234 A 
HETATM   13  N3  UNL     1      26.894   3.069  50.646  1.00  0.00    -0.253 NA
HETATM   14  C12 UNL     1      25.786   3.771  50.348  1.00  0.00     0.130 A 
HETATM   15  C13 UNL     1      24.546   3.711  50.943  1.00  0.00     0.025 A 
HETATM   16  C14 UNL     1      23.587   4.680  50.298  1.00  0.00     0.186 C 
HETATM   17  N4  UNL     1      22.300   4.586  50.984  1.00  0.00    -0.316 N 
HETATM   18  C15 UNL     1      21.720   3.411  51.097  1.00  0.00     0.152 A 
HETATM   19  H6  UNL     1      23.412   2.973  53.694  1.00  0.00     0.166 HD
ENDROOT
BRANCH   5  20
HETATM   20  C5  UNL     1      18.309  -0.258  51.803  1.00  0.00     0.011 C 
HETATM   21  C6  UNL     1      17.877  -0.932  52.852  1.00  0.00     0.208 C 
HETATM   22 BR1  UNL     1      16.193  -1.686  52.366  1.00  0.00    -0.193 Br
ENDBRANCH   5  20
TORSDOF 1
ENDMDL
MODEL 9
REMARK VINA RESULT:      -6.9     10.068     11.913
REMARK  1 active torsions:
REMARK  status: ('A' for Active; 'I' for Inactive)
REMARK    1  A    between atoms: C4_5  and  C5_6 
ROOT
HETATM    1  O1  UNL     1      27.317   6.187  48.266  1.00  0.00     0.000 OA
HETATM    2  C1  UNL     1      28.300   5.453  48.414  1.00  0.00     0.093 A 
HETATM    3  C2  UNL     1      29.645   5.471  48.122  1.00  0.00    -0.085 C 
HETATM    4  C3  UNL     1      30.749   5.503  47.893  1.00  0.00    -0.066 C 
HETATM    5  C4  UNL     1      32.105   5.566  47.621  1.00  0.00     0.015 C 
HETATM    6  C7  UNL     1      32.014   6.753  48.157  1.00  0.00     0.022 C 
HETATM    7  C8  UNL     1      32.019   8.062  48.724  1.00  0.00     0.019 C 
HETATM    8  C9  UNL     1      30.877   8.524  49.171  1.00  0.00     0.090 C 
HETATM    9  N1  UNL     1      29.521   8.726  49.550  1.00  0.00    -0.350 N 
HETATM   10  C10 UNL     1      28.516   9.533  48.875  1.00  0.00     0.138 A 
HETATM   11  N2  UNL     1      28.965  10.748  49.185  1.00  0.00    -0.224 NA
HETATM   12  C11 UNL     1      28.403  11.912  48.814  1.00  0.00     0.234 A 
HETATM   13  N3  UNL     1      27.276  11.855  48.055  1.00  0.00    -0.253 NA
HETATM   14  C12 UNL     1      26.836  10.620  47.750  1.00  0.00     0.130 A 
HETATM   15  C13 UNL     1      27.375   9.406  48.107  1.00  0.00     0.025 A 
HETATM   16  C14 UNL     1      26.555   8.265  47.555  1.00  0.00     0.186 C 
HETATM   17  N4  UNL     1      27.163   7.007  47.983  1.00  0.00    -0.316 N 
HETATM   18  C15 UNL     1      28.435   6.791  47.727  1.00  0.00     0.152 A 
HETATM   19  H6  UNL     1      29.090   8.296  50.393  1.00  0.00     0.166 HD
ENDROOT
BRANCH   5  20
HETATM   20  C5  UNL     1      32.920   4.563  47.008  1.00  0.00     0.011 C 
HETATM   21  C6  UNL     1      33.988   5.109  46.460  1.00  0.00     0.208 C 
HETATM   22 BR1  UNL     1      34.993   3.689  45.677  1.00  0.00    -0.193 Br
ENDBRANCH   5  20
TORSDOF 1
ENDMDL
