MODEL 1
REMARK VINA RESULT:      -7.7      0.000      0.000
REMARK  8 active torsions:
REMARK  status: ('A' for Active; 'I' for Inactive)
REMARK    1  A    between atoms: O1_2  and  C2_3 
REMARK    2  A    between atoms: N2_7  and  O2_8 
REMARK    3  A    between atoms: O2_8  and  C5_9 
REMARK    4  A    between atoms: C5_9  and  N3_10 
REMARK    5  A    between atoms: C6_11  and  C7_12 
REMARK    6  A    between atoms: C7_12  and  C8_13 
REMARK    7  A    between atoms: C8_13  and  C9_14 
REMARK    8  A    between atoms: C18_23  and  O3_24 
ROOT
HETATM    1  C2  UNL     1      26.468   0.811  54.383  1.00  0.00     0.080 A 
HETATM    2  C3  UNL     1      26.091   1.927  53.782  1.00  0.00     0.069 A 
HETATM    3  C4  UNL     1      24.791   1.927  53.124  1.00  0.00     0.092 A 
HETATM    4  N1  UNL     1      24.293   2.914  52.509  1.00  0.00    -0.145 NA
HETATM    5  N2  UNL     1      23.040   2.870  51.891  1.00  0.00    -0.140 N 
HETATM    6  C6  UNL     1      22.174   1.701  51.884  1.00  0.00     0.062 A 
HETATM    7  C15 UNL     1      22.710   0.708  52.521  1.00  0.00     0.043 A 
HETATM    8  C16 UNL     1      24.007   0.704  53.178  1.00  0.00    -0.004 A 
HETATM    9  C17 UNL     1      24.434  -0.370  53.790  1.00  0.00     0.025 A 
HETATM   10  C18 UNL     1      25.732  -0.472  54.483  1.00  0.00     0.198 A 
ENDROOT
BRANCH   6  11
HETATM   11  C7  UNL     1      20.957   1.970  51.166  1.00  0.00     0.066 C 
BRANCH  11  12
HETATM   12  C8  UNL     1      20.150   0.908  50.570  1.00  0.00     0.044 C 
BRANCH  12  13
HETATM   13  C9  UNL     1      19.153   0.208  51.357  1.00  0.00    -0.058 A 
HETATM   14  C10 UNL     1      19.138  -0.392  52.597  1.00  0.00     0.007 A 
HETATM   15  C11 UNL     1      18.064  -1.041  53.162  1.00  0.00     0.001 A 
HETATM   16  C12 UNL     1      16.876  -1.125  52.467  1.00  0.00     0.000 A 
HETATM   17  C13 UNL     1      16.808  -0.549  51.217  1.00  0.00     0.001 A 
HETATM   18  C14 UNL     1      17.914   0.087  50.703  1.00  0.00     0.007 A 
ENDBRANCH  12  13
ENDBRANCH  11  12
ENDBRANCH   6  11
BRANCH   5  19
HETATM   19  O2  UNL     1      22.755   4.079  51.302  1.00  0.00    -0.237 OA
BRANCH  19  20
HETATM   20  C5  UNL     1      22.735   4.994  52.351  1.00  0.00     0.319 C 
BRANCH  20  21
HETATM   21  N3  UNL     1      23.887   5.875  52.322  1.00  0.00    -0.409 N 
HETATM   22  H7  UNL     1      24.589   5.654  53.034  1.00  0.00     0.152 HD
HETATM   23  H8  UNL     1      24.230   6.083  51.369  1.00  0.00     0.152 HD
ENDBRANCH  20  21
ENDBRANCH  19  20
ENDBRANCH   5  19
BRANCH  10  24
HETATM   24  O3  UNL     1      25.614  -0.917  55.796  1.00  0.00    -0.385 OA
HETATM   25  H21 UNL     1      26.255  -0.413  56.355  1.00  0.00     0.210 HD
ENDBRANCH  10  24
BRANCH   1  26
HETATM   26  O1  UNL     1      27.695   0.736  55.031  1.00  0.00    -0.357 OA
HETATM   27  C1  UNL     1      28.791   0.005  54.489  1.00  0.00     0.209 C 
ENDBRANCH   1  26
TORSDOF 8
ENDMDL
MODEL 2
REMARK VINA RESULT:      -7.7      3.963      6.930
REMARK  8 active torsions:
REMARK  status: ('A' for Active; 'I' for Inactive)
REMARK    1  A    between atoms: O1_2  and  C2_3 
REMARK    2  A    between atoms: N2_7  and  O2_8 
REMARK    3  A    between atoms: O2_8  and  C5_9 
REMARK    4  A    between atoms: C5_9  and  N3_10 
REMARK    5  A    between atoms: C6_11  and  C7_12 
REMARK    6  A    between atoms: C7_12  and  C8_13 
REMARK    7  A    between atoms: C8_13  and  C9_14 
REMARK    8  A    between atoms: C18_23  and  O3_24 
ROOT
HETATM    1  C2  UNL     1      26.871   6.391  48.761  1.00  0.00     0.080 A 
HETATM    2  C3  UNL     1      25.709   6.419  49.392  1.00  0.00     0.069 A 
HETATM    3  C4  UNL     1      25.226   5.168  49.963  1.00  0.00     0.092 A 
HETATM    4  N1  UNL     1      24.137   5.034  50.593  1.00  0.00    -0.145 NA
HETATM    5  N2  UNL     1      23.711   3.814  51.125  1.00  0.00    -0.140 N 
HETATM    6  C6  UNL     1      24.460   2.571  51.016  1.00  0.00     0.062 A 
HETATM    7  C15 UNL     1      25.570   2.739  50.366  1.00  0.00     0.043 A 
HETATM    8  C16 UNL     1      26.054   3.985  49.796  1.00  0.00    -0.004 A 
HETATM    9  C17 UNL     1      27.197   4.020  49.161  1.00  0.00     0.025 A 
HETATM   10  C18 UNL     1      27.772   5.232  48.549  1.00  0.00     0.198 A 
ENDROOT
BRANCH   6  11
HETATM   11  C7  UNL     1      23.760   1.493  51.661  1.00  0.00     0.066 C 
BRANCH  11  12
HETATM   12  C8  UNL     1      24.135   0.997  52.983  1.00  0.00     0.044 C 
BRANCH  12  13
HETATM   13  C9  UNL     1      25.517   0.682  53.288  1.00  0.00    -0.058 A 
HETATM   14  C10 UNL     1      26.538   1.324  53.954  1.00  0.00     0.007 A 
HETATM   15  C11 UNL     1      27.819   0.847  54.111  1.00  0.00     0.001 A 
HETATM   16  C12 UNL     1      28.162  -0.376  53.575  1.00  0.00     0.000 A 
HETATM   17  C13 UNL     1      27.197  -1.084  52.892  1.00  0.00     0.001 A 
HETATM   18  C14 UNL     1      25.932  -0.557  52.766  1.00  0.00     0.007 A 
ENDBRANCH  12  13
ENDBRANCH  11  12
ENDBRANCH   6  11
BRANCH   5  19
HETATM   19  O2  UNL     1      22.498   3.963  51.754  1.00  0.00    -0.237 OA
BRANCH  19  20
HETATM   20  C5  UNL     1      22.619   5.139  52.490  1.00  0.00     0.319 C 
BRANCH  20  21
HETATM   21  N3  UNL     1      23.695   5.062  53.458  1.00  0.00    -0.409 N 
HETATM   22  H7  UNL     1      24.545   5.553  53.166  1.00  0.00     0.152 HD
HETATM   23  H8  UNL     1      23.388   5.194  54.437  1.00  0.00     0.152 HD
ENDBRANCH  20  21
ENDBRANCH  19  20
ENDBRANCH   5  19
BRANCH  10  24
HETATM   24  O3  UNL     1      29.074   5.487  48.967  1.00  0.00    -0.385 OA
HETATM   25  H21 UNL     1      29.415   6.269  48.466  1.00  0.00     0.210 HD
ENDBRANCH  10  24
BRANCH   1  26
HETATM   26  O1  UNL     1      27.395   7.544  48.192  1.00  0.00    -0.357 OA
HETATM   27  C1  UNL     1      27.365   8.799  48.866  1.00  0.00     0.209 C 
ENDBRANCH   1  26
TORSDOF 8
ENDMDL
MODEL 3
REMARK VINA RESULT:      -7.6      3.915      5.736
REMARK  8 active torsions:
REMARK  status: ('A' for Active; 'I' for Inactive)
REMARK    1  A    between atoms: O1_2  and  C2_3 
REMARK    2  A    between atoms: N2_7  and  O2_8 
REMARK    3  A    between atoms: O2_8  and  C5_9 
REMARK    4  A    between atoms: C5_9  and  N3_10 
REMARK    5  A    between atoms: C6_11  and  C7_12 
REMARK    6  A    between atoms: C7_12  and  C8_13 
REMARK    7  A    between atoms: C8_13  and  C9_14 
REMARK    8  A    between atoms: C18_23  and  O3_24 
ROOT
HETATM    1  C2  UNL     1      27.174   6.769  48.888  1.00  0.00     0.080 A 
HETATM    2  C3  UNL     1      26.063   6.908  49.592  1.00  0.00     0.069 A 
HETATM    3  C4  UNL     1      25.408   5.692  50.057  1.00  0.00     0.092 A 
HETATM    4  N1  UNL     1      24.342   5.661  50.738  1.00  0.00    -0.145 NA
HETATM    5  N2  UNL     1      23.747   4.470  51.164  1.00  0.00    -0.140 N 
HETATM    6  C6  UNL     1      24.276   3.145  50.876  1.00  0.00     0.062 A 
HETATM    7  C15 UNL     1      25.366   3.210  50.178  1.00  0.00     0.043 A 
HETATM    8  C16 UNL     1      26.022   4.420  49.713  1.00  0.00    -0.004 A 
HETATM    9  C17 UNL     1      27.124   4.346  49.013  1.00  0.00     0.025 A 
HETATM   10  C18 UNL     1      27.862   5.515  48.497  1.00  0.00     0.198 A 
ENDROOT
BRANCH   6  11
HETATM   11  C7  UNL     1      23.438   2.125  51.447  1.00  0.00     0.066 C 
BRANCH  11  12
HETATM   12  C8  UNL     1      23.981   1.008  52.217  1.00  0.00     0.044 C 
BRANCH  12  13
HETATM   13  C9  UNL     1      23.116   0.201  53.056  1.00  0.00    -0.058 A 
HETATM   14  C10 UNL     1      23.313  -0.647  54.124  1.00  0.00     0.007 A 
HETATM   15  C11 UNL     1      22.330  -1.353  54.779  1.00  0.00     0.001 A 
HETATM   16  C12 UNL     1      21.019  -1.238  54.369  1.00  0.00     0.000 A 
HETATM   17  C13 UNL     1      20.737  -0.408  53.305  1.00  0.00     0.001 A 
HETATM   18  C14 UNL     1      21.761   0.275  52.690  1.00  0.00     0.007 A 
ENDBRANCH  12  13
ENDBRANCH  11  12
ENDBRANCH   6  11
BRANCH   5  19
HETATM   19  O2  UNL     1      22.605   4.737  51.882  1.00  0.00    -0.237 OA
BRANCH  19  20
HETATM   20  C5  UNL     1      21.812   5.497  51.026  1.00  0.00     0.319 C 
BRANCH  20  21
HETATM   21  N3  UNL     1      21.797   6.896  51.405  1.00  0.00    -0.409 N 
HETATM   22  H7  UNL     1      22.642   7.405  51.129  1.00  0.00     0.152 HD
HETATM   23  H8  UNL     1      20.890   7.365  51.240  1.00  0.00     0.152 HD
ENDBRANCH  20  21
ENDBRANCH  19  20
ENDBRANCH   5  19
BRANCH  10  24
HETATM   24  O3  UNL     1      29.206   5.511  48.855  1.00  0.00    -0.385 OA
HETATM   25  H21 UNL     1      29.271   5.311  49.821  1.00  0.00     0.210 HD
ENDBRANCH  10  24
BRANCH   1  26
HETATM   26  O1  UNL     1      27.854   7.883  48.412  1.00  0.00    -0.357 OA
HETATM   27  C1  UNL     1      28.175   8.988  49.253  1.00  0.00     0.209 C 
ENDBRANCH   1  26
TORSDOF 8
ENDMDL
MODEL 4
REMARK VINA RESULT:      -7.0      2.638      8.051
REMARK  8 active torsions:
REMARK  status: ('A' for Active; 'I' for Inactive)
REMARK    1  A    between atoms: O1_2  and  C2_3 
REMARK    2  A    between atoms: N2_7  and  O2_8 
REMARK    3  A    between atoms: O2_8  and  C5_9 
REMARK    4  A    between atoms: C5_9  and  N3_10 
REMARK    5  A    between atoms: C6_11  and  C7_12 
REMARK    6  A    between atoms: C7_12  and  C8_13 
REMARK    7  A    between atoms: C8_13  and  C9_14 
REMARK    8  A    between atoms: C18_23  and  O3_24 
ROOT
HETATM    1  C2  UNL     1      18.647   1.454  51.782  1.00  0.00     0.080 A 
HETATM    2  C3  UNL     1      19.327   0.449  52.308  1.00  0.00     0.069 A 
HETATM    3  C4  UNL     1      20.753   0.649  52.530  1.00  0.00     0.092 A 
HETATM    4  N1  UNL     1      21.536  -0.215  53.024  1.00  0.00    -0.145 NA
HETATM    5  N2  UNL     1      22.899   0.019  53.220  1.00  0.00    -0.140 N 
HETATM    6  C6  UNL     1      23.570   1.267  52.885  1.00  0.00     0.062 A 
HETATM    7  C15 UNL     1      22.744   2.131  52.383  1.00  0.00     0.043 A 
HETATM    8  C16 UNL     1      21.321   1.934  52.159  1.00  0.00    -0.004 A 
HETATM    9  C17 UNL     1      20.596   2.892  51.643  1.00  0.00     0.025 A 
HETATM   10  C18 UNL     1      19.148   2.789  51.378  1.00  0.00     0.198 A 
ENDROOT
BRANCH   6  11
HETATM   11  C7  UNL     1      24.970   1.196  53.203  1.00  0.00     0.066 C 
BRANCH  11  12
HETATM   12  C8  UNL     1      25.965   0.707  52.250  1.00  0.00     0.044 C 
BRANCH  12  13
HETATM   13  C9  UNL     1      27.189   0.085  52.715  1.00  0.00    -0.058 A 
HETATM   14  C10 UNL     1      27.645  -1.211  52.814  1.00  0.00     0.007 A 
HETATM   15  C11 UNL     1      28.865  -1.596  53.322  1.00  0.00     0.001 A 
HETATM   16  C12 UNL     1      29.742  -0.640  53.787  1.00  0.00     0.000 A 
HETATM   17  C13 UNL     1      29.361   0.683  53.724  1.00  0.00     0.001 A 
HETATM   18  C14 UNL     1      28.130   1.009  53.204  1.00  0.00     0.007 A 
ENDBRANCH  12  13
ENDBRANCH  11  12
ENDBRANCH   6  11
BRANCH   5  19
HETATM   19  O2  UNL     1      23.501  -1.089  53.768  1.00  0.00    -0.237 OA
BRANCH  19  20
HETATM   20  C5  UNL     1      22.872  -1.267  54.998  1.00  0.00     0.319 C 
BRANCH  20  21
HETATM   21  N3  UNL     1      23.812  -1.639  56.036  1.00  0.00    -0.409 N 
HETATM   22  H7  UNL     1      24.260  -0.838  56.490  1.00  0.00     0.152 HD
HETATM   23  H8  UNL     1      23.478  -2.401  56.650  1.00  0.00     0.152 HD
ENDBRANCH  20  21
ENDBRANCH  19  20
ENDBRANCH   5  19
BRANCH  10  24
HETATM   24  O3  UNL     1      18.417   3.827  51.946  1.00  0.00    -0.385 OA
HETATM   25  H21 UNL     1      17.459   3.581  51.927  1.00  0.00     0.210 HD
ENDBRANCH  10  24
BRANCH   1  26
HETATM   26  O1  UNL     1      17.284   1.336  51.541  1.00  0.00    -0.357 OA
HETATM   27  C1  UNL     1      16.758   1.219  50.222  1.00  0.00     0.209 C 
ENDBRANCH   1  26
TORSDOF 8
ENDMDL
MODEL 5
REMARK VINA RESULT:      -7.0      4.782      6.529
REMARK  8 active torsions:
REMARK  status: ('A' for Active; 'I' for Inactive)
REMARK    1  A    between atoms: O1_2  and  C2_3 
REMARK    2  A    between atoms: N2_7  and  O2_8 
REMARK    3  A    between atoms: O2_8  and  C5_9 
REMARK    4  A    between atoms: C5_9  and  N3_10 
REMARK    5  A    between atoms: C6_11  and  C7_12 
REMARK    6  A    between atoms: C7_12  and  C8_13 
REMARK    7  A    between atoms: C8_13  and  C9_14 
REMARK    8  A    between atoms: C18_23  and  O3_24 
ROOT
HETATM    1  C2  UNL     1      28.331   6.908  47.960  1.00  0.00     0.080 A 
HETATM    2  C3  UNL     1      27.101   7.378  48.082  1.00  0.00     0.069 A 
HETATM    3  C4  UNL     1      26.079   6.461  48.571  1.00  0.00     0.092 A 
HETATM    4  N1  UNL     1      24.862   6.760  48.741  1.00  0.00    -0.145 NA
HETATM    5  N2  UNL     1      23.914   5.848  49.213  1.00  0.00    -0.140 N 
HETATM    6  C6  UNL     1      24.213   4.467  49.560  1.00  0.00     0.062 A 
HETATM    7  C15 UNL     1      25.466   4.191  49.377  1.00  0.00     0.043 A 
HETATM    8  C16 UNL     1      26.488   5.102  48.889  1.00  0.00    -0.004 A 
HETATM    9  C17 UNL     1      27.722   4.696  48.748  1.00  0.00     0.025 A 
HETATM   10  C18 UNL     1      28.827   5.543  48.261  1.00  0.00     0.198 A 
ENDROOT
BRANCH   6  11
HETATM   11  C7  UNL     1      23.030   3.785  50.011  1.00  0.00     0.066 C 
BRANCH  11  12
HETATM   12  C8  UNL     1      22.804   2.363  49.764  1.00  0.00     0.044 C 
BRANCH  12  13
HETATM   13  C9  UNL     1      22.669   1.434  50.869  1.00  0.00    -0.058 A 
HETATM   14  C10 UNL     1      21.698   0.548  51.282  1.00  0.00     0.007 A 
HETATM   15  C11 UNL     1      21.760  -0.243  52.407  1.00  0.00     0.001 A 
HETATM   16  C12 UNL     1      22.868  -0.181  53.224  1.00  0.00     0.000 A 
HETATM   17  C13 UNL     1      23.886   0.682  52.881  1.00  0.00     0.001 A 
HETATM   18  C14 UNL     1      23.770   1.448  51.744  1.00  0.00     0.007 A 
ENDBRANCH  12  13
ENDBRANCH  11  12
ENDBRANCH   6  11
BRANCH   5  19
HETATM   19  O2  UNL     1      22.678   6.444  49.298  1.00  0.00    -0.237 OA
BRANCH  19  20
HETATM   20  C5  UNL     1      22.792   7.361  50.339  1.00  0.00     0.319 C 
BRANCH  20  21
HETATM   21  N3  UNL     1      21.673   7.278  51.257  1.00  0.00    -0.409 N 
HETATM   22  H7  UNL     1      21.612   8.072  51.901  1.00  0.00     0.152 HD
HETATM   23  H8  UNL     1      20.794   6.959  50.817  1.00  0.00     0.152 HD
ENDBRANCH  20  21
ENDBRANCH  19  20
ENDBRANCH   5  19
BRANCH  10  24
HETATM   24  O3  UNL     1      29.924   5.552  49.116  1.00  0.00    -0.385 OA
HETATM   25  H21 UNL     1      30.545   4.836  48.834  1.00  0.00     0.210 HD
ENDBRANCH  10  24
BRANCH   1  26
HETATM   26  O1  UNL     1      29.358   7.724  47.500  1.00  0.00    -0.357 OA
HETATM   27  C1  UNL     1      29.513   9.067  47.949  1.00  0.00     0.209 C 
ENDBRANCH   1  26
TORSDOF 8
ENDMDL
MODEL 6
REMARK VINA RESULT:      -6.9      5.600      8.016
REMARK  8 active torsions:
REMARK  status: ('A' for Active; 'I' for Inactive)
REMARK    1  A    between atoms: O1_2  and  C2_3 
REMARK    2  A    between atoms: N2_7  and  O2_8 
REMARK    3  A    between atoms: O2_8  and  C5_9 
REMARK    4  A    between atoms: C5_9  and  N3_10 
REMARK    5  A    between atoms: C6_11  and  C7_12 
REMARK    6  A    between atoms: C7_12  and  C8_13 
REMARK    7  A    between atoms: C8_13  and  C9_14 
REMARK    8  A    between atoms: C18_23  and  O3_24 
ROOT
HETATM    1  C2  UNL     1      28.646   8.592  47.624  1.00  0.00     0.080 A 
HETATM    2  C3  UNL     1      27.477   8.496  48.235  1.00  0.00     0.069 A 
HETATM    3  C4  UNL     1      27.051   7.169  48.661  1.00  0.00     0.092 A 
HETATM    4  N1  UNL     1      25.963   6.916  49.256  1.00  0.00    -0.145 NA
HETATM    5  N2  UNL     1      25.594   5.626  49.648  1.00  0.00    -0.140 N 
HETATM    6  C6  UNL     1      26.406   4.440  49.421  1.00  0.00     0.062 A 
HETATM    7  C15 UNL     1      27.513   4.731  48.812  1.00  0.00     0.043 A 
HETATM    8  C16 UNL     1      27.941   6.053  48.385  1.00  0.00    -0.004 A 
HETATM    9  C17 UNL     1      29.087   6.211  47.776  1.00  0.00     0.025 A 
HETATM   10  C18 UNL     1      29.607   7.508  47.306  1.00  0.00     0.198 A 
ENDROOT
BRANCH   6  11
HETATM   11  C7  UNL     1      25.753   3.267  49.937  1.00  0.00     0.066 C 
BRANCH  11  12
HETATM   12  C8  UNL     1      26.330   2.459  51.009  1.00  0.00     0.044 C 
BRANCH  12  13
HETATM   13  C9  UNL     1      25.495   1.572  51.796  1.00  0.00    -0.058 A 
HETATM   14  C10 UNL     1      24.194   1.608  52.248  1.00  0.00     0.007 A 
HETATM   15  C11 UNL     1      23.588   0.646  53.024  1.00  0.00     0.001 A 
HETATM   16  C12 UNL     1      24.302  -0.469  53.410  1.00  0.00     0.000 A 
HETATM   17  C13 UNL     1      25.612  -0.580  52.999  1.00  0.00     0.001 A 
HETATM   18  C14 UNL     1      26.165   0.412  52.223  1.00  0.00     0.007 A 
ENDBRANCH  12  13
ENDBRANCH  11  12
ENDBRANCH   6  11
BRANCH   5  19
HETATM   19  O2  UNL     1      24.367   5.648  50.268  1.00  0.00    -0.237 OA
BRANCH  19  20
HETATM   20  C5  UNL     1      24.544   6.464  51.383  1.00  0.00     0.319 C 
BRANCH  20  21
HETATM   21  N3  UNL     1      23.828   7.718  51.253  1.00  0.00    -0.409 N 
HETATM   22  H7  UNL     1      23.819   8.088  50.298  1.00  0.00     0.152 HD
HETATM   23  H8  UNL     1      22.938   7.749  51.779  1.00  0.00     0.152 HD
ENDBRANCH  20  21
ENDBRANCH  19  20
ENDBRANCH   5  19
BRANCH  10  24
HETATM   24  O3  UNL     1      30.889   7.781  47.770  1.00  0.00    -0.385 OA
HETATM   25  H21 UNL     1      30.953   7.477  48.709  1.00  0.00     0.210 HD
ENDBRANCH  10  24
BRANCH   1  26
HETATM   26  O1  UNL     1      29.118   9.824  47.189  1.00  0.00    -0.357 OA
HETATM   27  C1  UNL     1      29.299  10.920  48.080  1.00  0.00     0.209 C 
ENDBRANCH   1  26
TORSDOF 8
ENDMDL
MODEL 7
REMARK VINA RESULT:      -6.8      2.302      7.540
REMARK  8 active torsions:
REMARK  status: ('A' for Active; 'I' for Inactive)
REMARK    1  A    between atoms: O1_2  and  C2_3 
REMARK    2  A    between atoms: N2_7  and  O2_8 
REMARK    3  A    between atoms: O2_8  and  C5_9 
REMARK    4  A    between atoms: C5_9  and  N3_10 
REMARK    5  A    between atoms: C6_11  and  C7_12 
REMARK    6  A    between atoms: C7_12  and  C8_13 
REMARK    7  A    between atoms: C8_13  and  C9_14 
REMARK    8  A    between atoms: C18_23  and  O3_24 
ROOT
HETATM    1  C2  UNL     1      18.309   2.335  51.259  1.00  0.00     0.080 A 
HETATM    2  C3  UNL     1      19.212   3.198  51.692  1.00  0.00     0.069 A 
HETATM    3  C4  UNL     1      20.578   2.715  51.852  1.00  0.00     0.092 A 
HETATM    4  N1  UNL     1      21.550   3.418  52.255  1.00  0.00    -0.145 NA
HETATM    5  N2  UNL     1      22.846   2.914  52.394  1.00  0.00    -0.140 N 
HETATM    6  C6  UNL     1      23.224   1.541  52.095  1.00  0.00     0.062 A 
HETATM    7  C15 UNL     1      22.208   0.847  51.684  1.00  0.00     0.043 A 
HETATM    8  C16 UNL     1      20.845   1.325  51.524  1.00  0.00    -0.004 A 
HETATM    9  C17 UNL     1      19.909   0.517  51.099  1.00  0.00     0.025 A 
HETATM   10  C18 UNL     1      18.499   0.907  50.905  1.00  0.00     0.198 A 
ENDROOT
BRANCH   6  11
HETATM   11  C7  UNL     1      24.625   1.331  52.341  1.00  0.00     0.066 C 
BRANCH  11  12
HETATM   12  C8  UNL     1      25.112   0.552  53.477  1.00  0.00     0.044 C 
BRANCH  12  13
HETATM   13  C9  UNL     1      26.444  -0.019  53.464  1.00  0.00    -0.058 A 
HETATM   14  C10 UNL     1      27.056  -1.046  52.780  1.00  0.00     0.007 A 
HETATM   15  C11 UNL     1      28.362  -1.451  52.941  1.00  0.00     0.001 A 
HETATM   16  C12 UNL     1      29.169  -0.806  53.854  1.00  0.00     0.000 A 
HETATM   17  C13 UNL     1      28.631   0.233  54.581  1.00  0.00     0.001 A 
HETATM   18  C14 UNL     1      27.320   0.596  54.377  1.00  0.00     0.007 A 
ENDBRANCH  12  13
ENDBRANCH  11  12
ENDBRANCH   6  11
BRANCH   5  19
HETATM   19  O2  UNL     1      23.694   3.896  52.848  1.00  0.00    -0.237 OA
BRANCH  19  20
HETATM   20  C5  UNL     1      23.477   4.978  52.000  1.00  0.00     0.319 C 
BRANCH  20  21
HETATM   21  N3  UNL     1      24.162   6.170  52.460  1.00  0.00    -0.409 N 
HETATM   22  H7  UNL     1      23.783   7.038  52.069  1.00  0.00     0.152 HD
HETATM   23  H8  UNL     1      24.380   6.165  53.471  1.00  0.00     0.152 HD
ENDBRANCH  20  21
ENDBRANCH  19  20
ENDBRANCH   5  19
BRANCH  10  24
HETATM   24  O3  UNL     1      18.022   0.606  49.634  1.00  0.00    -0.385 OA
HETATM   25  H21 UNL     1      18.529   1.142  48.974  1.00  0.00     0.210 HD
ENDBRANCH  10  24
BRANCH   1  26
HETATM   26  O1  UNL     1      16.987   2.723  51.082  1.00  0.00    -0.357 OA
HETATM   27  C1  UNL     1      16.354   3.661  51.948  1.00  0.00     0.209 C 
ENDBRANCH   1  26
TORSDOF 8
ENDMDL
MODEL 8
REMARK VINA RESULT:      -6.7      6.116      8.266
REMARK  8 active torsions:
REMARK  status: ('A' for Active; 'I' for Inactive)
REMARK    1  A    between atoms: O1_2  and  C2_3 
REMARK    2  A    between atoms: N2_7  and  O2_8 
REMARK    3  A    between atoms: O2_8  and  C5_9 
REMARK    4  A    between atoms: C5_9  and  N3_10 
REMARK    5  A    between atoms: C6_11  and  C7_12 
REMARK    6  A    between atoms: C7_12  and  C8_13 
REMARK    7  A    between atoms: C8_13  and  C9_14 
REMARK    8  A    between atoms: C18_23  and  O3_24 
ROOT
HETATM    1  C2  UNL     1      30.298   7.775  47.935  1.00  0.00     0.080 A 
HETATM    2  C3  UNL     1      29.110   8.298  48.187  1.00  0.00     0.069 A 
HETATM    3  C4  UNL     1      28.012   7.374  48.440  1.00  0.00     0.092 A 
HETATM    4  N1  UNL     1      26.821   7.720  48.695  1.00  0.00    -0.145 NA
HETATM    5  N2  UNL     1      25.797   6.799  48.932  1.00  0.00    -0.140 N 
HETATM    6  C6  UNL     1      25.977   5.355  48.912  1.00  0.00     0.062 A 
HETATM    7  C15 UNL     1      27.205   5.032  48.649  1.00  0.00     0.043 A 
HETATM    8  C16 UNL     1      28.303   5.951  48.396  1.00  0.00    -0.004 A 
HETATM    9  C17 UNL     1      29.501   5.493  48.141  1.00  0.00     0.025 A 
HETATM   10  C18 UNL     1      30.676   6.342  47.872  1.00  0.00     0.198 A 
ENDROOT
BRANCH   6  11
HETATM   11  C7  UNL     1      24.738   4.681  49.190  1.00  0.00     0.066 C 
BRANCH  11  12
HETATM   12  C8  UNL     1      24.685   3.281  49.605  1.00  0.00     0.044 C 
BRANCH  12  13
HETATM   13  C9  UNL     1      25.367   2.841  50.806  1.00  0.00    -0.058 A 
HETATM   14  C10 UNL     1      26.607   2.306  51.080  1.00  0.00     0.007 A 
HETATM   15  C11 UNL     1      27.059   1.924  52.323  1.00  0.00     0.001 A 
HETATM   16  C12 UNL     1      26.238   2.067  53.421  1.00  0.00     0.000 A 
HETATM   17  C13 UNL     1      24.979   2.595  53.232  1.00  0.00     0.001 A 
HETATM   18  C14 UNL     1      24.581   2.961  51.966  1.00  0.00     0.007 A 
ENDBRANCH  12  13
ENDBRANCH  11  12
ENDBRANCH   6  11
BRANCH   5  19
HETATM   19  O2  UNL     1      24.614   7.453  49.181  1.00  0.00    -0.237 OA
BRANCH  19  20
HETATM   20  C5  UNL     1      24.879   8.267  50.280  1.00  0.00     0.319 C 
BRANCH  20  21
HETATM   21  N3  UNL     1      24.260   7.759  51.489  1.00  0.00    -0.409 N 
HETATM   22  H7  UNL     1      23.591   7.003  51.320  1.00  0.00     0.152 HD
HETATM   23  H8  UNL     1      24.919   7.639  52.277  1.00  0.00     0.152 HD
ENDBRANCH  20  21
ENDBRANCH  19  20
ENDBRANCH   5  19
BRANCH  10  24
HETATM   24  O3  UNL     1      31.762   6.042  48.687  1.00  0.00    -0.385 OA
HETATM   25  H21 UNL     1      32.251   5.281  48.287  1.00  0.00     0.210 HD
ENDBRANCH  10  24
BRANCH   1  26
HETATM   26  O1  UNL     1      31.393   8.593  47.684  1.00  0.00    -0.357 OA
HETATM   27  C1  UNL     1      31.913   8.776  46.370  1.00  0.00     0.209 C 
ENDBRANCH   1  26
TORSDOF 8
ENDMDL
MODEL 9
REMARK VINA RESULT:      -6.7      6.886     10.959
REMARK  8 active torsions:
REMARK  status: ('A' for Active; 'I' for Inactive)
REMARK    1  A    between atoms: O1_2  and  C2_3 
REMARK    2  A    between atoms: N2_7  and  O2_8 
REMARK    3  A    between atoms: O2_8  and  C5_9 
REMARK    4  A    between atoms: C5_9  and  N3_10 
REMARK    5  A    between atoms: C6_11  and  C7_12 
REMARK    6  A    between atoms: C7_12  and  C8_13 
REMARK    7  A    between atoms: C8_13  and  C9_14 
REMARK    8  A    between atoms: C18_23  and  O3_24 
ROOT
HETATM    1  C2  UNL     1      24.156   5.323  49.676  1.00  0.00     0.080 A 
HETATM    2  C3  UNL     1      24.716   6.464  49.310  1.00  0.00     0.069 A 
HETATM    3  C4  UNL     1      26.114   6.422  48.899  1.00  0.00     0.092 A 
HETATM    4  N1  UNL     1      26.786   7.426  48.523  1.00  0.00    -0.145 NA
HETATM    5  N2  UNL     1      28.127   7.341  48.137  1.00  0.00    -0.140 N 
HETATM    6  C6  UNL     1      28.895   6.105  48.122  1.00  0.00     0.062 A 
HETATM    7  C15 UNL     1      28.180   5.096  48.511  1.00  0.00     0.043 A 
HETATM    8  C16 UNL     1      26.786   5.134  48.922  1.00  0.00    -0.004 A 
HETATM    9  C17 UNL     1      26.178   4.038  49.294  1.00  0.00     0.025 A 
HETATM   10  C18 UNL     1      24.770   3.974  49.727  1.00  0.00     0.198 A 
ENDROOT
BRANCH   6  11
HETATM   11  C7  UNL     1      30.242   6.345  47.679  1.00  0.00     0.066 C 
BRANCH  11  12
HETATM   12  C8  UNL     1      31.406   5.883  48.432  1.00  0.00     0.044 C 
BRANCH  12  13
HETATM   13  C9  UNL     1      32.279   4.861  47.887  1.00  0.00    -0.058 A 
HETATM   14  C10 UNL     1      32.091   3.720  47.139  1.00  0.00     0.007 A 
HETATM   15  C11 UNL     1      33.081   2.851  46.739  1.00  0.00     0.001 A 
HETATM   16  C12 UNL     1      34.391   3.100  47.091  1.00  0.00     0.000 A 
HETATM   17  C13 UNL     1      34.663   4.224  47.841  1.00  0.00     0.001 A 
HETATM   18  C14 UNL     1      33.633   5.057  48.212  1.00  0.00     0.007 A 
ENDBRANCH  12  13
ENDBRANCH  11  12
ENDBRANCH   6  11
BRANCH   5  19
HETATM   19  O2  UNL     1      28.601   8.581  47.779  1.00  0.00    -0.237 OA
BRANCH  19  20
HETATM   20  C5  UNL     1      28.142   9.441  48.774  1.00  0.00     0.319 C 
BRANCH  20  21
HETATM   21  N3  UNL     1      28.911   9.311  49.996  1.00  0.00    -0.409 N 
HETATM   22  H7  UNL     1      29.600  10.057  50.128  1.00  0.00     0.152 HD
HETATM   23  H8  UNL     1      28.346   9.040  50.819  1.00  0.00     0.152 HD
ENDBRANCH  20  21
ENDBRANCH  19  20
ENDBRANCH   5  19
BRANCH  10  24
HETATM   24  O3  UNL     1      24.029   3.026  49.030  1.00  0.00    -0.385 OA
HETATM   25  H21 UNL     1      23.537   2.471  49.685  1.00  0.00     0.210 HD
ENDBRANCH  10  24
BRANCH   1  26
HETATM   26  O1  UNL     1      22.828   5.285  50.081  1.00  0.00    -0.357 OA
HETATM   27  C1  UNL     1      21.779   5.822  49.279  1.00  0.00     0.209 C 
ENDBRANCH   1  26
TORSDOF 8
ENDMDL
