MODEL 1
REMARK VINA RESULT:      -8.3      0.000      0.000
REMARK  7 active torsions:
REMARK  status: ('A' for Active; 'I' for Inactive)
REMARK    1  A    between atoms: C2_2  and  C3_3 
REMARK    2  A    between atoms: C2_2  and  O1_21 
REMARK    3  A    between atoms: C3_3  and  C4_4 
REMARK    4  A    between atoms: C5_5  and  C6_6 
REMARK    5  A    between atoms: C8_8  and  C9_9 
REMARK    6  A    between atoms: O1_21  and  C19_22 
REMARK    7  A    between atoms: C19_22  and  N3_23 
ROOT
HETATM    1  C6  UNL     1      24.911   1.280  51.782  1.00  0.00     0.060 A 
HETATM    2  C7  UNL     1      25.529   2.308  51.117  1.00  0.00     0.064 A 
HETATM    3  C8  UNL     1      24.848   3.255  50.379  1.00  0.00     0.070 A 
HETATM    4  N1  UNL     1      23.502   3.148  50.318  1.00  0.00    -0.241 NA
HETATM    5  C18 UNL     1      22.909   2.135  50.975  1.00  0.00     0.234 A 
HETATM    6  N2  UNL     1      23.565   1.201  51.703  1.00  0.00    -0.242 NA
ENDROOT
BRANCH   1   7
HETATM    7  C5  UNL     1      25.656   0.294  52.554  1.00  0.00     0.028 C 
HETATM    8  C4  UNL     1      26.816  -0.206  52.161  1.00  0.00    -0.018 C 
BRANCH   8   9
HETATM    9  C3  UNL     1      27.540  -1.222  52.999  1.00  0.00     0.090 C 
BRANCH   9  10
HETATM   10  C2  UNL     1      28.640  -0.474  53.652  1.00  0.00     0.042 C 
HETATM   11  C1  UNL     1      29.879  -0.701  53.313  1.00  0.00     0.046 C 
BRANCH  10  12
HETATM   12  O1  UNL     1      28.440   0.474  54.621  1.00  0.00    -0.327 OA
BRANCH  12  13
HETATM   13  C19 UNL     1      29.107   1.731  54.422  1.00  0.00     0.441 C 
BRANCH  13  14
HETATM   14  N3  UNL     1      28.186   2.667  53.835  1.00  0.00     0.101 N 
HETATM   15  H20 UNL     1      27.345   2.230  53.439  1.00  0.00     0.315 HD
HETATM   16  H21 UNL     1      27.987   3.402  54.553  1.00  0.00     0.315 HD
ENDBRANCH  13  14
ENDBRANCH  12  13
ENDBRANCH  10  12
ENDBRANCH   9  10
ENDBRANCH   8   9
ENDBRANCH   1   7
BRANCH   3  17
HETATM   17  C9  UNL     1      25.550   4.329  49.688  1.00  0.00    -0.007 A 
HETATM   18  C10 UNL     1      25.031   5.543  49.343  1.00  0.00     0.014 A 
HETATM   19  C11 UNL     1      25.754   6.520  48.688  1.00  0.00     0.008 A 
HETATM   20  C12 UNL     1      27.050   6.299  48.352  1.00  0.00    -0.052 A 
HETATM   21  C13 UNL     1      27.636   5.075  48.678  1.00  0.00    -0.051 A 
HETATM   22  C17 UNL     1      27.999   7.217  47.645  1.00  0.00     0.039 C 
HETATM   23  C14 UNL     1      26.875   4.129  49.333  1.00  0.00     0.021 A 
HETATM   24  C15 UNL     1      29.054   5.119  48.190  1.00  0.00     0.039 C 
HETATM   25  C16 UNL     1      29.320   6.628  48.136  1.00  0.00     0.009 C 
ENDBRANCH   3  17
TORSDOF 7
ENDMDL
MODEL 2
REMARK VINA RESULT:      -7.9      3.285      7.715
REMARK  7 active torsions:
REMARK  status: ('A' for Active; 'I' for Inactive)
REMARK    1  A    between atoms: C2_2  and  C3_3 
REMARK    2  A    between atoms: C2_2  and  O1_21 
REMARK    3  A    between atoms: C3_3  and  C4_4 
REMARK    4  A    between atoms: C5_5  and  C6_6 
REMARK    5  A    between atoms: C8_8  and  C9_9 
REMARK    6  A    between atoms: O1_21  and  C19_22 
REMARK    7  A    between atoms: C19_22  and  N3_23 
ROOT
HETATM    1  C6  UNL     1      26.422   1.583  52.420  1.00  0.00     0.060 A 
HETATM    2  C7  UNL     1      25.106   1.206  52.494  1.00  0.00     0.064 A 
HETATM    3  C8  UNL     1      24.613   0.348  53.457  1.00  0.00     0.070 A 
HETATM    4  N1  UNL     1      25.488  -0.137  54.367  1.00  0.00    -0.241 NA
HETATM    5  C18 UNL     1      26.776   0.242  54.281  1.00  0.00     0.234 A 
HETATM    6  N2  UNL     1      27.271   1.082  53.343  1.00  0.00    -0.242 NA
ENDROOT
BRANCH   1   7
HETATM    7  C5  UNL     1      26.914   2.490  51.391  1.00  0.00     0.028 C 
HETATM    8  C4  UNL     1      26.176   2.894  50.369  1.00  0.00    -0.018 C 
BRANCH   8   9
HETATM    9  C3  UNL     1      26.737   3.830  49.337  1.00  0.00     0.090 C 
BRANCH   9  10
HETATM   10  C2  UNL     1      26.007   5.105  49.531  1.00  0.00     0.042 C 
HETATM   11  C1  UNL     1      26.294   6.143  48.796  1.00  0.00     0.046 C 
BRANCH  10  12
HETATM   12  O1  UNL     1      25.015   5.275  50.462  1.00  0.00    -0.327 OA
BRANCH  12  13
HETATM   13  C19 UNL     1      24.622   6.632  50.723  1.00  0.00     0.441 C 
BRANCH  13  14
HETATM   14  N3  UNL     1      24.412   6.799  52.136  1.00  0.00     0.101 N 
HETATM   15  H20 UNL     1      23.425   6.903  52.399  1.00  0.00     0.315 HD
HETATM   16  H21 UNL     1      24.903   6.012  52.621  1.00  0.00     0.315 HD
ENDBRANCH  13  14
ENDBRANCH  12  13
ENDBRANCH  10  12
ENDBRANCH   9  10
ENDBRANCH   8   9
ENDBRANCH   1   7
BRANCH   3  17
HETATM   17  C9  UNL     1      23.205  -0.024  53.495  1.00  0.00    -0.007 A 
HETATM   18  C10 UNL     1      22.577  -0.713  54.491  1.00  0.00     0.014 A 
HETATM   19  C11 UNL     1      21.235  -1.034  54.464  1.00  0.00     0.008 A 
HETATM   20  C12 UNL     1      20.466  -0.662  53.409  1.00  0.00    -0.052 A 
HETATM   21  C13 UNL     1      21.052   0.045  52.359  1.00  0.00    -0.051 A 
HETATM   22  C17 UNL     1      19.006  -0.910  53.186  1.00  0.00     0.039 C 
HETATM   23  C14 UNL     1      22.398   0.343  52.430  1.00  0.00     0.021 A 
HETATM   24  C15 UNL     1      19.975   0.316  51.351  1.00  0.00     0.039 C 
HETATM   25  C16 UNL     1      18.710   0.229  52.214  1.00  0.00     0.009 C 
ENDBRANCH   3  17
TORSDOF 7
ENDMDL
MODEL 3
REMARK VINA RESULT:      -7.8      1.758      2.593
REMARK  7 active torsions:
REMARK  status: ('A' for Active; 'I' for Inactive)
REMARK    1  A    between atoms: C2_2  and  C3_3 
REMARK    2  A    between atoms: C2_2  and  O1_21 
REMARK    3  A    between atoms: C3_3  and  C4_4 
REMARK    4  A    between atoms: C5_5  and  C6_6 
REMARK    5  A    between atoms: C8_8  and  C9_9 
REMARK    6  A    between atoms: O1_21  and  C19_22 
REMARK    7  A    between atoms: C19_22  and  N3_23 
ROOT
HETATM    1  C6  UNL     1      25.119   3.093  50.609  1.00  0.00     0.060 A 
HETATM    2  C7  UNL     1      26.127   3.766  49.969  1.00  0.00     0.064 A 
HETATM    3  C8  UNL     1      25.958   4.997  49.367  1.00  0.00     0.070 A 
HETATM    4  N1  UNL     1      24.728   5.554  49.421  1.00  0.00    -0.241 NA
HETATM    5  C18 UNL     1      23.748   4.882  50.052  1.00  0.00     0.234 A 
HETATM    6  N2  UNL     1      23.901   3.675  50.646  1.00  0.00    -0.242 NA
ENDROOT
BRANCH   1   7
HETATM    7  C5  UNL     1      25.326   1.794  51.235  1.00  0.00     0.028 C 
HETATM    8  C4  UNL     1      26.519   1.345  51.593  1.00  0.00    -0.018 C 
BRANCH   8   9
HETATM    9  C3  UNL     1      26.673  -0.005  52.235  1.00  0.00     0.090 C 
BRANCH   9  10
HETATM   10  C2  UNL     1      27.815   0.137  53.168  1.00  0.00     0.042 C 
HETATM   11  C1  UNL     1      28.418   1.286  53.296  1.00  0.00     0.046 C 
BRANCH  10  12
HETATM   12  O1  UNL     1      28.300  -0.891  53.933  1.00  0.00    -0.327 OA
BRANCH  12  13
HETATM   13  C19 UNL     1      29.238  -1.768  53.291  1.00  0.00     0.441 C 
BRANCH  13  14
HETATM   14  N3  UNL     1      28.718  -3.109  53.306  1.00  0.00     0.101 N 
HETATM   15  H20 UNL     1      29.387  -3.817  52.979  1.00  0.00     0.315 HD
HETATM   16  H21 UNL     1      28.342  -3.289  54.266  1.00  0.00     0.315 HD
ENDBRANCH  13  14
ENDBRANCH  12  13
ENDBRANCH  10  12
ENDBRANCH   9  10
ENDBRANCH   8   9
ENDBRANCH   1   7
BRANCH   3  17
HETATM   17  C9  UNL     1      27.062   5.673  48.698  1.00  0.00    -0.007 A 
HETATM   18  C10 UNL     1      27.026   6.915  48.133  1.00  0.00     0.014 A 
HETATM   19  C11 UNL     1      28.112   7.500  47.513  1.00  0.00     0.008 A 
HETATM   20  C12 UNL     1      29.294   6.837  47.439  1.00  0.00    -0.052 A 
HETATM   21  C13 UNL     1      29.392   5.561  47.998  1.00  0.00    -0.051 A 
HETATM   22  C17 UNL     1      30.578   7.287  46.814  1.00  0.00     0.039 C 
HETATM   23  C14 UNL     1      28.280   5.018  48.609  1.00  0.00     0.021 A 
HETATM   24  C15 UNL     1      30.795   5.084  47.768  1.00  0.00     0.039 C 
HETATM   25  C16 UNL     1      31.552   6.406  47.595  1.00  0.00     0.009 C 
ENDBRANCH   3  17
TORSDOF 7
ENDMDL
MODEL 4
REMARK VINA RESULT:      -7.8      4.065      7.157
REMARK  7 active torsions:
REMARK  status: ('A' for Active; 'I' for Inactive)
REMARK    1  A    between atoms: C2_2  and  C3_3 
REMARK    2  A    between atoms: C2_2  and  O1_21 
REMARK    3  A    between atoms: C3_3  and  C4_4 
REMARK    4  A    between atoms: C5_5  and  C6_6 
REMARK    5  A    between atoms: C8_8  and  C9_9 
REMARK    6  A    between atoms: O1_21  and  C19_22 
REMARK    7  A    between atoms: C19_22  and  N3_23 
ROOT
HETATM    1  C6  UNL     1      24.593   0.578  53.191  1.00  0.00     0.060 A 
HETATM    2  C7  UNL     1      23.308   0.114  53.073  1.00  0.00     0.064 A 
HETATM    3  C8  UNL     1      22.234   0.920  52.752  1.00  0.00     0.070 A 
HETATM    4  N1  UNL     1      22.480   2.234  52.546  1.00  0.00    -0.241 NA
HETATM    5  C18 UNL     1      23.745   2.675  52.665  1.00  0.00     0.234 A 
HETATM    6  N2  UNL     1      24.806   1.895  52.979  1.00  0.00    -0.242 NA
ENDROOT
BRANCH   1   7
HETATM    7  C5  UNL     1      25.707  -0.296  53.532  1.00  0.00     0.028 C 
HETATM    8  C4  UNL     1      26.717  -0.535  52.712  1.00  0.00    -0.018 C 
BRANCH   8   9
HETATM    9  C3  UNL     1      27.840  -1.448  53.118  1.00  0.00     0.090 C 
BRANCH   9  10
HETATM   10  C2  UNL     1      28.849  -0.565  53.749  1.00  0.00     0.042 C 
HETATM   11  C1  UNL     1      30.113  -0.702  53.459  1.00  0.00     0.046 C 
BRANCH  10  12
HETATM   12  O1  UNL     1      28.536   0.420  54.649  1.00  0.00    -0.327 OA
BRANCH  12  13
HETATM   13  C19 UNL     1      29.057   1.726  54.361  1.00  0.00     0.441 C 
BRANCH  13  14
HETATM   14  N3  UNL     1      27.984   2.578  53.923  1.00  0.00     0.101 N 
HETATM   15  H20 UNL     1      28.279   3.537  53.705  1.00  0.00     0.315 HD
HETATM   16  H21 UNL     1      27.500   2.090  53.134  1.00  0.00     0.315 HD
ENDBRANCH  13  14
ENDBRANCH  12  13
ENDBRANCH  10  12
ENDBRANCH   9  10
ENDBRANCH   8   9
ENDBRANCH   1   7
BRANCH   3  17
HETATM   17  C9  UNL     1      20.886   0.380  52.638  1.00  0.00    -0.007 A 
HETATM   18  C10 UNL     1      20.252  -0.412  53.551  1.00  0.00     0.014 A 
HETATM   19  C11 UNL     1      18.969  -0.892  53.381  1.00  0.00     0.008 A 
HETATM   20  C12 UNL     1      18.268  -0.582  52.261  1.00  0.00    -0.052 A 
HETATM   21  C13 UNL     1      18.864   0.225  51.290  1.00  0.00    -0.051 A 
HETATM   22  C17 UNL     1      16.879  -0.996  51.886  1.00  0.00     0.039 C 
HETATM   23  C14 UNL     1      20.148   0.681  51.504  1.00  0.00     0.021 A 
HETATM   24  C15 UNL     1      17.866   0.396  50.183  1.00  0.00     0.039 C 
HETATM   25  C16 UNL     1      16.542   0.130  50.911  1.00  0.00     0.009 C 
ENDBRANCH   3  17
TORSDOF 7
ENDMDL
MODEL 5
REMARK VINA RESULT:      -7.5      1.243      2.138
REMARK  7 active torsions:
REMARK  status: ('A' for Active; 'I' for Inactive)
REMARK    1  A    between atoms: C2_2  and  C3_3 
REMARK    2  A    between atoms: C2_2  and  O1_21 
REMARK    3  A    between atoms: C3_3  and  C4_4 
REMARK    4  A    between atoms: C5_5  and  C6_6 
REMARK    5  A    between atoms: C8_8  and  C9_9 
REMARK    6  A    between atoms: O1_21  and  C19_22 
REMARK    7  A    between atoms: C19_22  and  N3_23 
ROOT
HETATM    1  C6  UNL     1      23.664   2.781  51.954  1.00  0.00     0.060 A 
HETATM    2  C7  UNL     1      24.714   3.308  51.247  1.00  0.00     0.064 A 
HETATM    3  C8  UNL     1      24.589   4.376  50.382  1.00  0.00     0.070 A 
HETATM    4  N1  UNL     1      23.359   4.919  50.234  1.00  0.00    -0.241 NA
HETATM    5  C18 UNL     1      22.339   4.391  50.934  1.00  0.00     0.234 A 
HETATM    6  N2  UNL     1      22.448   3.345  51.785  1.00  0.00    -0.242 NA
ENDROOT
BRANCH   1   7
HETATM    7  C5  UNL     1      23.826   1.651  52.860  1.00  0.00     0.028 C 
HETATM    8  C4  UNL     1      24.812   0.776  52.756  1.00  0.00    -0.018 C 
BRANCH   8   9
HETATM    9  C3  UNL     1      24.929  -0.371  53.720  1.00  0.00     0.090 C 
BRANCH   9  10
HETATM   10  C2  UNL     1      26.357  -0.766  53.683  1.00  0.00     0.042 C 
HETATM   11  C1  UNL     1      26.834  -1.400  52.648  1.00  0.00     0.046 C 
BRANCH  10  12
HETATM   12  O1  UNL     1      27.242  -0.503  54.695  1.00  0.00    -0.327 OA
BRANCH  12  13
HETATM   13  C19 UNL     1      28.348   0.350  54.360  1.00  0.00     0.441 C 
BRANCH  13  14
HETATM   14  N3  UNL     1      27.931   1.723  54.455  1.00  0.00     0.101 N 
HETATM   15  H20 UNL     1      28.657   2.353  54.816  1.00  0.00     0.315 HD
HETATM   16  H21 UNL     1      27.552   2.001  53.520  1.00  0.00     0.315 HD
ENDBRANCH  13  14
ENDBRANCH  12  13
ENDBRANCH  10  12
ENDBRANCH   9  10
ENDBRANCH   8   9
ENDBRANCH   1   7
BRANCH   3  17
HETATM   17  C9  UNL     1      25.736   4.901  49.652  1.00  0.00    -0.007 A 
HETATM   18  C10 UNL     1      26.854   4.206  49.295  1.00  0.00     0.014 A 
HETATM   19  C11 UNL     1      27.908   4.767  48.601  1.00  0.00     0.008 A 
HETATM   20  C12 UNL     1      27.868   6.074  48.239  1.00  0.00    -0.052 A 
HETATM   21  C13 UNL     1      26.749   6.837  48.578  1.00  0.00    -0.051 A 
HETATM   22  C17 UNL     1      28.896   6.867  47.493  1.00  0.00     0.039 C 
HETATM   23  C14 UNL     1      25.720   6.234  49.271  1.00  0.00     0.021 A 
HETATM   24  C15 UNL     1      26.984   8.223  48.054  1.00  0.00     0.039 C 
HETATM   25  C16 UNL     1      27.997   7.967  46.932  1.00  0.00     0.009 C 
ENDBRANCH   3  17
TORSDOF 7
ENDMDL
MODEL 6
REMARK VINA RESULT:      -7.5      3.309      7.692
REMARK  7 active torsions:
REMARK  status: ('A' for Active; 'I' for Inactive)
REMARK    1  A    between atoms: C2_2  and  C3_3 
REMARK    2  A    between atoms: C2_2  and  O1_21 
REMARK    3  A    between atoms: C3_3  and  C4_4 
REMARK    4  A    between atoms: C5_5  and  C6_6 
REMARK    5  A    between atoms: C8_8  and  C9_9 
REMARK    6  A    between atoms: O1_21  and  C19_22 
REMARK    7  A    between atoms: C19_22  and  N3_23 
ROOT
HETATM    1  C6  UNL     1      25.809   4.146  49.440  1.00  0.00     0.060 A 
HETATM    2  C7  UNL     1      25.507   3.162  50.345  1.00  0.00     0.064 A 
HETATM    3  C8  UNL     1      24.223   2.892  50.776  1.00  0.00     0.070 A 
HETATM    4  N1  UNL     1      23.224   3.648  50.269  1.00  0.00    -0.241 NA
HETATM    5  C18 UNL     1      23.535   4.610  49.382  1.00  0.00     0.234 A 
HETATM    6  N2  UNL     1      24.789   4.884  48.952  1.00  0.00    -0.242 NA
ENDROOT
BRANCH   1   7
HETATM    7  C5  UNL     1      27.175   4.408  49.005  1.00  0.00     0.028 C 
HETATM    8  C4  UNL     1      27.582   5.591  48.573  1.00  0.00    -0.018 C 
BRANCH   8   9
HETATM    9  C3  UNL     1      29.003   5.804  48.135  1.00  0.00     0.090 C 
BRANCH   9  10
HETATM   10  C2  UNL     1      29.073   7.223  47.716  1.00  0.00     0.042 C 
HETATM   11  C1  UNL     1      29.885   7.587  46.763  1.00  0.00     0.046 C 
BRANCH  10  12
HETATM   12  O1  UNL     1      28.316   8.217  48.280  1.00  0.00    -0.327 OA
BRANCH  12  13
HETATM   13  C19 UNL     1      28.996   9.080  49.204  1.00  0.00     0.441 C 
BRANCH  13  14
HETATM   14  N3  UNL     1      28.156   9.302  50.351  1.00  0.00     0.101 N 
HETATM   15  H20 UNL     1      27.201   8.942  50.241  1.00  0.00     0.315 HD
HETATM   16  H21 UNL     1      28.661   8.925  51.186  1.00  0.00     0.315 HD
ENDBRANCH  13  14
ENDBRANCH  12  13
ENDBRANCH  10  12
ENDBRANCH   9  10
ENDBRANCH   8   9
ENDBRANCH   1   7
BRANCH   3  17
HETATM   17  C9  UNL     1      23.952   1.834  51.741  1.00  0.00    -0.007 A 
HETATM   18  C10 UNL     1      24.876   1.030  52.341  1.00  0.00     0.014 A 
HETATM   19  C11 UNL     1      24.550   0.044  53.250  1.00  0.00     0.008 A 
HETATM   20  C12 UNL     1      23.254  -0.169  53.589  1.00  0.00    -0.052 A 
HETATM   21  C13 UNL     1      22.262   0.622  53.007  1.00  0.00    -0.051 A 
HETATM   22  C17 UNL     1      22.693  -1.178  54.543  1.00  0.00     0.039 C 
HETATM   23  C14 UNL     1      22.636   1.596  52.104  1.00  0.00     0.021 A 
HETATM   24  C15 UNL     1      20.946   0.164  53.564  1.00  0.00     0.039 C 
HETATM   25  C16 UNL     1      21.375  -0.486  54.885  1.00  0.00     0.009 C 
ENDBRANCH   3  17
TORSDOF 7
ENDMDL
MODEL 7
REMARK VINA RESULT:      -7.4      2.907      6.978
REMARK  7 active torsions:
REMARK  status: ('A' for Active; 'I' for Inactive)
REMARK    1  A    between atoms: C2_2  and  C3_3 
REMARK    2  A    between atoms: C2_2  and  O1_21 
REMARK    3  A    between atoms: C3_3  and  C4_4 
REMARK    4  A    between atoms: C5_5  and  C6_6 
REMARK    5  A    between atoms: C8_8  and  C9_9 
REMARK    6  A    between atoms: O1_21  and  C19_22 
REMARK    7  A    between atoms: C19_22  and  N3_23 
ROOT
HETATM    1  C6  UNL     1      24.800   4.341  50.456  1.00  0.00     0.060 A 
HETATM    2  C7  UNL     1      25.579   3.280  50.840  1.00  0.00     0.064 A 
HETATM    3  C8  UNL     1      25.262   2.446  51.894  1.00  0.00     0.070 A 
HETATM    4  N1  UNL     1      24.121   2.703  52.571  1.00  0.00    -0.241 NA
HETATM    5  C18 UNL     1      23.367   3.747  52.183  1.00  0.00     0.234 A 
HETATM    6  N2  UNL     1      23.666   4.572  51.152  1.00  0.00    -0.242 NA
ENDROOT
BRANCH   1   7
HETATM    7  C5  UNL     1      25.161   5.205  49.340  1.00  0.00     0.028 C 
HETATM    8  C4  UNL     1      26.244   5.966  49.334  1.00  0.00    -0.018 C 
BRANCH   8   9
HETATM    9  C3  UNL     1      26.565   6.839  48.154  1.00  0.00     0.090 C 
BRANCH   9  10
HETATM   10  C2  UNL     1      28.044   6.940  48.137  1.00  0.00     0.042 C 
HETATM   11  C1  UNL     1      28.775   5.860  48.161  1.00  0.00     0.046 C 
BRANCH  10  12
HETATM   12  O1  UNL     1      28.721   8.130  48.097  1.00  0.00    -0.327 OA
BRANCH  12  13
HETATM   13  C19 UNL     1      28.192   9.185  48.914  1.00  0.00     0.441 C 
BRANCH  13  14
HETATM   14  N3  UNL     1      29.060   9.389  50.043  1.00  0.00     0.101 N 
HETATM   15  H20 UNL     1      28.641   9.952  50.792  1.00  0.00     0.315 HD
HETATM   16  H21 UNL     1      29.398   8.448  50.353  1.00  0.00     0.315 HD
ENDBRANCH  13  14
ENDBRANCH  12  13
ENDBRANCH  10  12
ENDBRANCH   9  10
ENDBRANCH   8   9
ENDBRANCH   1   7
BRANCH   3  17
HETATM   17  C9  UNL     1      26.122   1.330  52.265  1.00  0.00    -0.007 A 
HETATM   18  C10 UNL     1      25.847   0.004  52.092  1.00  0.00     0.014 A 
HETATM   19  C11 UNL     1      26.710  -1.006  52.468  1.00  0.00     0.008 A 
HETATM   20  C12 UNL     1      27.902  -0.706  53.043  1.00  0.00    -0.052 A 
HETATM   21  C13 UNL     1      28.239   0.633  53.247  1.00  0.00    -0.051 A 
HETATM   22  C17 UNL     1      28.969  -1.643  53.520  1.00  0.00     0.039 C 
HETATM   23  C14 UNL     1      27.345   1.608  52.855  1.00  0.00     0.021 A 
HETATM   24  C15 UNL     1      29.594   0.656  53.889  1.00  0.00     0.039 C 
HETATM   25  C16 UNL     1      30.168  -0.699  53.458  1.00  0.00     0.009 C 
ENDBRANCH   3  17
TORSDOF 7
ENDMDL
MODEL 8
REMARK VINA RESULT:      -7.4      2.819      6.967
REMARK  7 active torsions:
REMARK  status: ('A' for Active; 'I' for Inactive)
REMARK    1  A    between atoms: C2_2  and  C3_3 
REMARK    2  A    between atoms: C2_2  and  O1_21 
REMARK    3  A    between atoms: C3_3  and  C4_4 
REMARK    4  A    between atoms: C5_5  and  C6_6 
REMARK    5  A    between atoms: C8_8  and  C9_9 
REMARK    6  A    between atoms: O1_21  and  C19_22 
REMARK    7  A    between atoms: C19_22  and  N3_23 
ROOT
HETATM    1  C6  UNL     1      26.365   5.590  48.885  1.00  0.00     0.060 A 
HETATM    2  C7  UNL     1      26.453   4.469  49.669  1.00  0.00     0.064 A 
HETATM    3  C8  UNL     1      25.353   3.774  50.130  1.00  0.00     0.070 A 
HETATM    4  N1  UNL     1      24.132   4.238  49.783  1.00  0.00    -0.241 NA
HETATM    5  C18 UNL     1      24.060   5.339  49.013  1.00  0.00     0.234 A 
HETATM    6  N2  UNL     1      25.131   6.028  48.554  1.00  0.00    -0.242 NA
ENDROOT
BRANCH   1   7
HETATM    7  C5  UNL     1      27.544   6.303  48.412  1.00  0.00     0.028 C 
HETATM    8  C4  UNL     1      28.708   5.713  48.196  1.00  0.00    -0.018 C 
BRANCH   8   9
HETATM    9  C3  UNL     1      29.892   6.500  47.709  1.00  0.00     0.090 C 
BRANCH   9  10
HETATM   10  C2  UNL     1      30.996   6.154  48.635  1.00  0.00     0.042 C 
HETATM   11  C1  UNL     1      31.596   7.089  49.318  1.00  0.00     0.046 C 
BRANCH  10  12
HETATM   12  O1  UNL     1      31.447   4.875  48.832  1.00  0.00    -0.327 OA
BRANCH  12  13
HETATM   13  C19 UNL     1      32.414   4.395  47.886  1.00  0.00     0.441 C 
BRANCH  13  14
HETATM   14  N3  UNL     1      33.686   4.248  48.542  1.00  0.00     0.101 N 
HETATM   15  H20 UNL     1      34.356   3.669  48.024  1.00  0.00     0.315 HD
HETATM   16  H21 UNL     1      34.035   5.209  48.766  1.00  0.00     0.315 HD
ENDBRANCH  13  14
ENDBRANCH  12  13
ENDBRANCH  10  12
ENDBRANCH   9  10
ENDBRANCH   8   9
ENDBRANCH   1   7
BRANCH   3  17
HETATM   17  C9  UNL     1      25.498   2.587  50.962  1.00  0.00    -0.007 A 
HETATM   18  C10 UNL     1      26.665   1.947  51.262  1.00  0.00     0.014 A 
HETATM   19  C11 UNL     1      26.733   0.822  52.060  1.00  0.00     0.008 A 
HETATM   20  C12 UNL     1      25.601   0.295  52.592  1.00  0.00    -0.052 A 
HETATM   21  C13 UNL     1      24.376   0.905  52.320  1.00  0.00    -0.051 A 
HETATM   22  C17 UNL     1      25.457  -0.908  53.472  1.00  0.00     0.039 C 
HETATM   23  C14 UNL     1      24.358   2.028  51.517  1.00  0.00     0.021 A 
HETATM   24  C15 UNL     1      23.319   0.113  53.032  1.00  0.00     0.039 C 
HETATM   25  C16 UNL     1      24.130  -0.563  54.143  1.00  0.00     0.009 C 
ENDBRANCH   3  17
TORSDOF 7
ENDMDL
MODEL 9
REMARK VINA RESULT:      -7.4      3.303      7.941
REMARK  7 active torsions:
REMARK  status: ('A' for Active; 'I' for Inactive)
REMARK    1  A    between atoms: C2_2  and  C3_3 
REMARK    2  A    between atoms: C2_2  and  O1_21 
REMARK    3  A    between atoms: C3_3  and  C4_4 
REMARK    4  A    between atoms: C5_5  and  C6_6 
REMARK    5  A    between atoms: C8_8  and  C9_9 
REMARK    6  A    between atoms: O1_21  and  C19_22 
REMARK    7  A    between atoms: C19_22  and  N3_23 
ROOT
HETATM    1  C6  UNL     1      25.767   3.545  50.185  1.00  0.00     0.060 A 
HETATM    2  C7  UNL     1      24.614   2.921  50.588  1.00  0.00     0.064 A 
HETATM    3  C8  UNL     1      24.591   1.867  51.479  1.00  0.00     0.070 A 
HETATM    4  N1  UNL     1      25.775   1.440  51.971  1.00  0.00    -0.241 NA
HETATM    5  C18 UNL     1      26.898   2.062  51.567  1.00  0.00     0.234 A 
HETATM    6  N2  UNL     1      26.934   3.096  50.694  1.00  0.00    -0.242 NA
ENDROOT
BRANCH   1   7
HETATM    7  C5  UNL     1      25.761   4.655  49.241  1.00  0.00     0.028 C 
HETATM    8  C4  UNL     1      26.738   5.544  49.163  1.00  0.00    -0.018 C 
BRANCH   8   9
HETATM    9  C3  UNL     1      26.677   6.669  48.169  1.00  0.00     0.090 C 
BRANCH   9  10
HETATM   10  C2  UNL     1      25.751   7.662  48.763  1.00  0.00     0.042 C 
HETATM   11  C1  UNL     1      24.943   8.343  47.999  1.00  0.00     0.046 C 
BRANCH  10  12
HETATM   12  O1  UNL     1      25.680   7.924  50.106  1.00  0.00    -0.327 OA
BRANCH  12  13
HETATM   13  C19 UNL     1      24.374   7.845  50.697  1.00  0.00     0.441 C 
BRANCH  13  14
HETATM   14  N3  UNL     1      24.423   6.971  51.838  1.00  0.00     0.101 N 
HETATM   15  H20 UNL     1      25.162   6.261  51.785  1.00  0.00     0.315 HD
HETATM   16  H21 UNL     1      24.470   7.574  52.692  1.00  0.00     0.315 HD
ENDBRANCH  13  14
ENDBRANCH  12  13
ENDBRANCH  10  12
ENDBRANCH   9  10
ENDBRANCH   8   9
ENDBRANCH   1   7
BRANCH   3  17
HETATM   17  C9  UNL     1      23.339   1.236  51.877  1.00  0.00    -0.007 A 
HETATM   18  C10 UNL     1      22.175   1.228  51.165  1.00  0.00     0.014 A 
HETATM   19  C11 UNL     1      21.022   0.608  51.601  1.00  0.00     0.008 A 
HETATM   20  C12 UNL     1      21.003  -0.036  52.795  1.00  0.00    -0.052 A 
HETATM   21  C13 UNL     1      22.164  -0.062  53.570  1.00  0.00    -0.051 A 
HETATM   22  C17 UNL     1      19.867  -0.763  53.446  1.00  0.00     0.039 C 
HETATM   23  C14 UNL     1      23.294   0.571  53.092  1.00  0.00     0.021 A 
HETATM   24  C15 UNL     1      21.848  -0.835  54.816  1.00  0.00     0.039 C 
HETATM   25  C16 UNL     1      20.661  -1.692  54.360  1.00  0.00     0.009 C 
ENDBRANCH   3  17
TORSDOF 7
ENDMDL
