MODEL 1
REMARK VINA RESULT:      -7.9      0.000      0.000
REMARK  1 active torsions:
REMARK  status: ('A' for Active; 'I' for Inactive)
REMARK    1  A    between atoms: C11_14  and  C12_16 
ROOT
HETATM    1  C1  UNL     1      18.319  -1.215  53.430  1.00  0.00     0.014 C 
HETATM    2  C2  UNL     1      19.366  -0.642  53.135  1.00  0.00    -0.092 C 
HETATM    3  C3  UNL     1      20.575   0.032  52.771  1.00  0.00     0.195 A 
HETATM    4  C4  UNL     1      21.702  -0.305  53.376  1.00  0.00     0.052 A 
HETATM    5 CL1  UNL     1      20.606  -1.402  54.183  1.00  0.00    -0.160 Cl
HETATM    6  C5  UNL     1      23.097  -0.154  53.576  1.00  0.00     0.066 A 
HETATM    7  N1  UNL     1      23.515  -0.978  54.476  1.00  0.00    -0.244 NA
HETATM    8  C6  UNL     1      24.873  -1.046  54.879  1.00  0.00     0.233 A 
HETATM    9  N2  UNL     1      25.728  -0.260  54.338  1.00  0.00    -0.246 NA
HETATM   10  C7  UNL     1      25.318   0.669  53.345  1.00  0.00     0.044 A 
HETATM   11  C8  UNL     1      26.271   1.424  52.883  1.00  0.00     0.007 C 
HETATM   12  C9  UNL     1      26.510   2.498  51.927  1.00  0.00     0.087 C 
HETATM   13  C10 UNL     1      25.298   2.896  51.171  1.00  0.00     0.025 C 
HETATM   14  C11 UNL     1      25.389   3.453  49.977  1.00  0.00     0.029 C 
HETATM   15 BR1  UNL     1      23.989   4.046  48.826  1.00  0.00    -0.049 Br
HETATM   16  N3  UNL     1      23.921   2.782  51.530  1.00  0.00    -0.391 N 
HETATM   17  C14 UNL     1      23.430   2.196  52.788  1.00  0.00     0.136 C 
HETATM   18  C15 UNL     1      23.933   0.799  52.850  1.00  0.00     0.108 A 
HETATM   19  H10 UNL     1      23.176   3.136  50.858  1.00  0.00     0.159 HD
ENDROOT
BRANCH  14  20
HETATM   20  C12 UNL     1      26.679   3.650  49.334  1.00  0.00    -0.005 C 
HETATM   21  C13 UNL     1      27.370   4.672  48.817  1.00  0.00     0.032 C 
ENDBRANCH  14  20
TORSDOF 1
ENDMDL
MODEL 2
REMARK VINA RESULT:      -7.6      3.431      5.621
REMARK  1 active torsions:
REMARK  status: ('A' for Active; 'I' for Inactive)
REMARK    1  A    between atoms: C11_14  and  C12_16 
ROOT
HETATM    1  C1  UNL     1      22.782   7.738  50.256  1.00  0.00     0.014 C 
HETATM    2  C2  UNL     1      23.270   6.724  50.753  1.00  0.00    -0.092 C 
HETATM    3  C3  UNL     1      23.859   5.555  51.330  1.00  0.00     0.195 A 
HETATM    4  C4  UNL     1      23.166   4.428  51.337  1.00  0.00     0.052 A 
HETATM    5 CL1  UNL     1      22.007   5.470  50.549  1.00  0.00    -0.160 Cl
HETATM    6  C5  UNL     1      23.034   3.054  51.661  1.00  0.00     0.066 A 
HETATM    7  N1  UNL     1      21.887   2.609  51.277  1.00  0.00    -0.244 NA
HETATM    8  C6  UNL     1      21.483   1.264  51.474  1.00  0.00     0.233 A 
HETATM    9  N2  UNL     1      22.279   0.449  52.058  1.00  0.00    -0.246 NA
HETATM   10  C7  UNL     1      23.554   0.890  52.504  1.00  0.00     0.044 A 
HETATM   11  C8  UNL     1      24.266  -0.023  53.098  1.00  0.00     0.007 C 
HETATM   12  C9  UNL     1      25.559  -0.217  53.742  1.00  0.00     0.087 C 
HETATM   13  C10 UNL     1      26.414   0.995  53.727  1.00  0.00     0.025 C 
HETATM   14  C11 UNL     1      27.730   0.904  53.794  1.00  0.00     0.029 C 
HETATM   15 BR1  UNL     1      29.025   2.303  53.793  1.00  0.00    -0.049 Br
HETATM   16  N3  UNL     1      26.044   2.372  53.652  1.00  0.00    -0.391 N 
HETATM   17  C14 UNL     1      24.659   2.861  53.553  1.00  0.00     0.136 C 
HETATM   18  C15 UNL     1      24.066   2.264  52.328  1.00  0.00     0.108 A 
HETATM   19  H10 UNL     1      26.803   3.117  53.664  1.00  0.00     0.159 HD
ENDROOT
BRANCH  14  20
HETATM   20  C12 UNL     1      28.395  -0.390  53.831  1.00  0.00    -0.005 C 
HETATM   21  C13 UNL     1      29.648  -0.850  53.753  1.00  0.00     0.032 C 
ENDBRANCH  14  20
TORSDOF 1
ENDMDL
MODEL 3
REMARK VINA RESULT:      -7.2      2.959      5.180
REMARK  1 active torsions:
REMARK  status: ('A' for Active; 'I' for Inactive)
REMARK    1  A    between atoms: C11_14  and  C12_16 
ROOT
HETATM    1  C1  UNL     1      29.794  -0.037  53.827  1.00  0.00     0.014 C 
HETATM    2  C2  UNL     1      28.776   0.551  53.469  1.00  0.00    -0.092 C 
HETATM    3  C3  UNL     1      27.604   1.257  53.049  1.00  0.00     0.195 A 
HETATM    4  C4  UNL     1      26.417   0.725  53.290  1.00  0.00     0.052 A 
HETATM    5 CL1  UNL     1      27.432  -0.514  53.988  1.00  0.00    -0.160 Cl
HETATM    6  C5  UNL     1      25.002   0.761  53.215  1.00  0.00     0.066 A 
HETATM    7  N1  UNL     1      24.495  -0.290  53.765  1.00  0.00    -0.244 NA
HETATM    8  C6  UNL     1      23.097  -0.518  53.833  1.00  0.00     0.233 A 
HETATM    9  N2  UNL     1      22.294   0.343  53.329  1.00  0.00    -0.246 NA
HETATM   10  C7  UNL     1      22.803   1.516  52.708  1.00  0.00     0.044 A 
HETATM   11  C8  UNL     1      21.893   2.306  52.217  1.00  0.00     0.007 C 
HETATM   12  C9  UNL     1      21.748   3.571  51.507  1.00  0.00     0.087 C 
HETATM   13  C10 UNL     1      23.039   4.253  51.245  1.00  0.00     0.025 C 
HETATM   14  C11 UNL     1      23.100   5.562  51.082  1.00  0.00     0.029 C 
HETATM   15 BR1  UNL     1      24.625   6.653  50.737  1.00  0.00    -0.049 Br
HETATM   16  N3  UNL     1      24.351   3.704  51.119  1.00  0.00    -0.391 N 
HETATM   17  C14 UNL     1      24.676   2.275  51.252  1.00  0.00     0.136 C 
HETATM   18  C15 UNL     1      24.238   1.846  52.606  1.00  0.00     0.108 A 
HETATM   19  H10 UNL     1      25.170   4.352  50.916  1.00  0.00     0.159 HD
ENDROOT
BRANCH  14  20
HETATM   20  C12 UNL     1      21.912   6.393  51.207  1.00  0.00    -0.005 C 
HETATM   21  C13 UNL     1      21.317   7.363  50.505  1.00  0.00     0.032 C 
ENDBRANCH  14  20
TORSDOF 1
ENDMDL
MODEL 4
REMARK VINA RESULT:      -7.0      3.493      7.449
REMARK  1 active torsions:
REMARK  status: ('A' for Active; 'I' for Inactive)
REMARK    1  A    between atoms: C11_14  and  C12_16 
ROOT
HETATM    1  C1  UNL     1      28.465   5.629  48.193  1.00  0.00     0.014 C 
HETATM    2  C2  UNL     1      27.621   5.020  48.848  1.00  0.00    -0.092 C 
HETATM    3  C3  UNL     1      26.655   4.294  49.614  1.00  0.00     0.195 A 
HETATM    4  C4  UNL     1      25.375   4.610  49.494  1.00  0.00     0.052 A 
HETATM    5 CL1  UNL     1      26.061   5.769  48.380  1.00  0.00    -0.160 Cl
HETATM    6  C5  UNL     1      24.013   4.423  49.837  1.00  0.00     0.066 A 
HETATM    7  N1  UNL     1      23.267   5.250  49.187  1.00  0.00    -0.244 NA
HETATM    8  C6  UNL     1      21.857   5.287  49.335  1.00  0.00     0.233 A 
HETATM    9  N2  UNL     1      21.289   4.474  50.146  1.00  0.00    -0.246 NA
HETATM   10  C7  UNL     1      22.067   3.545  50.889  1.00  0.00     0.044 A 
HETATM   11  C8  UNL     1      21.381   2.785  51.691  1.00  0.00     0.007 C 
HETATM   12  C9  UNL     1      21.549   1.709  52.661  1.00  0.00     0.087 C 
HETATM   13  C10 UNL     1      22.957   1.266  52.812  1.00  0.00     0.025 C 
HETATM   14  C11 UNL     1      23.249   0.046  53.226  1.00  0.00     0.029 C 
HETATM   15 BR1  UNL     1      24.962  -0.745  53.497  1.00  0.00    -0.049 Br
HETATM   16  N3  UNL     1      24.169   1.982  52.577  1.00  0.00    -0.391 N 
HETATM   17  C14 UNL     1      24.239   3.372  52.095  1.00  0.00     0.136 C 
HETATM   18  C15 UNL     1      23.535   3.422  50.788  1.00  0.00     0.108 A 
HETATM   19  H10 UNL     1      25.102   1.501  52.752  1.00  0.00     0.159 HD
ENDROOT
BRANCH  14  20
HETATM   20  C12 UNL     1      22.203  -0.928  53.497  1.00  0.00    -0.005 C 
HETATM   21  C13 UNL     1      21.711  -1.566  54.565  1.00  0.00     0.032 C 
ENDBRANCH  14  20
TORSDOF 1
ENDMDL
MODEL 5
REMARK VINA RESULT:      -6.9      3.068      4.693
REMARK  1 active torsions:
REMARK  status: ('A' for Active; 'I' for Inactive)
REMARK    1  A    between atoms: C11_14  and  C12_16 
ROOT
HETATM    1  C1  UNL     1      18.356   3.062  48.182  1.00  0.00     0.014 C 
HETATM    2  C2  UNL     1      19.209   2.629  48.954  1.00  0.00    -0.092 C 
HETATM    3  C3  UNL     1      20.219   2.133  49.837  1.00  0.00     0.195 A 
HETATM    4  C4  UNL     1      19.884   1.240  50.754  1.00  0.00     0.052 A 
HETATM    5 CL1  UNL     1      18.325   1.475  50.001  1.00  0.00    -0.160 Cl
HETATM    6  C5  UNL     1      20.216   0.390  51.838  1.00  0.00     0.066 A 
HETATM    7  N1  UNL     1      19.174  -0.254  52.241  1.00  0.00    -0.244 NA
HETATM    8  C6  UNL     1      19.214  -1.178  53.316  1.00  0.00     0.233 A 
HETATM    9  N2  UNL     1      20.323  -1.389  53.922  1.00  0.00    -0.246 NA
HETATM   10  C7  UNL     1      21.499  -0.701  53.519  1.00  0.00     0.044 A 
HETATM   11  C8  UNL     1      22.558  -0.984  54.221  1.00  0.00     0.007 C 
HETATM   12  C9  UNL     1      23.974  -0.655  54.326  1.00  0.00     0.087 C 
HETATM   13  C10 UNL     1      24.436   0.305  53.294  1.00  0.00     0.025 C 
HETATM   14  C11 UNL     1      25.699   0.344  52.912  1.00  0.00     0.029 C 
HETATM   15 BR1  UNL     1      26.522   1.478  51.620  1.00  0.00    -0.049 Br
HETATM   16  N3  UNL     1      23.699   1.293  52.573  1.00  0.00    -0.391 N 
HETATM   17  C14 UNL     1      22.255   1.535  52.725  1.00  0.00     0.136 C 
HETATM   18  C15 UNL     1      21.557   0.263  52.403  1.00  0.00     0.108 A 
HETATM   19  H10 UNL     1      24.204   1.909  51.869  1.00  0.00     0.159 HD
ENDROOT
BRANCH  14  20
HETATM   20  C12 UNL     1      26.677  -0.590  53.449  1.00  0.00    -0.005 C 
HETATM   21  C13 UNL     1      27.903  -1.018  53.128  1.00  0.00     0.032 C 
ENDBRANCH  14  20
TORSDOF 1
ENDMDL
MODEL 6
REMARK VINA RESULT:      -6.8      2.761      6.251
REMARK  1 active torsions:
REMARK  status: ('A' for Active; 'I' for Inactive)
REMARK    1  A    between atoms: C11_14  and  C12_16 
ROOT
HETATM    1  C1  UNL     1      27.314   2.085  52.571  1.00  0.00     0.014 C 
HETATM    2  C2  UNL     1      26.110   1.861  52.463  1.00  0.00    -0.092 C 
HETATM    3  C3  UNL     1      24.706   1.623  52.326  1.00  0.00     0.195 A 
HETATM    4  C4  UNL     1      24.132   0.722  53.106  1.00  0.00     0.052 A 
HETATM    5 CL1  UNL     1      25.775   0.596  53.687  1.00  0.00    -0.160 Cl
HETATM    6  C5  UNL     1      22.991   0.000  53.537  1.00  0.00     0.066 A 
HETATM    7  N1  UNL     1      23.306  -0.817  54.484  1.00  0.00    -0.244 NA
HETATM    8  C6  UNL     1      22.358  -1.669  55.106  1.00  0.00     0.233 A 
HETATM    9  N2  UNL     1      21.137  -1.639  54.720  1.00  0.00    -0.246 NA
HETATM   10  C7  UNL     1      20.739  -0.759  53.677  1.00  0.00     0.044 A 
HETATM   11  C8  UNL     1      19.480  -0.830  53.360  1.00  0.00     0.007 C 
HETATM   12  C9  UNL     1      18.501  -0.250  52.449  1.00  0.00     0.087 C 
HETATM   13  C10 UNL     1      19.063   0.807  51.574  1.00  0.00     0.025 C 
HETATM   14  C11 UNL     1      18.296   1.756  51.069  1.00  0.00     0.029 C 
HETATM   15 BR1  UNL     1      18.783   3.206  49.930  1.00  0.00    -0.049 Br
HETATM   16  N3  UNL     1      20.406   1.007  51.131  1.00  0.00    -0.391 N 
HETATM   17  C14 UNL     1      21.544   0.151  51.503  1.00  0.00     0.136 C 
HETATM   18  C15 UNL     1      21.650   0.175  52.985  1.00  0.00     0.108 A 
HETATM   19  H10 UNL     1      20.627   1.824  50.488  1.00  0.00     0.159 HD
ENDROOT
BRANCH  14  20
HETATM   20  C12 UNL     1      16.879   1.832  51.393  1.00  0.00    -0.005 C 
HETATM   21  C13 UNL     1      15.925   2.769  51.403  1.00  0.00     0.032 C 
ENDBRANCH  14  20
TORSDOF 1
ENDMDL
MODEL 7
REMARK VINA RESULT:      -6.8      3.461      5.517
REMARK  1 active torsions:
REMARK  status: ('A' for Active; 'I' for Inactive)
REMARK    1  A    between atoms: C11_14  and  C12_16 
ROOT
HETATM    1  C1  UNL     1      16.588   2.681  48.265  1.00  0.00     0.014 C 
HETATM    2  C2  UNL     1      17.451   2.284  49.046  1.00  0.00    -0.092 C 
HETATM    3  C3  UNL     1      18.472   1.832  49.940  1.00  0.00     0.195 A 
HETATM    4  C4  UNL     1      18.188   0.866  50.798  1.00  0.00     0.052 A 
HETATM    5 CL1  UNL     1      16.640   1.003  50.000  1.00  0.00    -0.160 Cl
HETATM    6  C5  UNL     1      18.559  -0.008  51.850  1.00  0.00     0.066 A 
HETATM    7  N1  UNL     1      17.566  -0.761  52.181  1.00  0.00    -0.244 NA
HETATM    8  C6  UNL     1      17.653  -1.734  53.210  1.00  0.00     0.233 A 
HETATM    9  N2  UNL     1      18.756  -1.878  53.846  1.00  0.00    -0.246 NA
HETATM   10  C7  UNL     1      19.879  -1.070  53.522  1.00  0.00     0.044 A 
HETATM   11  C8  UNL     1      20.935  -1.296  54.247  1.00  0.00     0.007 C 
HETATM   12  C9  UNL     1      22.312  -0.850  54.422  1.00  0.00     0.087 C 
HETATM   13  C10 UNL     1      22.719   0.200  53.457  1.00  0.00     0.025 C 
HETATM   14  C11 UNL     1      23.987   0.369  53.124  1.00  0.00     0.029 C 
HETATM   15 BR1  UNL     1      24.747   1.638  51.922  1.00  0.00    -0.049 Br
HETATM   16  N3  UNL     1      21.922   1.156  52.758  1.00  0.00    -0.391 N 
HETATM   17  C14 UNL     1      20.457   1.263  52.868  1.00  0.00     0.136 C 
HETATM   18  C15 UNL     1      19.887  -0.047  52.458  1.00  0.00     0.108 A 
HETATM   19  H10 UNL     1      22.393   1.851  52.105  1.00  0.00     0.159 HD
ENDROOT
BRANCH  14  20
HETATM   20  C12 UNL     1      25.026  -0.503  53.650  1.00  0.00    -0.005 C 
HETATM   21  C13 UNL     1      26.185  -1.014  53.222  1.00  0.00     0.032 C 
ENDBRANCH  14  20
TORSDOF 1
ENDMDL
MODEL 8
REMARK VINA RESULT:      -6.7      3.845      6.828
REMARK  1 active torsions:
REMARK  status: ('A' for Active; 'I' for Inactive)
REMARK    1  A    between atoms: C11_14  and  C12_16 
ROOT
HETATM    1  C1  UNL     1      25.158   8.138  47.298  1.00  0.00     0.014 C 
HETATM    2  C2  UNL     1      25.120   7.163  48.046  1.00  0.00    -0.092 C 
HETATM    3  C3  UNL     1      25.100   6.031  48.920  1.00  0.00     0.195 A 
HETATM    4  C4  UNL     1      24.060   5.214  48.884  1.00  0.00     0.052 A 
HETATM    5 CL1  UNL     1      23.564   6.362  47.663  1.00  0.00    -0.160 Cl
HETATM    6  C5  UNL     1      23.367   4.065  49.340  1.00  0.00     0.066 A 
HETATM    7  N1  UNL     1      22.250   3.931  48.710  1.00  0.00    -0.244 NA
HETATM    8  C6  UNL     1      21.350   2.865  48.965  1.00  0.00     0.233 A 
HETATM    9  N2  UNL     1      21.645   1.995  49.857  1.00  0.00    -0.246 NA
HETATM   10  C7  UNL     1      22.862   2.099  50.583  1.00  0.00     0.044 A 
HETATM   11  C8  UNL     1      23.042   1.167  51.473  1.00  0.00     0.007 C 
HETATM   12  C9  UNL     1      24.000   0.725  52.479  1.00  0.00     0.087 C 
HETATM   13  C10 UNL     1      25.220   1.567  52.543  1.00  0.00     0.025 C 
HETATM   14  C11 UNL     1      26.363   1.081  52.993  1.00  0.00     0.029 C 
HETATM   15 BR1  UNL     1      28.046   1.958  53.170  1.00  0.00    -0.049 Br
HETATM   16  N3  UNL     1      25.405   2.934  52.179  1.00  0.00    -0.391 N 
HETATM   17  C14 UNL     1      24.352   3.801  51.624  1.00  0.00     0.136 C 
HETATM   18  C15 UNL     1      23.866   3.161  50.374  1.00  0.00     0.108 A 
HETATM   19  H10 UNL     1      26.361   3.383  52.305  1.00  0.00     0.159 HD
ENDROOT
BRANCH  14  20
HETATM   20  C12 UNL     1      26.483  -0.313  53.394  1.00  0.00    -0.005 C 
HETATM   21  C13 UNL     1      26.945  -1.449  52.860  1.00  0.00     0.032 C 
ENDBRANCH  14  20
TORSDOF 1
ENDMDL
MODEL 9
REMARK VINA RESULT:      -6.6      2.991      6.538
REMARK  1 active torsions:
REMARK  status: ('A' for Active; 'I' for Inactive)
REMARK    1  A    between atoms: C11_14  and  C12_16 
ROOT
HETATM    1  C1  UNL     1      25.022   6.615  48.308  1.00  0.00     0.014 C 
HETATM    2  C2  UNL     1      24.477   5.668  48.873  1.00  0.00    -0.092 C 
HETATM    3  C3  UNL     1      23.821   4.576  49.524  1.00  0.00     0.195 A 
HETATM    4  C4  UNL     1      24.491   3.872  50.423  1.00  0.00     0.052 A 
HETATM    5 CL1  UNL     1      25.730   5.021  49.978  1.00  0.00    -0.160 Cl
HETATM    6  C5  UNL     1      24.571   2.814  51.362  1.00  0.00     0.066 A 
HETATM    7  N1  UNL     1      25.739   2.785  51.908  1.00  0.00    -0.244 NA
HETATM    8  C6  UNL     1      26.101   1.825  52.888  1.00  0.00     0.233 A 
HETATM    9  N2  UNL     1      25.245   0.944  53.251  1.00  0.00    -0.246 NA
HETATM   10  C7  UNL     1      23.945   0.931  52.675  1.00  0.00     0.044 A 
HETATM   11  C8  UNL     1      23.171  -0.020  53.110  1.00  0.00     0.007 C 
HETATM   12  C9  UNL     1      21.826  -0.557  52.944  1.00  0.00     0.087 C 
HETATM   13  C10 UNL     1      20.997   0.213  51.986  1.00  0.00     0.025 C 
HETATM   14  C11 UNL     1      19.678   0.210  52.066  1.00  0.00     0.029 C 
HETATM   15 BR1  UNL     1      18.412   1.110  50.960  1.00  0.00    -0.049 Br
HETATM   16  N3  UNL     1      21.396   1.032  50.887  1.00  0.00    -0.391 N 
HETATM   17  C14 UNL     1      22.793   1.284  50.496  1.00  0.00     0.136 C 
HETATM   18  C15 UNL     1      23.474   1.898  51.665  1.00  0.00     0.108 A 
HETATM   19  H10 UNL     1      20.652   1.506  50.292  1.00  0.00     0.159 HD
ENDROOT
BRANCH  14  20
HETATM   20  C12 UNL     1      18.990  -0.507  53.129  1.00  0.00    -0.005 C 
HETATM   21  C13 UNL     1      17.893  -1.263  53.251  1.00  0.00     0.032 C 
ENDBRANCH  14  20
TORSDOF 1
ENDMDL
