MODEL 1
REMARK VINA RESULT:      -8.0      0.000      0.000
REMARK  5 active torsions:
REMARK  status: ('A' for Active; 'I' for Inactive)
REMARK    1  A    between atoms: C2_2  and  C3_3 
REMARK    2  A    between atoms: C3_3  and  C11_13 
REMARK    3  A    between atoms: C4_4  and  C5_5 
REMARK    4  A    between atoms: C9_10  and  C10_11 
REMARK    5  A    between atoms: C11_13  and  N2_14 
ROOT
HETATM    1  C5  UNL     1      21.806   0.654  52.886  1.00  0.00    -0.034 A 
HETATM    2  C6  UNL     1      20.655   1.248  52.846  1.00  0.00     0.030 A 
HETATM    3  C7  UNL     1      19.947   2.453  52.449  1.00  0.00     0.095 C 
HETATM    4  N1  UNL     1      19.402   3.422  52.128  1.00  0.00    -0.192 NA
HETATM    5  C8  UNL     1      19.967   0.132  53.469  1.00  0.00     0.062 A 
HETATM    6  C9  UNL     1      21.264  -0.547  53.524  1.00  0.00     0.058 A 
ENDROOT
BRANCH   1   7
HETATM    7  C4  UNL     1      23.120   1.059  52.450  1.00  0.00     0.013 C 
HETATM    8  C3  UNL     1      24.118   1.954  52.463  1.00  0.00    -0.062 C 
BRANCH   8   9
HETATM    9  C2  UNL     1      24.049   3.213  53.236  1.00  0.00     0.031 C 
HETATM   10  C1  UNL     1      23.267   4.221  52.386  1.00  0.00     0.010 C 
ENDBRANCH   8   9
BRANCH   8  11
HETATM   11  C11 UNL     1      25.328   1.633  51.635  1.00  0.00     0.151 C 
BRANCH  11  12
HETATM   12  N2  UNL     1      26.444   1.203  52.306  1.00  0.00    -0.409 N 
HETATM   13  C12 UNL     1      27.701   1.817  52.285  1.00  0.00     0.117 C 
HETATM   14  C13 UNL     1      28.195   2.206  53.651  1.00  0.00     0.029 C 
HETATM   15  C14 UNL     1      28.877   1.162  54.427  1.00  0.00     0.040 A 
HETATM   16  C15 UNL     1      29.799   0.200  53.785  1.00  0.00     0.175 A 
HETATM   17  C16 UNL     1      28.030   0.003  54.848  1.00  0.00     0.129 A 
HETATM   18  O2  UNL     1      28.910  -0.838  54.147  1.00  0.00    -0.385 OA
HETATM   19  C17 UNL     1      26.623   0.022  54.347  1.00  0.00     0.051 C 
HETATM   20  C18 UNL     1      26.506  -0.123  52.840  1.00  0.00     0.119 C 
ENDBRANCH  11  12
ENDBRANCH   8  11
ENDBRANCH   1   7
BRANCH   6  21
HETATM   21  C10 UNL     1      21.801  -0.822  54.893  1.00  0.00     0.400 C 
HETATM   22  O1  UNL     1      22.263  -1.897  55.291  1.00  0.00    -0.429 OA
ENDBRANCH   6  21
TORSDOF 5
ENDMDL
MODEL 2
REMARK VINA RESULT:      -7.7      2.235      3.000
REMARK  5 active torsions:
REMARK  status: ('A' for Active; 'I' for Inactive)
REMARK    1  A    between atoms: C2_2  and  C3_3 
REMARK    2  A    between atoms: C3_3  and  C11_13 
REMARK    3  A    between atoms: C4_4  and  C5_5 
REMARK    4  A    between atoms: C9_10  and  C10_11 
REMARK    5  A    between atoms: C11_13  and  N2_14 
ROOT
HETATM    1  C5  UNL     1      21.796   0.759  53.107  1.00  0.00    -0.034 A 
HETATM    2  C6  UNL     1      21.691  -0.195  53.979  1.00  0.00     0.030 A 
HETATM    3  C7  UNL     1      22.407  -1.020  54.936  1.00  0.00     0.095 C 
HETATM    4  N1  UNL     1      22.996  -1.670  55.691  1.00  0.00    -0.192 NA
HETATM    5  C8  UNL     1      20.263  -0.341  53.765  1.00  0.00     0.062 A 
HETATM    6  C9  UNL     1      20.371   0.732  52.774  1.00  0.00     0.058 A 
ENDROOT
BRANCH   1   7
HETATM    7  C4  UNL     1      22.923   1.539  52.656  1.00  0.00     0.013 C 
HETATM    8  C3  UNL     1      23.580   2.154  51.663  1.00  0.00    -0.062 C 
BRANCH   8   9
HETATM    9  C2  UNL     1      23.089   2.163  50.268  1.00  0.00     0.031 C 
HETATM   10  C1  UNL     1      23.945   3.175  49.497  1.00  0.00     0.010 C 
ENDBRANCH   8   9
BRANCH   8  11
HETATM   11  C11 UNL     1      24.868   2.836  52.022  1.00  0.00     0.151 C 
BRANCH  11  12
HETATM   12  N2  UNL     1      25.842   2.061  52.599  1.00  0.00    -0.409 N 
HETATM   13  C12 UNL     1      26.212   2.081  53.948  1.00  0.00     0.117 C 
HETATM   14  C13 UNL     1      26.084   0.742  54.620  1.00  0.00     0.029 C 
HETATM   15  C14 UNL     1      27.216  -0.181  54.470  1.00  0.00     0.040 A 
HETATM   16  C15 UNL     1      28.615   0.299  54.510  1.00  0.00     0.175 A 
HETATM   17  C16 UNL     1      27.472  -0.681  53.084  1.00  0.00     0.129 A 
HETATM   18  O2  UNL     1      28.760  -0.127  53.169  1.00  0.00    -0.385 OA
HETATM   19  C17 UNL     1      26.594  -0.105  52.022  1.00  0.00     0.051 C 
HETATM   20  C18 UNL     1      26.805   1.380  51.790  1.00  0.00     0.119 C 
ENDBRANCH  11  12
ENDBRANCH   8  11
ENDBRANCH   1   7
BRANCH   6  21
HETATM   21  C10 UNL     1      20.067   0.350  51.361  1.00  0.00     0.400 C 
HETATM   22  O1  UNL     1      19.432   1.026  50.544  1.00  0.00    -0.429 OA
ENDBRANCH   6  21
TORSDOF 5
ENDMDL
MODEL 3
REMARK VINA RESULT:      -7.7      2.271      3.937
REMARK  5 active torsions:
REMARK  status: ('A' for Active; 'I' for Inactive)
REMARK    1  A    between atoms: C2_2  and  C3_3 
REMARK    2  A    between atoms: C3_3  and  C11_13 
REMARK    3  A    between atoms: C4_4  and  C5_5 
REMARK    4  A    between atoms: C9_10  and  C10_11 
REMARK    5  A    between atoms: C11_13  and  N2_14 
ROOT
HETATM    1  C5  UNL     1      23.904   1.991  51.184  1.00  0.00    -0.034 A 
HETATM    2  C6  UNL     1      23.139   2.190  50.157  1.00  0.00     0.030 A 
HETATM    3  C7  UNL     1      21.966   1.727  49.435  1.00  0.00     0.095 C 
HETATM    4  N1  UNL     1      21.031   1.341  48.873  1.00  0.00    -0.192 NA
HETATM    5  C8  UNL     1      23.908   3.335  49.704  1.00  0.00     0.062 A 
HETATM    6  C9  UNL     1      24.783   3.116  50.859  1.00  0.00     0.058 A 
ENDROOT
BRANCH   1   7
HETATM    7  C4  UNL     1      23.871   1.009  52.241  1.00  0.00     0.013 C 
HETATM    8  C3  UNL     1      23.199   0.079  52.933  1.00  0.00    -0.062 C 
BRANCH   8   9
HETATM    9  C2  UNL     1      21.794  -0.273  52.640  1.00  0.00     0.031 C 
HETATM   10  C1  UNL     1      20.927   0.900  53.114  1.00  0.00     0.010 C 
ENDBRANCH   8   9
BRANCH   8  11
HETATM   11  C11 UNL     1      23.937  -0.597  54.053  1.00  0.00     0.151 C 
BRANCH  11  12
HETATM   12  N2  UNL     1      25.307  -0.561  54.006  1.00  0.00    -0.409 N 
HETATM   13  C12 UNL     1      26.118  -1.332  53.166  1.00  0.00     0.117 C 
HETATM   14  C13 UNL     1      27.015  -0.507  52.285  1.00  0.00     0.029 C 
HETATM   15  C14 UNL     1      28.287  -0.065  52.870  1.00  0.00     0.040 A 
HETATM   16  C15 UNL     1      29.080  -0.947  53.753  1.00  0.00     0.175 A 
HETATM   17  C16 UNL     1      28.183   0.904  54.005  1.00  0.00     0.129 A 
HETATM   18  O2  UNL     1      28.872  -0.023  54.803  1.00  0.00    -0.385 OA
HETATM   19  C17 UNL     1      26.792   1.225  54.447  1.00  0.00     0.051 C 
HETATM   20  C18 UNL     1      26.056   0.048  55.061  1.00  0.00     0.119 C 
ENDBRANCH  11  12
ENDBRANCH   8  11
ENDBRANCH   1   7
BRANCH   6  21
HETATM   21  C10 UNL     1      26.195   2.735  50.547  1.00  0.00     0.400 C 
HETATM   22  O1  UNL     1      27.177   2.922  51.273  1.00  0.00    -0.429 OA
ENDBRANCH   6  21
TORSDOF 5
ENDMDL
MODEL 4
REMARK VINA RESULT:      -7.6      2.483      4.051
REMARK  5 active torsions:
REMARK  status: ('A' for Active; 'I' for Inactive)
REMARK    1  A    between atoms: C2_2  and  C3_3 
REMARK    2  A    between atoms: C3_3  and  C11_13 
REMARK    3  A    between atoms: C4_4  and  C5_5 
REMARK    4  A    between atoms: C9_10  and  C10_11 
REMARK    5  A    between atoms: C11_13  and  N2_14 
ROOT
HETATM    1  C5  UNL     1      23.394   2.041  51.794  1.00  0.00    -0.034 A 
HETATM    2  C6  UNL     1      24.265   2.736  51.132  1.00  0.00     0.030 A 
HETATM    3  C7  UNL     1      25.679   2.934  50.864  1.00  0.00     0.095 C 
HETATM    4  N1  UNL     1      26.810   3.078  50.667  1.00  0.00    -0.192 NA
HETATM    5  C8  UNL     1      23.247   3.547  50.489  1.00  0.00     0.062 A 
HETATM    6  C9  UNL     1      22.255   2.772  51.236  1.00  0.00     0.058 A 
ENDROOT
BRANCH   1   7
HETATM    7  C4  UNL     1      23.534   0.952  52.730  1.00  0.00     0.013 C 
HETATM    8  C3  UNL     1      22.991  -0.076  53.396  1.00  0.00    -0.062 C 
BRANCH   8   9
HETATM    9  C2  UNL     1      21.570  -0.459  53.251  1.00  0.00     0.031 C 
HETATM   10  C1  UNL     1      21.300  -1.578  54.264  1.00  0.00     0.010 C 
ENDBRANCH   8   9
BRANCH   8  11
HETATM   11  C11 UNL     1      23.893  -0.834  54.327  1.00  0.00     0.151 C 
BRANCH  11  12
HETATM   12  N2  UNL     1      25.244  -0.682  54.143  1.00  0.00    -0.409 N 
HETATM   13  C12 UNL     1      26.023  -1.359  53.199  1.00  0.00     0.117 C 
HETATM   14  C13 UNL     1      26.756  -0.438  52.263  1.00  0.00     0.029 C 
HETATM   15  C14 UNL     1      28.042   0.093  52.733  1.00  0.00     0.040 A 
HETATM   16  C15 UNL     1      28.989  -0.745  53.500  1.00  0.00     0.175 A 
HETATM   17  C16 UNL     1      27.977   1.018  53.906  1.00  0.00     0.129 A 
HETATM   18  O2  UNL     1      28.817   0.130  54.597  1.00  0.00    -0.385 OA
HETATM   19  C17 UNL     1      26.618   1.209  54.498  1.00  0.00     0.051 C 
HETATM   20  C18 UNL     1      26.047  -0.042  55.140  1.00  0.00     0.119 C 
ENDBRANCH  11  12
ENDBRANCH   8  11
ENDBRANCH   1   7
BRANCH   6  21
HETATM   21  C10 UNL     1      21.450   3.535  52.240  1.00  0.00     0.400 C 
HETATM   22  O1  UNL     1      20.301   3.268  52.607  1.00  0.00    -0.429 OA
ENDBRANCH   6  21
TORSDOF 5
ENDMDL
MODEL 5
REMARK VINA RESULT:      -7.5      2.635      3.292
REMARK  5 active torsions:
REMARK  status: ('A' for Active; 'I' for Inactive)
REMARK    1  A    between atoms: C2_2  and  C3_3 
REMARK    2  A    between atoms: C3_3  and  C11_13 
REMARK    3  A    between atoms: C4_4  and  C5_5 
REMARK    4  A    between atoms: C9_10  and  C10_11 
REMARK    5  A    between atoms: C11_13  and  N2_14 
ROOT
HETATM    1  C5  UNL     1      20.849   0.569  51.348  1.00  0.00    -0.034 A 
HETATM    2  C6  UNL     1      19.582   0.296  51.366  1.00  0.00     0.030 A 
HETATM    3  C7  UNL     1      18.525  -0.417  52.063  1.00  0.00     0.095 C 
HETATM    4  N1  UNL     1      17.699  -0.995  52.630  1.00  0.00    -0.192 NA
HETATM    5  C8  UNL     1      19.312   1.090  50.182  1.00  0.00     0.062 A 
HETATM    6  C9  UNL     1      20.743   1.402  50.149  1.00  0.00     0.058 A 
ENDROOT
BRANCH   1   7
HETATM    7  C4  UNL     1      21.937   0.179  52.212  1.00  0.00     0.013 C 
HETATM    8  C3  UNL     1      23.061   0.494  52.869  1.00  0.00    -0.062 C 
BRANCH   8   9
HETATM    9  C2  UNL     1      23.657   1.847  52.826  1.00  0.00     0.031 C 
HETATM   10  C1  UNL     1      24.147   2.078  51.391  1.00  0.00     0.010 C 
ENDBRANCH   8   9
BRANCH   8  11
HETATM   11  C11 UNL     1      23.718  -0.604  53.655  1.00  0.00     0.151 C 
BRANCH  11  12
HETATM   12  N2  UNL     1      25.089  -0.602  53.698  1.00  0.00    -0.409 N 
HETATM   13  C12 UNL     1      25.940  -1.117  52.715  1.00  0.00     0.117 C 
HETATM   14  C13 UNL     1      26.905  -0.100  52.171  1.00  0.00     0.029 C 
HETATM   15  C14 UNL     1      28.144   0.106  52.933  1.00  0.00     0.040 A 
HETATM   16  C15 UNL     1      28.863  -1.026  53.557  1.00  0.00     0.175 A 
HETATM   17  C16 UNL     1      27.982   0.698  54.297  1.00  0.00     0.129 A 
HETATM   18  O2  UNL     1      28.603  -0.447  54.820  1.00  0.00    -0.385 OA
HETATM   19  C17 UNL     1      26.571   0.921  54.735  1.00  0.00     0.051 C 
HETATM   20  C18 UNL     1      25.779  -0.359  54.928  1.00  0.00     0.119 C 
ENDBRANCH  11  12
ENDBRANCH   8  11
ENDBRANCH   1   7
BRANCH   6  21
HETATM   21  C10 UNL     1      21.496   0.887  48.963  1.00  0.00     0.400 C 
HETATM   22  O1  UNL     1      21.989   1.572  48.060  1.00  0.00    -0.429 OA
ENDBRANCH   6  21
TORSDOF 5
ENDMDL
MODEL 6
REMARK VINA RESULT:      -7.2      3.063      6.439
REMARK  5 active torsions:
REMARK  status: ('A' for Active; 'I' for Inactive)
REMARK    1  A    between atoms: C2_2  and  C3_3 
REMARK    2  A    between atoms: C3_3  and  C11_13 
REMARK    3  A    between atoms: C4_4  and  C5_5 
REMARK    4  A    between atoms: C9_10  and  C10_11 
REMARK    5  A    between atoms: C11_13  and  N2_14 
ROOT
HETATM    1  C5  UNL     1      25.067   0.732  52.570  1.00  0.00    -0.034 A 
HETATM    2  C6  UNL     1      25.601   0.002  53.500  1.00  0.00     0.030 A 
HETATM    3  C7  UNL     1      25.353  -0.738  54.725  1.00  0.00     0.095 C 
HETATM    4  N1  UNL     1      25.136  -1.320  55.701  1.00  0.00    -0.192 NA
HETATM    5  C8  UNL     1      26.925   0.075  52.909  1.00  0.00     0.062 A 
HETATM    6  C9  UNL     1      26.333   0.904  51.855  1.00  0.00     0.058 A 
ENDROOT
BRANCH   1   7
HETATM    7  C4  UNL     1      23.715   1.185  52.352  1.00  0.00     0.013 C 
HETATM    8  C3  UNL     1      22.419   1.160  52.689  1.00  0.00    -0.062 C 
BRANCH   8   9
HETATM    9  C2  UNL     1      21.900   0.330  53.797  1.00  0.00     0.031 C 
HETATM   10  C1  UNL     1      21.970  -1.131  53.336  1.00  0.00     0.010 C 
ENDBRANCH   8   9
BRANCH   8  11
HETATM   11  C11 UNL     1      21.488   2.012  51.874  1.00  0.00     0.151 C 
BRANCH  11  12
HETATM   12  N2  UNL     1      21.962   3.231  51.463  1.00  0.00    -0.409 N 
HETATM   13  C12 UNL     1      22.027   4.390  52.243  1.00  0.00     0.117 C 
HETATM   14  C13 UNL     1      23.416   4.955  52.355  1.00  0.00     0.029 C 
HETATM   15  C14 UNL     1      23.859   5.835  51.267  1.00  0.00     0.040 A 
HETATM   16  C15 UNL     1      22.941   6.810  50.639  1.00  0.00     0.175 A 
HETATM   17  C16 UNL     1      24.018   5.188  49.927  1.00  0.00     0.129 A 
HETATM   18  O2  UNL     1      23.077   6.100  49.424  1.00  0.00    -0.385 OA
HETATM   19  C17 UNL     1      23.620   3.750  49.859  1.00  0.00     0.051 C 
HETATM   20  C18 UNL     1      22.136   3.513  50.071  1.00  0.00     0.119 C 
ENDBRANCH  11  12
ENDBRANCH   8  11
ENDBRANCH   1   7
BRANCH   6  21
HETATM   21  C10 UNL     1      26.821   2.316  51.783  1.00  0.00     0.400 C 
HETATM   22  O1  UNL     1      26.994   2.975  50.752  1.00  0.00    -0.429 OA
ENDBRANCH   6  21
TORSDOF 5
ENDMDL
MODEL 7
REMARK VINA RESULT:      -7.2      3.421      6.834
REMARK  5 active torsions:
REMARK  status: ('A' for Active; 'I' for Inactive)
REMARK    1  A    between atoms: C2_2  and  C3_3 
REMARK    2  A    between atoms: C3_3  and  C11_13 
REMARK    3  A    between atoms: C4_4  and  C5_5 
REMARK    4  A    between atoms: C9_10  and  C10_11 
REMARK    5  A    between atoms: C11_13  and  N2_14 
ROOT
HETATM    1  C5  UNL     1      24.923   0.550  52.761  1.00  0.00    -0.034 A 
HETATM    2  C6  UNL     1      25.533  -0.106  53.698  1.00  0.00     0.030 A 
HETATM    3  C7  UNL     1      25.386  -0.757  54.989  1.00  0.00     0.095 C 
HETATM    4  N1  UNL     1      25.249  -1.267  56.018  1.00  0.00    -0.192 NA
HETATM    5  C8  UNL     1      26.809  -0.068  53.006  1.00  0.00     0.062 A 
HETATM    6  C9  UNL     1      26.131   0.678  51.943  1.00  0.00     0.058 A 
ENDROOT
BRANCH   1   7
HETATM    7  C4  UNL     1      23.554   0.978  52.612  1.00  0.00     0.013 C 
HETATM    8  C3  UNL     1      22.244   0.718  52.718  1.00  0.00    -0.062 C 
BRANCH   8   9
HETATM    9  C2  UNL     1      21.725  -0.579  53.204  1.00  0.00     0.031 C 
HETATM   10  C1  UNL     1      21.661  -0.494  54.734  1.00  0.00     0.010 C 
ENDBRANCH   8   9
BRANCH   8  11
HETATM   11  C11 UNL     1      21.300   1.810  52.304  1.00  0.00     0.151 C 
BRANCH  11  12
HETATM   12  N2  UNL     1      21.406   2.267  51.015  1.00  0.00    -0.409 N 
HETATM   13  C12 UNL     1      22.036   3.451  50.616  1.00  0.00     0.117 C 
HETATM   14  C13 UNL     1      23.141   3.229  49.619  1.00  0.00     0.029 C 
HETATM   15  C14 UNL     1      22.745   3.132  48.208  1.00  0.00     0.040 A 
HETATM   16  C15 UNL     1      21.686   3.996  47.642  1.00  0.00     0.175 A 
HETATM   17  C16 UNL     1      21.911   1.945  47.844  1.00  0.00     0.129 A 
HETATM   18  O2  UNL     1      20.919   2.833  47.400  1.00  0.00    -0.385 OA
HETATM   19  C17 UNL     1      21.520   1.063  48.984  1.00  0.00     0.051 C 
HETATM   20  C18 UNL     1      20.583   1.723  49.979  1.00  0.00     0.119 C 
ENDBRANCH  11  12
ENDBRANCH   8  11
ENDBRANCH   1   7
BRANCH   6  21
HETATM   21  C10 UNL     1      26.596   2.084  51.733  1.00  0.00     0.400 C 
HETATM   22  O1  UNL     1      26.880   2.603  50.647  1.00  0.00    -0.429 OA
ENDBRANCH   6  21
TORSDOF 5
ENDMDL
MODEL 8
REMARK VINA RESULT:      -7.1      3.133      5.130
REMARK  5 active torsions:
REMARK  status: ('A' for Active; 'I' for Inactive)
REMARK    1  A    between atoms: C2_2  and  C3_3 
REMARK    2  A    between atoms: C3_3  and  C11_13 
REMARK    3  A    between atoms: C4_4  and  C5_5 
REMARK    4  A    between atoms: C9_10  and  C10_11 
REMARK    5  A    between atoms: C11_13  and  N2_14 
ROOT
HETATM    1  C5  UNL     1      25.243   4.640  49.629  1.00  0.00    -0.034 A 
HETATM    2  C6  UNL     1      24.442   5.315  48.866  1.00  0.00     0.030 A 
HETATM    3  C7  UNL     1      23.083   5.428  48.366  1.00  0.00     0.095 C 
HETATM    4  N1  UNL     1      21.996   5.500  47.977  1.00  0.00    -0.192 NA
HETATM    5  C8  UNL     1      25.480   6.249  48.467  1.00  0.00     0.062 A 
HETATM    6  C9  UNL     1      26.395   5.490  49.324  1.00  0.00     0.058 A 
ENDROOT
BRANCH   1   7
HETATM    7  C4  UNL     1      25.038   3.480  50.462  1.00  0.00     0.013 C 
HETATM    8  C3  UNL     1      24.566   2.938  51.593  1.00  0.00    -0.062 C 
BRANCH   8   9
HETATM    9  C2  UNL     1      23.889   3.737  52.637  1.00  0.00     0.031 C 
HETATM   10  C1  UNL     1      22.471   4.029  52.130  1.00  0.00     0.010 C 
ENDBRANCH   8   9
BRANCH   8  11
HETATM   11  C11 UNL     1      24.769   1.461  51.774  1.00  0.00     0.151 C 
BRANCH  11  12
HETATM   12  N2  UNL     1      25.935   1.063  52.376  1.00  0.00    -0.409 N 
HETATM   13  C12 UNL     1      27.215   1.544  52.081  1.00  0.00     0.117 C 
HETATM   14  C13 UNL     1      27.917   2.135  53.272  1.00  0.00     0.029 C 
HETATM   15  C14 UNL     1      28.628   1.196  54.150  1.00  0.00     0.040 A 
HETATM   16  C15 UNL     1      29.387   0.050  53.602  1.00  0.00     0.175 A 
HETATM   17  C16 UNL     1      27.772   0.219  54.891  1.00  0.00     0.129 A 
HETATM   18  O2  UNL     1      28.489  -0.815  54.268  1.00  0.00    -0.385 OA
HETATM   19  C17 UNL     1      26.314   0.273  54.572  1.00  0.00     0.051 C 
HETATM   20  C18 UNL     1      25.981  -0.139  53.150  1.00  0.00     0.119 C 
ENDBRANCH  11  12
ENDBRANCH   8  11
ENDBRANCH   1   7
BRANCH   6  21
HETATM   21  C10 UNL     1      27.517   4.793  48.624  1.00  0.00     0.400 C 
HETATM   22  O1  UNL     1      28.713   5.102  48.676  1.00  0.00    -0.429 OA
ENDBRANCH   6  21
TORSDOF 5
ENDMDL
MODEL 9
REMARK VINA RESULT:      -7.0      3.303      5.855
REMARK  5 active torsions:
REMARK  status: ('A' for Active; 'I' for Inactive)
REMARK    1  A    between atoms: C2_2  and  C3_3 
REMARK    2  A    between atoms: C3_3  and  C11_13 
REMARK    3  A    between atoms: C4_4  and  C5_5 
REMARK    4  A    between atoms: C9_10  and  C10_11 
REMARK    5  A    between atoms: C11_13  and  N2_14 
ROOT
HETATM    1  C5  UNL     1      24.254   0.439  52.974  1.00  0.00    -0.034 A 
HETATM    2  C6  UNL     1      23.900  -0.369  53.923  1.00  0.00     0.030 A 
HETATM    3  C7  UNL     1      22.803  -1.131  54.495  1.00  0.00     0.095 C 
HETATM    4  N1  UNL     1      21.915  -1.727  54.937  1.00  0.00    -0.192 NA
HETATM    5  C8  UNL     1      25.229  -0.393  54.508  1.00  0.00     0.062 A 
HETATM    6  C9  UNL     1      25.639   0.525  53.442  1.00  0.00     0.058 A 
ENDROOT
BRANCH   1   7
HETATM    7  C4  UNL     1      23.523   1.020  51.874  1.00  0.00     0.013 C 
HETATM    8  C3  UNL     1      22.362   1.221  51.235  1.00  0.00    -0.062 C 
BRANCH   8   9
HETATM    9  C2  UNL     1      21.080   0.667  51.720  1.00  0.00     0.031 C 
HETATM   10  C1  UNL     1      20.649   1.517  52.922  1.00  0.00     0.010 C 
ENDBRANCH   8   9
BRANCH   8  11
HETATM   11  C11 UNL     1      22.414   2.033  49.973  1.00  0.00     0.151 C 
BRANCH  11  12
HETATM   12  N2  UNL     1      22.780   3.349  50.096  1.00  0.00    -0.409 N 
HETATM   13  C12 UNL     1      22.128   4.312  50.873  1.00  0.00     0.117 C 
HETATM   14  C13 UNL     1      23.022   4.956  51.896  1.00  0.00     0.029 C 
HETATM   15  C14 UNL     1      23.840   6.087  51.438  1.00  0.00     0.040 A 
HETATM   16  C15 UNL     1      23.308   7.092  50.493  1.00  0.00     0.175 A 
HETATM   17  C16 UNL     1      24.897   5.762  50.431  1.00  0.00     0.129 A 
HETATM   18  O2  UNL     1      24.285   6.677  49.559  1.00  0.00    -0.385 OA
HETATM   19  C17 UNL     1      24.921   4.345  49.961  1.00  0.00     0.051 C 
HETATM   20  C18 UNL     1      23.692   3.940  49.166  1.00  0.00     0.119 C 
ENDBRANCH  11  12
ENDBRANCH   8  11
ENDBRANCH   1   7
BRANCH   6  21
HETATM   21  C10 UNL     1      26.065   1.890  53.883  1.00  0.00     0.400 C 
HETATM   22  O1  UNL     1      27.227   2.307  53.938  1.00  0.00    -0.429 OA
ENDBRANCH   6  21
TORSDOF 5
ENDMDL
