MODEL 1
REMARK VINA RESULT:      -9.0      0.000      0.000
REMARK  4 active torsions:
REMARK  status: ('A' for Active; 'I' for Inactive)
REMARK    1  A    between atoms: C5_5  and  C6_6 
REMARK    2  A    between atoms: C8_8  and  C9_9 
REMARK    3  A    between atoms: N2_12  and  C10_13 
REMARK    4  A    between atoms: C11_15  and  C12_16 
ROOT
HETATM    1  C6  UNL     1      25.938  -0.185  52.307  1.00  0.00     0.151 C 
HETATM    2  C7  UNL     1      27.333  -0.483  52.723  1.00  0.00     0.096 C 
HETATM    3  C8  UNL     1      27.375  -0.031  54.126  1.00  0.00     0.094 C 
HETATM    4  N1  UNL     1      26.161   0.110  54.555  1.00  0.00    -0.171 NA
HETATM    5  N2  UNL     1      25.241  -0.201  53.579  1.00  0.00    -0.236 N 
ENDROOT
BRANCH   5   6
HETATM    6  C10 UNL     1      23.879  -0.476  53.839  1.00  0.00     0.190 A 
HETATM    7  N3  UNL     1      22.853  -0.283  53.200  1.00  0.00    -0.222 NA
HETATM    8  C11 UNL     1      21.653  -0.613  53.612  1.00  0.00     0.076 A 
HETATM    9  C18 UNL     1      21.545  -1.234  54.885  1.00  0.00     0.086 A 
HETATM   10  S1  UNL     1      23.378  -1.269  55.378  1.00  0.00    -0.060 SA
BRANCH   8  11
HETATM   11  C12 UNL     1      20.488  -0.341  52.778  1.00  0.00    -0.007 A 
HETATM   12  C13 UNL     1      19.207  -0.746  53.084  1.00  0.00     0.014 A 
HETATM   13  C14 UNL     1      18.078  -0.519  52.338  1.00  0.00     0.001 A 
HETATM   14  C15 UNL     1      18.227   0.185  51.162  1.00  0.00     0.000 A 
HETATM   15  C16 UNL     1      19.481   0.624  50.791  1.00  0.00     0.001 A 
HETATM   16  C17 UNL     1      20.569   0.355  51.593  1.00  0.00     0.014 A 
ENDBRANCH   8  11
ENDBRANCH   5   6
BRANCH   1  17
HETATM   17  C5  UNL     1      25.736   1.154  51.720  1.00  0.00    -0.033 A 
HETATM   18  C4  UNL     1      26.791   1.924  51.342  1.00  0.00     0.010 A 
HETATM   19  C3  UNL     1      26.493   3.155  50.807  1.00  0.00     0.007 A 
HETATM   20  C2  UNL     1      25.223   3.663  50.626  1.00  0.00    -0.062 A 
HETATM   21  C1  UNL     1      25.005   5.013  50.035  1.00  0.00     0.048 C 
HETATM   22  C20 UNL     1      24.167   2.841  51.027  1.00  0.00     0.007 A 
HETATM   23  C19 UNL     1      24.411   1.581  51.578  1.00  0.00     0.010 A 
ENDBRANCH   1  17
BRANCH   3  24
HETATM   24  C9  UNL     1      28.566   0.233  54.957  1.00  0.00     0.287 C 
HETATM   25  O1  UNL     1      29.038   1.411  54.928  1.00  0.00    -0.300 OA
ENDBRANCH   3  24
TORSDOF 4
ENDMDL
MODEL 2
REMARK VINA RESULT:      -8.9      3.592      6.595
REMARK  4 active torsions:
REMARK  status: ('A' for Active; 'I' for Inactive)
REMARK    1  A    between atoms: C5_5  and  C6_6 
REMARK    2  A    between atoms: C8_8  and  C9_9 
REMARK    3  A    between atoms: N2_12  and  C10_13 
REMARK    4  A    between atoms: C11_15  and  C12_16 
ROOT
HETATM    1  C6  UNL     1      23.475   3.631  50.876  1.00  0.00     0.151 C 
HETATM    2  C7  UNL     1      22.230   3.892  50.107  1.00  0.00     0.096 C 
HETATM    3  C8  UNL     1      22.058   2.665  49.309  1.00  0.00     0.094 C 
HETATM    4  N1  UNL     1      22.803   1.732  49.811  1.00  0.00    -0.171 NA
HETATM    5  N2  UNL     1      23.503   2.181  50.909  1.00  0.00    -0.236 N 
ENDROOT
BRANCH   5   6
HETATM    6  C10 UNL     1      24.112   1.328  51.856  1.00  0.00     0.190 A 
HETATM    7  N3  UNL     1      25.277   1.022  52.075  1.00  0.00    -0.222 NA
HETATM    8  C11 UNL     1      25.661   0.197  53.018  1.00  0.00     0.076 A 
HETATM    9  C18 UNL     1      24.651  -0.376  53.838  1.00  0.00     0.086 A 
HETATM   10  S1  UNL     1      23.118   0.432  53.063  1.00  0.00    -0.060 SA
BRANCH   8  11
HETATM   11  C12 UNL     1      27.075  -0.107  53.201  1.00  0.00    -0.007 A 
HETATM   12  C13 UNL     1      27.629  -1.354  53.011  1.00  0.00     0.014 A 
HETATM   13  C14 UNL     1      28.949  -1.695  53.168  1.00  0.00     0.001 A 
HETATM   14  C15 UNL     1      29.819  -0.698  53.555  1.00  0.00     0.000 A 
HETATM   15  C16 UNL     1      29.336   0.577  53.763  1.00  0.00     0.001 A 
HETATM   16  C17 UNL     1      27.995   0.843  53.586  1.00  0.00     0.014 A 
ENDBRANCH   8  11
ENDBRANCH   5   6
BRANCH   1  17
HETATM   17  C5  UNL     1      24.718   4.072  50.215  1.00  0.00    -0.033 A 
HETATM   18  C4  UNL     1      25.730   3.199  49.961  1.00  0.00     0.010 A 
HETATM   19  C3  UNL     1      26.845   3.712  49.342  1.00  0.00     0.007 A 
HETATM   20  C2  UNL     1      27.015   5.028  48.963  1.00  0.00    -0.062 A 
HETATM   21  C1  UNL     1      28.265   5.487  48.295  1.00  0.00     0.048 C 
HETATM   22  C20 UNL     1      25.954   5.893  49.241  1.00  0.00     0.007 A 
HETATM   23  C19 UNL     1      24.797   5.426  49.869  1.00  0.00     0.010 A 
ENDBRANCH   1  17
BRANCH   3  24
HETATM   24  C9  UNL     1      21.197   2.467  48.125  1.00  0.00     0.287 C 
HETATM   25  O1  UNL     1      19.952   2.349  48.334  1.00  0.00    -0.300 OA
ENDBRANCH   3  24
TORSDOF 4
ENDMDL
MODEL 3
REMARK VINA RESULT:      -8.9      2.992      6.838
REMARK  4 active torsions:
REMARK  status: ('A' for Active; 'I' for Inactive)
REMARK    1  A    between atoms: C5_5  and  C6_6 
REMARK    2  A    between atoms: C8_8  and  C9_9 
REMARK    3  A    between atoms: N2_12  and  C10_13 
REMARK    4  A    between atoms: C11_15  and  C12_16 
ROOT
HETATM    1  C6  UNL     1      23.688   0.701  51.954  1.00  0.00     0.151 C 
HETATM    2  C7  UNL     1      22.590  -0.210  52.371  1.00  0.00     0.096 C 
HETATM    3  C8  UNL     1      21.905   0.546  53.436  1.00  0.00     0.094 C 
HETATM    4  N1  UNL     1      22.266   1.787  53.364  1.00  0.00    -0.171 NA
HETATM    5  N2  UNL     1      23.157   1.996  52.336  1.00  0.00    -0.236 N 
ENDROOT
BRANCH   5   6
HETATM    6  C10 UNL     1      23.455   3.268  51.797  1.00  0.00     0.190 A 
HETATM    7  N3  UNL     1      24.370   3.685  51.099  1.00  0.00    -0.222 NA
HETATM    8  C11 UNL     1      24.481   4.924  50.688  1.00  0.00     0.076 A 
HETATM    9  C18 UNL     1      23.467   5.839  51.083  1.00  0.00     0.086 A 
HETATM   10  S1  UNL     1      22.369   4.674  52.103  1.00  0.00    -0.060 SA
BRANCH   8  11
HETATM   11  C12 UNL     1      25.610   5.327  49.858  1.00  0.00    -0.007 A 
HETATM   12  C13 UNL     1      26.592   4.467  49.418  1.00  0.00     0.014 A 
HETATM   13  C14 UNL     1      27.673   4.791  48.638  1.00  0.00     0.001 A 
HETATM   14  C15 UNL     1      27.801   6.108  48.248  1.00  0.00     0.000 A 
HETATM   15  C16 UNL     1      26.854   7.026  48.650  1.00  0.00     0.001 A 
HETATM   16  C17 UNL     1      25.795   6.625  49.436  1.00  0.00     0.014 A 
ENDBRANCH   8  11
ENDBRANCH   5   6
BRANCH   1  17
HETATM   17  C5  UNL     1      24.957   0.521  52.686  1.00  0.00    -0.033 A 
HETATM   18  C4  UNL     1      24.977   0.024  53.952  1.00  0.00     0.010 A 
HETATM   19  C3  UNL     1      26.212  -0.103  54.543  1.00  0.00     0.007 A 
HETATM   20  C2  UNL     1      27.416   0.231  53.961  1.00  0.00    -0.062 A 
HETATM   21  C1  UNL     1      28.705   0.055  54.687  1.00  0.00     0.048 C 
HETATM   22  C20 UNL     1      27.353   0.739  52.660  1.00  0.00     0.007 A 
HETATM   23  C19 UNL     1      26.126   0.890  52.011  1.00  0.00     0.010 A 
ENDBRANCH   1  17
BRANCH   3  24
HETATM   24  C9  UNL     1      20.956   0.033  54.444  1.00  0.00     0.287 C 
HETATM   25  O1  UNL     1      21.253  -1.065  55.007  1.00  0.00    -0.300 OA
ENDBRANCH   3  24
TORSDOF 4
ENDMDL
MODEL 4
REMARK VINA RESULT:      -8.6      2.800      6.938
REMARK  4 active torsions:
REMARK  status: ('A' for Active; 'I' for Inactive)
REMARK    1  A    between atoms: C5_5  and  C6_6 
REMARK    2  A    between atoms: C8_8  and  C9_9 
REMARK    3  A    between atoms: N2_12  and  C10_13 
REMARK    4  A    between atoms: C11_15  and  C12_16 
ROOT
HETATM    1  C6  UNL     1      25.575   1.542  53.418  1.00  0.00     0.151 C 
HETATM    2  C7  UNL     1      26.667   0.757  54.051  1.00  0.00     0.096 C 
HETATM    3  C8  UNL     1      27.192  -0.055  52.938  1.00  0.00     0.094 C 
HETATM    4  N1  UNL     1      26.777   0.449  51.820  1.00  0.00    -0.171 NA
HETATM    5  N2  UNL     1      25.992   1.562  52.029  1.00  0.00    -0.236 N 
ENDROOT
BRANCH   5   6
HETATM    6  C10 UNL     1      25.689   2.511  51.026  1.00  0.00     0.190 A 
HETATM    7  N3  UNL     1      26.353   3.374  50.467  1.00  0.00    -0.222 NA
HETATM    8  C11 UNL     1      25.892   4.178  49.541  1.00  0.00     0.076 A 
HETATM    9  C18 UNL     1      24.529   4.032  49.166  1.00  0.00     0.086 A 
HETATM   10  S1  UNL     1      24.035   2.604  50.317  1.00  0.00    -0.060 SA
BRANCH   8  11
HETATM   11  C12 UNL     1      26.761   5.177  48.933  1.00  0.00    -0.007 A 
HETATM   12  C13 UNL     1      28.070   4.945  48.567  1.00  0.00     0.014 A 
HETATM   13  C14 UNL     1      28.930   5.846  47.993  1.00  0.00     0.001 A 
HETATM   14  C15 UNL     1      28.450   7.117  47.751  1.00  0.00     0.000 A 
HETATM   15  C16 UNL     1      27.148   7.422  48.090  1.00  0.00     0.001 A 
HETATM   16  C17 UNL     1      26.343   6.462  48.666  1.00  0.00     0.014 A 
ENDBRANCH   8  11
ENDBRANCH   5   6
BRANCH   1  17
HETATM   17  C5  UNL     1      24.245   0.904  53.461  1.00  0.00    -0.033 A 
HETATM   18  C4  UNL     1      24.100  -0.399  53.825  1.00  0.00     0.010 A 
HETATM   19  C3  UNL     1      22.818  -0.896  53.831  1.00  0.00     0.007 A 
HETATM   20  C2  UNL     1      21.682  -0.186  53.501  1.00  0.00    -0.062 A 
HETATM   21  C1  UNL     1      20.334  -0.817  53.540  1.00  0.00     0.048 C 
HETATM   22  C20 UNL     1      21.874   1.149  53.132  1.00  0.00     0.007 A 
HETATM   23  C19 UNL     1      23.154   1.706  53.107  1.00  0.00     0.010 A 
ENDBRANCH   1  17
BRANCH   3  24
HETATM   24  C9  UNL     1      28.052  -1.254  53.018  1.00  0.00     0.287 C 
HETATM   25  O1  UNL     1      27.466  -2.378  53.070  1.00  0.00    -0.300 OA
ENDBRANCH   3  24
TORSDOF 4
ENDMDL
MODEL 5
REMARK VINA RESULT:      -8.3      4.033      6.891
REMARK  4 active torsions:
REMARK  status: ('A' for Active; 'I' for Inactive)
REMARK    1  A    between atoms: C5_5  and  C6_6 
REMARK    2  A    between atoms: C8_8  and  C9_9 
REMARK    3  A    between atoms: N2_12  and  C10_13 
REMARK    4  A    between atoms: C11_15  and  C12_16 
ROOT
HETATM    1  C6  UNL     1      23.315   5.544  49.061  1.00  0.00     0.151 C 
HETATM    2  C7  UNL     1      22.522   6.001  47.890  1.00  0.00     0.096 C 
HETATM    3  C8  UNL     1      22.290   4.759  47.130  1.00  0.00     0.094 C 
HETATM    4  N1  UNL     1      22.533   3.747  47.900  1.00  0.00    -0.171 NA
HETATM    5  N2  UNL     1      22.924   4.151  49.157  1.00  0.00    -0.236 N 
ENDROOT
BRANCH   5   6
HETATM    6  C10 UNL     1      22.919   3.308  50.292  1.00  0.00     0.190 A 
HETATM    7  N3  UNL     1      23.747   2.540  50.763  1.00  0.00    -0.222 NA
HETATM    8  C11 UNL     1      23.562   1.826  51.847  1.00  0.00     0.076 A 
HETATM    9  C18 UNL     1      22.314   1.960  52.514  1.00  0.00     0.086 A 
HETATM   10  S1  UNL     1      21.480   3.230  51.375  1.00  0.00    -0.060 SA
BRANCH   8  11
HETATM   11  C12 UNL     1      24.610   0.936  52.331  1.00  0.00    -0.007 A 
HETATM   12  C13 UNL     1      25.888   0.895  51.819  1.00  0.00     0.014 A 
HETATM   13  C14 UNL     1      26.910   0.080  52.235  1.00  0.00     0.001 A 
HETATM   14  C15 UNL     1      26.643  -0.792  53.271  1.00  0.00     0.000 A 
HETATM   15  C16 UNL     1      25.385  -0.806  53.834  1.00  0.00     0.001 A 
HETATM   16  C17 UNL     1      24.408   0.044  53.360  1.00  0.00     0.014 A 
ENDBRANCH   8  11
ENDBRANCH   5   6
BRANCH   1  17
HETATM   17  C5  UNL     1      24.778   5.570  48.870  1.00  0.00    -0.033 A 
HETATM   18  C4  UNL     1      25.402   6.661  48.350  1.00  0.00     0.010 A 
HETATM   19  C3  UNL     1      26.768   6.582  48.214  1.00  0.00     0.007 A 
HETATM   20  C2  UNL     1      27.545   5.495  48.558  1.00  0.00    -0.062 A 
HETATM   21  C1  UNL     1      29.023   5.507  48.370  1.00  0.00     0.048 C 
HETATM   22  C20 UNL     1      26.866   4.394  49.088  1.00  0.00     0.007 A 
HETATM   23  C19 UNL     1      25.479   4.419  49.248  1.00  0.00     0.010 A 
ENDBRANCH   1  17
BRANCH   3  24
HETATM   24  C9  UNL     1      21.853   4.625  45.726  1.00  0.00     0.287 C 
HETATM   25  O1  UNL     1      22.172   3.554  45.125  1.00  0.00    -0.300 OA
ENDBRANCH   3  24
TORSDOF 4
ENDMDL
MODEL 6
REMARK VINA RESULT:      -8.3      4.073      7.140
REMARK  4 active torsions:
REMARK  status: ('A' for Active; 'I' for Inactive)
REMARK    1  A    between atoms: C5_5  and  C6_6 
REMARK    2  A    between atoms: C8_8  and  C9_9 
REMARK    3  A    between atoms: N2_12  and  C10_13 
REMARK    4  A    between atoms: C11_15  and  C12_16 
ROOT
HETATM    1  C6  UNL     1      24.296   5.370  50.194  1.00  0.00     0.151 C 
HETATM    2  C7  UNL     1      23.182   6.008  49.445  1.00  0.00     0.096 C 
HETATM    3  C8  UNL     1      22.706   4.930  48.559  1.00  0.00     0.094 C 
HETATM    4  N1  UNL     1      23.166   3.800  48.992  1.00  0.00    -0.171 NA
HETATM    5  N2  UNL     1      23.937   3.967  50.121  1.00  0.00    -0.236 N 
ENDROOT
BRANCH   5   6
HETATM    6  C10 UNL     1      24.278   2.918  51.004  1.00  0.00     0.190 A 
HETATM    7  N3  UNL     1      25.283   2.673  51.659  1.00  0.00    -0.222 NA
HETATM    8  C11 UNL     1      25.421   1.630  52.440  1.00  0.00     0.076 A 
HETATM    9  C18 UNL     1      24.326   0.728  52.527  1.00  0.00     0.086 A 
HETATM   10  S1  UNL     1      23.111   1.589  51.350  1.00  0.00    -0.060 SA
BRANCH   8  11
HETATM   11  C12 UNL     1      26.659   1.422  53.181  1.00  0.00    -0.007 A 
HETATM   12  C13 UNL     1      26.874   0.376  54.051  1.00  0.00     0.014 A 
HETATM   13  C14 UNL     1      28.016   0.134  54.772  1.00  0.00     0.001 A 
HETATM   14  C15 UNL     1      29.063   1.019  54.618  1.00  0.00     0.000 A 
HETATM   15  C16 UNL     1      28.920   2.091  53.762  1.00  0.00     0.001 A 
HETATM   16  C17 UNL     1      27.740   2.269  53.072  1.00  0.00     0.014 A 
ENDBRANCH   8  11
ENDBRANCH   5   6
BRANCH   1  17
HETATM   17  C5  UNL     1      25.626   5.509  49.568  1.00  0.00    -0.033 A 
HETATM   18  C4  UNL     1      26.398   4.421  49.304  1.00  0.00     0.010 A 
HETATM   19  C3  UNL     1      27.619   4.660  48.720  1.00  0.00     0.007 A 
HETATM   20  C2  UNL     1      28.117   5.903  48.386  1.00  0.00    -0.062 A 
HETATM   21  C1  UNL     1      29.457   6.057  47.754  1.00  0.00     0.048 C 
HETATM   22  C20 UNL     1      27.294   6.995  48.673  1.00  0.00     0.007 A 
HETATM   23  C19 UNL     1      26.043   6.811  49.267  1.00  0.00     0.010 A 
ENDBRANCH   1  17
BRANCH   3  24
HETATM   24  C9  UNL     1      21.848   5.053  47.363  1.00  0.00     0.287 C 
HETATM   25  O1  UNL     1      22.272   4.516  46.295  1.00  0.00    -0.300 OA
ENDBRANCH   3  24
TORSDOF 4
ENDMDL
MODEL 7
REMARK VINA RESULT:      -8.2      7.208     11.357
REMARK  4 active torsions:
REMARK  status: ('A' for Active; 'I' for Inactive)
REMARK    1  A    between atoms: C5_5  and  C6_6 
REMARK    2  A    between atoms: C8_8  and  C9_9 
REMARK    3  A    between atoms: N2_12  and  C10_13 
REMARK    4  A    between atoms: C11_15  and  C12_16 
ROOT
HETATM    1  C6  UNL     1      27.790   7.350  47.410  1.00  0.00     0.151 C 
HETATM    2  C7  UNL     1      26.949   8.550  47.166  1.00  0.00     0.096 C 
HETATM    3  C8  UNL     1      27.247   9.415  48.323  1.00  0.00     0.094 C 
HETATM    4  N1  UNL     1      28.330   8.993  48.892  1.00  0.00    -0.171 NA
HETATM    5  N2  UNL     1      28.845   7.892  48.245  1.00  0.00    -0.236 N 
ENDROOT
BRANCH   5   6
HETATM    6  C10 UNL     1      30.171   7.430  48.410  1.00  0.00     0.190 A 
HETATM    7  N3  UNL     1      30.756   6.423  48.032  1.00  0.00    -0.222 NA
HETATM    8  C11 UNL     1      32.014   6.159  48.287  1.00  0.00     0.076 A 
HETATM    9  C18 UNL     1      32.740   7.110  49.054  1.00  0.00     0.086 A 
HETATM   10  S1  UNL     1      31.374   8.398  49.339  1.00  0.00    -0.060 SA
BRANCH   8  11
HETATM   11  C12 UNL     1      32.624   4.931  47.793  1.00  0.00    -0.007 A 
HETATM   12  C13 UNL     1      33.963   4.630  47.913  1.00  0.00     0.014 A 
HETATM   13  C14 UNL     1      34.588   3.492  47.468  1.00  0.00     0.001 A 
HETATM   14  C15 UNL     1      33.808   2.547  46.835  1.00  0.00     0.000 A 
HETATM   15  C16 UNL     1      32.458   2.780  46.679  1.00  0.00     0.001 A 
HETATM   16  C17 UNL     1      31.901   3.949  47.153  1.00  0.00     0.014 A 
ENDBRANCH   8  11
ENDBRANCH   5   6
BRANCH   1  17
HETATM   17  C5  UNL     1      27.135   6.277  48.184  1.00  0.00    -0.033 A 
HETATM   18  C4  UNL     1      27.799   5.134  48.505  1.00  0.00     0.010 A 
HETATM   19  C3  UNL     1      27.097   4.198  49.228  1.00  0.00     0.007 A 
HETATM   20  C2  UNL     1      25.789   4.327  49.647  1.00  0.00    -0.062 A 
HETATM   21  C1  UNL     1      25.115   3.253  50.429  1.00  0.00     0.048 C 
HETATM   22  C20 UNL     1      25.142   5.516  49.297  1.00  0.00     0.007 A 
HETATM   23  C19 UNL     1      25.806   6.501  48.563  1.00  0.00     0.010 A 
ENDBRANCH   1  17
BRANCH   3  24
HETATM   24  C9  UNL     1      26.478  10.581  48.803  1.00  0.00     0.287 C 
HETATM   25  O1  UNL     1      27.124  11.657  48.990  1.00  0.00    -0.300 OA
ENDBRANCH   3  24
TORSDOF 4
ENDMDL
MODEL 8
REMARK VINA RESULT:      -8.1      3.124      6.655
REMARK  4 active torsions:
REMARK  status: ('A' for Active; 'I' for Inactive)
REMARK    1  A    between atoms: C5_5  and  C6_6 
REMARK    2  A    between atoms: C8_8  and  C9_9 
REMARK    3  A    between atoms: N2_12  and  C10_13 
REMARK    4  A    between atoms: C11_15  and  C12_16 
ROOT
HETATM    1  C6  UNL     1      24.043   3.172  49.562  1.00  0.00     0.151 C 
HETATM    2  C7  UNL     1      24.536   4.537  49.242  1.00  0.00     0.096 C 
HETATM    3  C8  UNL     1      24.488   5.231  50.542  1.00  0.00     0.094 C 
HETATM    4  N1  UNL     1      24.389   4.347  51.483  1.00  0.00    -0.171 NA
HETATM    5  N2  UNL     1      24.360   3.068  50.974  1.00  0.00    -0.236 N 
ENDROOT
BRANCH   5   6
HETATM    6  C10 UNL     1      24.604   1.908  51.744  1.00  0.00     0.190 A 
HETATM    7  N3  UNL     1      25.610   1.243  51.954  1.00  0.00    -0.222 NA
HETATM    8  C11 UNL     1      25.646   0.176  52.713  1.00  0.00     0.076 A 
HETATM    9  C18 UNL     1      24.432  -0.230  53.331  1.00  0.00     0.086 A 
HETATM   10  S1  UNL     1      23.273   1.121  52.669  1.00  0.00    -0.060 SA
BRANCH   8  11
HETATM   11  C12 UNL     1      26.894  -0.552  52.903  1.00  0.00    -0.007 A 
HETATM   12  C13 UNL     1      28.068   0.025  53.334  1.00  0.00     0.014 A 
HETATM   13  C14 UNL     1      29.269  -0.612  53.529  1.00  0.00     0.001 A 
HETATM   14  C15 UNL     1      29.318  -1.966  53.270  1.00  0.00     0.000 A 
HETATM   15  C16 UNL     1      28.179  -2.611  52.835  1.00  0.00     0.001 A 
HETATM   16  C17 UNL     1      27.009  -1.903  52.662  1.00  0.00     0.014 A 
ENDBRANCH   8  11
ENDBRANCH   5   6
BRANCH   1  17
HETATM   17  C5  UNL     1      22.585   2.990  49.432  1.00  0.00    -0.033 A 
HETATM   18  C4  UNL     1      21.726   4.031  49.604  1.00  0.00     0.010 A 
HETATM   19  C3  UNL     1      20.387   3.755  49.461  1.00  0.00     0.007 A 
HETATM   20  C2  UNL     1      19.853   2.518  49.161  1.00  0.00    -0.062 A 
HETATM   21  C1  UNL     1      18.383   2.321  49.026  1.00  0.00     0.048 C 
HETATM   22  C20 UNL     1      20.768   1.475  48.992  1.00  0.00     0.007 A 
HETATM   23  C19 UNL     1      22.140   1.699  49.126  1.00  0.00     0.010 A 
ENDBRANCH   1  17
BRANCH   3  24
HETATM   24  C9  UNL     1      24.542   6.685  50.795  1.00  0.00     0.287 C 
HETATM   25  O1  UNL     1      23.434   7.277  50.977  1.00  0.00    -0.300 OA
ENDBRANCH   3  24
TORSDOF 4
ENDMDL
MODEL 9
REMARK VINA RESULT:      -7.9      2.776      6.974
REMARK  4 active torsions:
REMARK  status: ('A' for Active; 'I' for Inactive)
REMARK    1  A    between atoms: C5_5  and  C6_6 
REMARK    2  A    between atoms: C8_8  and  C9_9 
REMARK    3  A    between atoms: N2_12  and  C10_13 
REMARK    4  A    between atoms: C11_15  and  C12_16 
ROOT
HETATM    1  C6  UNL     1      24.731   1.824  53.125  1.00  0.00     0.151 C 
HETATM    2  C7  UNL     1      25.750   0.958  53.774  1.00  0.00     0.096 C 
HETATM    3  C8  UNL     1      26.335   0.215  52.643  1.00  0.00     0.094 C 
HETATM    4  N1  UNL     1      26.021   0.816  51.541  1.00  0.00    -0.171 NA
HETATM    5  N2  UNL     1      25.254   1.935  51.776  1.00  0.00    -0.236 N 
ENDROOT
BRANCH   5   6
HETATM    6  C10 UNL     1      25.055   2.966  50.831  1.00  0.00     0.190 A 
HETATM    7  N3  UNL     1      25.690   3.975  50.550  1.00  0.00    -0.222 NA
HETATM    8  C11 UNL     1      25.343   4.833  49.623  1.00  0.00     0.076 A 
HETATM    9  C18 UNL     1      24.149   4.569  48.899  1.00  0.00     0.086 A 
HETATM   10  S1  UNL     1      23.624   2.947  49.735  1.00  0.00    -0.060 SA
BRANCH   8  11
HETATM   11  C12 UNL     1      26.166   6.008  49.361  1.00  0.00    -0.007 A 
HETATM   12  C13 UNL     1      25.980   7.232  49.965  1.00  0.00     0.014 A 
HETATM   13  C14 UNL     1      26.723   8.367  49.756  1.00  0.00     0.001 A 
HETATM   14  C15 UNL     1      27.763   8.288  48.854  1.00  0.00     0.000 A 
HETATM   15  C16 UNL     1      28.009   7.092  48.212  1.00  0.00     0.001 A 
HETATM   16  C17 UNL     1      27.218   5.994  48.473  1.00  0.00     0.014 A 
ENDBRANCH   8  11
ENDBRANCH   5   6
BRANCH   1  17
HETATM   17  C5  UNL     1      23.385   1.229  53.019  1.00  0.00    -0.033 A 
HETATM   18  C4  UNL     1      23.196  -0.113  53.137  1.00  0.00     0.010 A 
HETATM   19  C3  UNL     1      21.902  -0.564  53.022  1.00  0.00     0.007 A 
HETATM   20  C2  UNL     1      20.795   0.228  52.799  1.00  0.00    -0.062 A 
HETATM   21  C1  UNL     1      19.431  -0.359  52.690  1.00  0.00     0.048 C 
HETATM   22  C20 UNL     1      21.031   1.601  52.683  1.00  0.00     0.007 A 
HETATM   23  C19 UNL     1      22.325   2.115  52.791  1.00  0.00     0.010 A 
ENDBRANCH   1  17
BRANCH   3  24
HETATM   24  C9  UNL     1      27.153  -1.014  52.694  1.00  0.00     0.287 C 
HETATM   25  O1  UNL     1      27.684  -1.305  53.808  1.00  0.00    -0.300 OA
ENDBRANCH   3  24
TORSDOF 4
ENDMDL
