MODEL 1
REMARK VINA RESULT:      -8.7      0.000      0.000
REMARK  2 active torsions:
REMARK  status: ('A' for Active; 'I' for Inactive)
REMARK    1  A    between atoms: N1_1  and  C1_2 
REMARK    2  A    between atoms: C6_8  and  C7_9 
ROOT
HETATM    1  C1  UNL     1      26.298   1.356  52.999  1.00  0.00     0.268 A 
HETATM    2  N2  UNL     1      25.143   0.404  52.526  1.00  0.00    -0.011 N 
HETATM    3  C2  UNL     1      24.004   0.849  52.704  1.00  0.00     0.236 A 
HETATM    4  C3  UNL     1      25.297   1.285  52.131  1.00  0.00     0.193 A 
HETATM    5  C4  UNL     1      25.178   2.655  51.651  1.00  0.00     0.086 A 
HETATM    6  C5  UNL     1      25.474   3.882  51.103  1.00  0.00    -0.000 A 
HETATM    7  C6  UNL     1      26.663   3.176  51.043  1.00  0.00     0.060 A 
HETATM    8  C7  UNL     1      26.589   1.845  51.536  1.00  0.00     0.075 A 
HETATM    9  C8  UNL     1      26.691   0.651  51.930  1.00  0.00     0.257 A 
HETATM   10  N3  UNL     1      25.409   5.132  50.671  1.00  0.00    -0.372 N 
HETATM   11  C9  UNL     1      24.988   4.610  49.413  1.00  0.00     0.085 C 
HETATM   12  C10 UNL     1      24.235   3.858  48.707  1.00  0.00     0.015 C 
HETATM   13  C11 UNL     1      23.172   2.922  48.511  1.00  0.00     0.139 A 
HETATM   14  C12 UNL     1      22.172   2.148  48.819  1.00  0.00     0.018 A 
HETATM   15 CL1  UNL     1      22.178   1.752  47.153  1.00  0.00    -0.172 Cl
HETATM   16  C13 UNL     1      21.403   1.611  49.916  1.00  0.00     0.016 C 
HETATM   17  C14 UNL     1      20.783   1.185  50.975  1.00  0.00    -0.021 C 
HETATM   18  C15 UNL     1      21.244   1.579  52.290  1.00  0.00     0.067 C 
HETATM   19  C16 UNL     1      21.821   0.417  53.034  1.00  0.00    -0.028 A 
HETATM   20  C17 UNL     1      20.849  -0.408  53.594  1.00  0.00     0.018 A 
HETATM   21 BR1  UNL     1      18.995  -0.043  53.460  1.00  0.00    -0.051 Br
HETATM   22  C18 UNL     1      21.093  -1.548  54.322  1.00  0.00     0.019 A 
HETATM   23  C19 UNL     1      22.401  -1.930  54.532  1.00  0.00     0.002 A 
HETATM   24  C20 UNL     1      23.387  -1.160  54.013  1.00  0.00     0.010 A 
HETATM   25  C21 UNL     1      23.079  -0.050  53.302  1.00  0.00    -0.008 A 
HETATM   26  H7  UNL     1      25.683   5.631  51.478  1.00  0.00     0.164 HD
ENDROOT
BRANCH   1  27
HETATM   27  N1  UNL     1      25.714   2.373  53.898  1.00  0.00    -0.307 N 
HETATM   28  H1  UNL     1      24.678   2.366  53.715  1.00  0.00     0.120 HD
HETATM   29  H2  UNL     1      26.084   3.308  53.644  1.00  0.00     0.120 HD
ENDBRANCH   1  27
TORSDOF 2
ENDMDL
MODEL 2
REMARK VINA RESULT:      -8.6      3.197      6.644
REMARK  2 active torsions:
REMARK  status: ('A' for Active; 'I' for Inactive)
REMARK    1  A    between atoms: N1_1  and  C1_2 
REMARK    2  A    between atoms: C6_8  and  C7_9 
ROOT
HETATM    1  C1  UNL     1      19.322   1.394  51.019  1.00  0.00     0.268 A 
HETATM    2  N2  UNL     1      20.669   1.571  50.232  1.00  0.00    -0.011 N 
HETATM    3  C2  UNL     1      21.448   2.394  50.724  1.00  0.00     0.236 A 
HETATM    4  C3  UNL     1      20.633   1.235  51.150  1.00  0.00     0.193 A 
HETATM    5  C4  UNL     1      20.799   1.023  52.582  1.00  0.00     0.086 A 
HETATM    6  C5  UNL     1      20.680   0.512  53.853  1.00  0.00    -0.000 A 
HETATM    7  C6  UNL     1      19.833  -0.265  53.083  1.00  0.00     0.060 A 
HETATM    8  C7  UNL     1      19.813   0.068  51.701  1.00  0.00     0.075 A 
HETATM    9  C8  UNL     1      19.683   0.232  50.457  1.00  0.00     0.257 A 
HETATM   10  N3  UNL     1      20.793   0.299  55.155  1.00  0.00    -0.372 N 
HETATM   11  C9  UNL     1      21.902  -0.545  54.859  1.00  0.00     0.085 C 
HETATM   12  C10 UNL     1      23.016  -0.769  54.277  1.00  0.00     0.015 C 
HETATM   13  C11 UNL     1      24.134  -0.414  53.458  1.00  0.00     0.139 A 
HETATM   14  C12 UNL     1      24.900   0.335  52.719  1.00  0.00     0.018 A 
HETATM   15 CL1  UNL     1      25.862  -1.075  52.579  1.00  0.00    -0.172 Cl
HETATM   16  C13 UNL     1      25.010   1.623  52.078  1.00  0.00     0.016 C 
HETATM   17  C14 UNL     1      25.003   2.806  51.542  1.00  0.00    -0.021 C 
HETATM   18  C15 UNL     1      23.847   3.664  51.701  1.00  0.00     0.067 C 
HETATM   19  C16 UNL     1      23.130   3.853  50.402  1.00  0.00    -0.028 A 
HETATM   20  C17 UNL     1      23.742   4.789  49.572  1.00  0.00     0.018 A 
HETATM   21 BR1  UNL     1      25.293   5.750  50.082  1.00  0.00    -0.051 Br
HETATM   22  C18 UNL     1      23.305   5.154  48.321  1.00  0.00     0.019 A 
HETATM   23  C19 UNL     1      22.165   4.560  47.821  1.00  0.00     0.002 A 
HETATM   24  C20 UNL     1      21.526   3.646  48.589  1.00  0.00     0.010 A 
HETATM   25  C21 UNL     1      22.012   3.328  49.813  1.00  0.00    -0.008 A 
HETATM   26  H7  UNL     1      20.054   0.853  55.507  1.00  0.00     0.164 HD
ENDROOT
BRANCH   1  27
HETATM   27  N1  UNL     1      19.167   2.549  51.928  1.00  0.00    -0.307 N 
HETATM   28  H1  UNL     1      20.077   3.076  51.890  1.00  0.00     0.120 HD
HETATM   29  H2  UNL     1      19.027   2.206  52.897  1.00  0.00     0.120 HD
ENDBRANCH   1  27
TORSDOF 2
ENDMDL
MODEL 3
REMARK VINA RESULT:      -8.6      2.756      4.205
REMARK  2 active torsions:
REMARK  status: ('A' for Active; 'I' for Inactive)
REMARK    1  A    between atoms: N1_1  and  C1_2 
REMARK    2  A    between atoms: C6_8  and  C7_9 
ROOT
HETATM    1  C1  UNL     1      21.471  -0.741  54.324  1.00  0.00     0.268 A 
HETATM    2  N2  UNL     1      20.561  -1.000  53.072  1.00  0.00    -0.011 N 
HETATM    3  C2  UNL     1      19.849  -0.043  52.746  1.00  0.00     0.236 A 
HETATM    4  C3  UNL     1      21.263  -0.320  53.083  1.00  0.00     0.193 A 
HETATM    5  C4  UNL     1      22.029   0.918  53.020  1.00  0.00     0.086 A 
HETATM    6  C5  UNL     1      23.063   1.823  53.080  1.00  0.00    -0.000 A 
HETATM    7  C6  UNL     1      23.632   0.618  53.452  1.00  0.00     0.060 A 
HETATM    8  C7  UNL     1      22.741  -0.490  53.436  1.00  0.00     0.075 A 
HETATM    9  C8  UNL     1      22.088  -1.568  53.469  1.00  0.00     0.257 A 
HETATM   10  N3  UNL     1      23.788   2.931  53.051  1.00  0.00    -0.372 N 
HETATM   11  C9  UNL     1      24.027   2.665  51.671  1.00  0.00     0.085 C 
HETATM   12  C10 UNL     1      23.615   2.374  50.498  1.00  0.00     0.015 C 
HETATM   13  C11 UNL     1      22.610   2.089  49.521  1.00  0.00     0.139 A 
HETATM   14  C12 UNL     1      21.416   1.923  49.030  1.00  0.00     0.018 A 
HETATM   15 CL1  UNL     1      22.245   1.545  47.580  1.00  0.00    -0.172 Cl
HETATM   16  C13 UNL     1      20.013   1.861  49.361  1.00  0.00     0.016 C 
HETATM   17  C14 UNL     1      18.781   1.820  49.770  1.00  0.00    -0.021 C 
HETATM   18  C15 UNL     1      18.483   1.957  51.181  1.00  0.00     0.067 C 
HETATM   19  C16 UNL     1      17.964   0.677  51.752  1.00  0.00    -0.028 A 
HETATM   20  C17 UNL     1      16.619   0.455  51.464  1.00  0.00     0.018 A 
HETATM   21 BR1  UNL     1      15.564   1.694  50.492  1.00  0.00    -0.051 Br
HETATM   22  C18 UNL     1      15.888  -0.640  51.856  1.00  0.00     0.019 A 
HETATM   23  C19 UNL     1      16.513  -1.619  52.599  1.00  0.00     0.002 A 
HETATM   24  C20 UNL     1      17.820  -1.453  52.913  1.00  0.00     0.010 A 
HETATM   25  C21 UNL     1      18.485  -0.350  52.492  1.00  0.00    -0.008 A 
HETATM   26  H7  UNL     1      23.704   3.243  53.985  1.00  0.00     0.164 HD
ENDROOT
BRANCH   1  27
HETATM   27  N1  UNL     1      20.953   0.448  55.030  1.00  0.00    -0.307 N 
HETATM   28  H1  UNL     1      21.407   1.281  54.575  1.00  0.00     0.120 HD
HETATM   29  H2  UNL     1      21.251   0.415  56.023  1.00  0.00     0.120 HD
ENDBRANCH   1  27
TORSDOF 2
ENDMDL
MODEL 4
REMARK VINA RESULT:      -8.6      2.999      4.975
REMARK  2 active torsions:
REMARK  status: ('A' for Active; 'I' for Inactive)
REMARK    1  A    between atoms: N1_1  and  C1_2 
REMARK    2  A    between atoms: C6_8  and  C7_9 
ROOT
HETATM    1  C1  UNL     1      26.796   6.581  49.429  1.00  0.00     0.268 A 
HETATM    2  N2  UNL     1      26.420   5.074  49.210  1.00  0.00    -0.011 N 
HETATM    3  C2  UNL     1      25.383   4.714  49.779  1.00  0.00     0.236 A 
HETATM    4  C3  UNL     1      25.853   5.809  48.903  1.00  0.00     0.193 A 
HETATM    5  C4  UNL     1      24.760   6.741  48.660  1.00  0.00     0.086 A 
HETATM    6  C5  UNL     1      24.032   7.818  48.209  1.00  0.00    -0.000 A 
HETATM    7  C6  UNL     1      25.303   8.020  47.703  1.00  0.00     0.060 A 
HETATM    8  C7  UNL     1      26.239   6.997  48.021  1.00  0.00     0.075 A 
HETATM    9  C8  UNL     1      27.183   6.182  48.210  1.00  0.00     0.257 A 
HETATM   10  N3  UNL     1      23.067   8.696  47.980  1.00  0.00    -0.372 N 
HETATM   11  C9  UNL     1      22.699   7.905  46.854  1.00  0.00     0.085 C 
HETATM   12  C10 UNL     1      22.411   6.781  46.318  1.00  0.00     0.015 C 
HETATM   13  C11 UNL     1      22.177   5.371  46.335  1.00  0.00     0.139 A 
HETATM   14  C12 UNL     1      22.044   4.175  46.831  1.00  0.00     0.018 A 
HETATM   15 CL1  UNL     1      21.774   3.710  45.205  1.00  0.00    -0.172 Cl
HETATM   16  C13 UNL     1      22.175   3.384  48.031  1.00  0.00     0.016 C 
HETATM   17  C14 UNL     1      22.331   2.770  49.165  1.00  0.00    -0.021 C 
HETATM   18  C15 UNL     1      22.825   3.493  50.318  1.00  0.00     0.067 C 
HETATM   19  C16 UNL     1      24.198   3.037  50.697  1.00  0.00    -0.028 A 
HETATM   20  C17 UNL     1      24.197   1.843  51.416  1.00  0.00     0.018 A 
HETATM   21 BR1  UNL     1      22.602   0.940  51.897  1.00  0.00    -0.051 Br
HETATM   22  C18 UNL     1      25.312   1.192  51.884  1.00  0.00     0.019 A 
HETATM   23  C19 UNL     1      26.551   1.744  51.637  1.00  0.00     0.002 A 
HETATM   24  C20 UNL     1      26.611   2.908  50.947  1.00  0.00     0.010 A 
HETATM   25  C21 UNL     1      25.473   3.498  50.510  1.00  0.00    -0.008 A 
HETATM   26  H7  UNL     1      23.203   9.332  48.724  1.00  0.00     0.164 HD
ENDROOT
BRANCH   1  27
HETATM   27  N1  UNL     1      26.024   7.084  50.584  1.00  0.00    -0.307 N 
HETATM   28  H1  UNL     1      25.592   7.992  50.275  1.00  0.00     0.120 HD
HETATM   29  H2  UNL     1      26.671   7.280  51.370  1.00  0.00     0.120 HD
ENDBRANCH   1  27
TORSDOF 2
ENDMDL
MODEL 5
REMARK VINA RESULT:      -8.5      2.357      3.790
REMARK  2 active torsions:
REMARK  status: ('A' for Active; 'I' for Inactive)
REMARK    1  A    between atoms: N1_1  and  C1_2 
REMARK    2  A    between atoms: C6_8  and  C7_9 
ROOT
HETATM    1  C1  UNL     1      24.794   4.053  50.244  1.00  0.00     0.268 A 
HETATM    2  N2  UNL     1      24.496   2.524  50.434  1.00  0.00    -0.011 N 
HETATM    3  C2  UNL     1      23.971   2.232  51.514  1.00  0.00     0.236 A 
HETATM    4  C3  UNL     1      23.791   3.200  50.410  1.00  0.00     0.193 A 
HETATM    5  C4  UNL     1      22.661   4.072  50.707  1.00  0.00     0.086 A 
HETATM    6  C5  UNL     1      21.712   5.063  50.616  1.00  0.00    -0.000 A 
HETATM    7  C6  UNL     1      22.482   5.211  49.476  1.00  0.00     0.060 A 
HETATM    8  C7  UNL     1      23.529   4.258  49.338  1.00  0.00     0.075 A 
HETATM    9  C8  UNL     1      24.493   3.492  49.065  1.00  0.00     0.257 A 
HETATM   10  N3  UNL     1      20.703   5.885  50.860  1.00  0.00    -0.372 N 
HETATM   11  C9  UNL     1      19.856   4.938  50.214  1.00  0.00     0.085 C 
HETATM   12  C10 UNL     1      19.427   3.746  50.052  1.00  0.00     0.015 C 
HETATM   13  C11 UNL     1      19.367   2.348  50.349  1.00  0.00     0.139 A 
HETATM   14  C12 UNL     1      19.631   1.232  50.963  1.00  0.00     0.018 A 
HETATM   15 CL1  UNL     1      18.567   0.539  49.814  1.00  0.00    -0.172 Cl
HETATM   16  C13 UNL     1      20.463   0.620  51.972  1.00  0.00     0.016 C 
HETATM   17  C14 UNL     1      21.262   0.174  52.892  1.00  0.00    -0.021 C 
HETATM   18  C15 UNL     1      22.235   1.060  53.498  1.00  0.00     0.067 C 
HETATM   19  C16 UNL     1      23.628   0.682  53.109  1.00  0.00    -0.028 A 
HETATM   20  C17 UNL     1      24.124  -0.398  53.835  1.00  0.00     0.018 A 
HETATM   21 BR1  UNL     1      23.134  -1.249  55.208  1.00  0.00    -0.051 Br
HETATM   22  C18 UNL     1      25.369  -0.960  53.682  1.00  0.00     0.019 A 
HETATM   23  C19 UNL     1      26.221  -0.429  52.736  1.00  0.00     0.002 A 
HETATM   24  C20 UNL     1      25.792   0.627  52.005  1.00  0.00     0.010 A 
HETATM   25  C21 UNL     1      24.551   1.132  52.203  1.00  0.00    -0.008 A 
HETATM   26  H7  UNL     1      21.162   6.622  51.332  1.00  0.00     0.164 HD
ENDROOT
BRANCH   1  27
HETATM   27  N1  UNL     1      24.729   4.701  51.570  1.00  0.00    -0.307 N 
HETATM   28  H1  UNL     1      25.389   4.166  52.191  1.00  0.00     0.120 HD
HETATM   29  H2  UNL     1      23.770   4.605  51.953  1.00  0.00     0.120 HD
ENDBRANCH   1  27
TORSDOF 2
ENDMDL
MODEL 6
REMARK VINA RESULT:      -8.4      8.110     10.843
REMARK  2 active torsions:
REMARK  status: ('A' for Active; 'I' for Inactive)
REMARK    1  A    between atoms: N1_1  and  C1_2 
REMARK    2  A    between atoms: C6_8  and  C7_9 
ROOT
HETATM    1  C1  UNL     1      32.305   4.872  48.150  1.00  0.00     0.268 A 
HETATM    2  N2  UNL     1      31.050   5.580  47.528  1.00  0.00    -0.011 N 
HETATM    3  C2  UNL     1      30.616   6.532  48.188  1.00  0.00     0.236 A 
HETATM    4  C3  UNL     1      31.905   6.037  47.655  1.00  0.00     0.193 A 
HETATM    5  C4  UNL     1      32.974   6.947  48.046  1.00  0.00     0.086 A 
HETATM    6  C5  UNL     1      34.214   7.520  48.205  1.00  0.00    -0.000 A 
HETATM    7  C6  UNL     1      34.453   6.362  47.486  1.00  0.00     0.060 A 
HETATM    8  C7  UNL     1      33.290   5.606  47.173  1.00  0.00     0.075 A 
HETATM    9  C8  UNL     1      32.366   4.827  46.813  1.00  0.00     0.257 A 
HETATM   10  N3  UNL     1      35.214   8.314  48.556  1.00  0.00    -0.372 N 
HETATM   11  C9  UNL     1      34.965   9.052  47.363  1.00  0.00     0.085 C 
HETATM   12  C10 UNL     1      34.174   9.662  46.567  1.00  0.00     0.015 C 
HETATM   13  C11 UNL     1      32.901  10.167  46.154  1.00  0.00     0.139 A 
HETATM   14  C12 UNL     1      31.629  10.435  46.220  1.00  0.00     0.018 A 
HETATM   15 CL1  UNL     1      31.860  11.114  44.665  1.00  0.00    -0.172 Cl
HETATM   16  C13 UNL     1      30.428  10.226  46.992  1.00  0.00     0.016 C 
HETATM   17  C14 UNL     1      29.411   9.972  47.758  1.00  0.00    -0.021 C 
HETATM   18  C15 UNL     1      29.574   9.120  48.918  1.00  0.00     0.067 C 
HETATM   19  C16 UNL     1      28.857   7.820  48.742  1.00  0.00    -0.028 A 
HETATM   20  C17 UNL     1      27.487   7.916  48.975  1.00  0.00     0.018 A 
HETATM   21 BR1  UNL     1      26.652   9.529  49.513  1.00  0.00    -0.051 Br
HETATM   22  C18 UNL     1      26.586   6.883  48.879  1.00  0.00     0.019 A 
HETATM   23  C19 UNL     1      27.050   5.634  48.524  1.00  0.00     0.002 A 
HETATM   24  C20 UNL     1      28.376   5.482  48.291  1.00  0.00     0.010 A 
HETATM   25  C21 UNL     1      29.210   6.543  48.400  1.00  0.00    -0.008 A 
HETATM   26  H7  UNL     1      35.496   7.906  49.411  1.00  0.00     0.164 HD
ENDROOT
BRANCH   1  27
HETATM   27  N1  UNL     1      32.406   5.279  49.567  1.00  0.00    -0.307 N 
HETATM   28  H1  UNL     1      31.516   4.958  50.028  1.00  0.00     0.120 HD
HETATM   29  H2  UNL     1      32.450   6.313  49.625  1.00  0.00     0.120 HD
ENDBRANCH   1  27
TORSDOF 2
ENDMDL
MODEL 7
REMARK VINA RESULT:      -8.3      2.678      4.805
REMARK  2 active torsions:
REMARK  status: ('A' for Active; 'I' for Inactive)
REMARK    1  A    between atoms: N1_1  and  C1_2 
REMARK    2  A    between atoms: C6_8  and  C7_9 
ROOT
HETATM    1  C1  UNL     1      23.607   4.306  51.474  1.00  0.00     0.268 A 
HETATM    2  N2  UNL     1      22.340   3.762  52.222  1.00  0.00    -0.011 N 
HETATM    3  C2  UNL     1      21.823   2.766  51.703  1.00  0.00     0.236 A 
HETATM    4  C3  UNL     1      23.160   3.239  52.125  1.00  0.00     0.193 A 
HETATM    5  C4  UNL     1      24.156   2.221  51.815  1.00  0.00     0.086 A 
HETATM    6  C5  UNL     1      25.353   1.556  51.688  1.00  0.00    -0.000 A 
HETATM    7  C6  UNL     1      25.690   2.776  52.247  1.00  0.00     0.060 A 
HETATM    8  C7  UNL     1      24.588   3.638  52.502  1.00  0.00     0.075 A 
HETATM    9  C8  UNL     1      23.727   4.512  52.792  1.00  0.00     0.257 A 
HETATM   10  N3  UNL     1      26.289   0.662  51.406  1.00  0.00    -0.372 N 
HETATM   11  C9  UNL     1      26.046   0.094  52.690  1.00  0.00     0.085 C 
HETATM   12  C10 UNL     1      25.255  -0.360  53.584  1.00  0.00     0.015 C 
HETATM   13  C11 UNL     1      23.972  -0.728  54.100  1.00  0.00     0.139 A 
HETATM   14  C12 UNL     1      22.686  -0.920  54.112  1.00  0.00     0.018 A 
HETATM   15 CL1  UNL     1      22.941  -1.415  55.731  1.00  0.00    -0.172 Cl
HETATM   16  C13 UNL     1      21.467  -0.733  53.361  1.00  0.00     0.016 C 
HETATM   17  C14 UNL     1      20.436  -0.511  52.604  1.00  0.00    -0.021 C 
HETATM   18  C15 UNL     1      20.601   0.178  51.341  1.00  0.00     0.067 C 
HETATM   19  C16 UNL     1      19.970   1.533  51.376  1.00  0.00    -0.028 A 
HETATM   20  C17 UNL     1      18.588   1.497  51.204  1.00  0.00     0.018 A 
HETATM   21 BR1  UNL     1      17.637  -0.114  50.902  1.00  0.00    -0.051 Br
HETATM   22  C18 UNL     1      17.755   2.589  51.200  1.00  0.00     0.019 A 
HETATM   23  C19 UNL     1      18.306   3.840  51.378  1.00  0.00     0.002 A 
HETATM   24  C20 UNL     1      19.646   3.935  51.545  1.00  0.00     0.010 A 
HETATM   25  C21 UNL     1      20.412   2.818  51.542  1.00  0.00    -0.008 A 
HETATM   26  H7  UNL     1      26.558   0.942  50.498  1.00  0.00     0.164 HD
ENDROOT
BRANCH   1  27
HETATM   27  N1  UNL     1      23.625   3.722  50.117  1.00  0.00    -0.307 N 
HETATM   28  H1  UNL     1      24.357   2.967  50.132  1.00  0.00     0.120 HD
HETATM   29  H2  UNL     1      23.916   4.446  49.434  1.00  0.00     0.120 HD
ENDBRANCH   1  27
TORSDOF 2
ENDMDL
MODEL 8
REMARK VINA RESULT:      -8.2      2.577      4.582
REMARK  2 active torsions:
REMARK  status: ('A' for Active; 'I' for Inactive)
REMARK    1  A    between atoms: N1_1  and  C1_2 
REMARK    2  A    between atoms: C6_8  and  C7_9 
ROOT
HETATM    1  C1  UNL     1      25.264   6.338  50.096  1.00  0.00     0.268 A 
HETATM    2  N2  UNL     1      25.092   4.797  49.851  1.00  0.00    -0.011 N 
HETATM    3  C2  UNL     1      24.437   4.207  50.718  1.00  0.00     0.236 A 
HETATM    4  C3  UNL     1      24.336   5.416  49.870  1.00  0.00     0.193 A 
HETATM    5  C4  UNL     1      23.094   6.117  50.169  1.00  0.00     0.086 A 
HETATM    6  C5  UNL     1      22.077   7.043  50.159  1.00  0.00    -0.000 A 
HETATM    7  C6  UNL     1      22.996   7.523  49.243  1.00  0.00     0.060 A 
HETATM    8  C7  UNL     1      24.140   6.699  49.061  1.00  0.00     0.075 A 
HETATM    9  C8  UNL     1      25.205   6.084  48.782  1.00  0.00     0.257 A 
HETATM   10  N3  UNL     1      20.966   7.717  50.417  1.00  0.00    -0.372 N 
HETATM   11  C9  UNL     1      20.327   6.922  49.421  1.00  0.00     0.085 C 
HETATM   12  C10 UNL     1      20.048   5.791  48.899  1.00  0.00     0.015 C 
HETATM   13  C11 UNL     1      20.080   4.363  48.829  1.00  0.00     0.139 A 
HETATM   14  C12 UNL     1      20.355   3.142  49.189  1.00  0.00     0.018 A 
HETATM   15 CL1  UNL     1      19.555   2.711  47.737  1.00  0.00    -0.172 Cl
HETATM   16  C13 UNL     1      21.076   2.339  50.146  1.00  0.00     0.016 C 
HETATM   17  C14 UNL     1      21.764   1.715  51.054  1.00  0.00    -0.021 C 
HETATM   18  C15 UNL     1      22.539   2.468  52.018  1.00  0.00     0.067 C 
HETATM   19  C16 UNL     1      24.006   2.282  51.799  1.00  0.00    -0.028 A 
HETATM   20  C17 UNL     1      24.488   1.080  52.313  1.00  0.00     0.018 A 
HETATM   21 BR1  UNL     1      23.385  -0.149  53.241  1.00  0.00    -0.051 Br
HETATM   22  C18 UNL     1      25.790   0.648  52.247  1.00  0.00     0.019 A 
HETATM   23  C19 UNL     1      26.721   1.452  51.625  1.00  0.00     0.002 A 
HETATM   24  C20 UNL     1      26.310   2.635  51.111  1.00  0.00     0.010 A 
HETATM   25  C21 UNL     1      25.009   3.001  51.207  1.00  0.00    -0.008 A 
HETATM   26  H7  UNL     1      21.272   8.331  51.127  1.00  0.00     0.164 HD
ENDROOT
BRANCH   1  27
HETATM   27  N1  UNL     1      24.931   6.617  51.508  1.00  0.00    -0.307 N 
HETATM   28  H1  UNL     1      23.931   6.942  51.515  1.00  0.00     0.120 HD
HETATM   29  H2  UNL     1      25.528   7.390  51.855  1.00  0.00     0.120 HD
ENDBRANCH   1  27
TORSDOF 2
ENDMDL
MODEL 9
REMARK VINA RESULT:      -8.1      3.235      5.125
REMARK  2 active torsions:
REMARK  status: ('A' for Active; 'I' for Inactive)
REMARK    1  A    between atoms: N1_1  and  C1_2 
REMARK    2  A    between atoms: C6_8  and  C7_9 
ROOT
HETATM    1  C1  UNL     1      18.717   1.963  50.867  1.00  0.00     0.268 A 
HETATM    2  N2  UNL     1      19.759   2.083  52.034  1.00  0.00    -0.011 N 
HETATM    3  C2  UNL     1      20.880   1.632  51.771  1.00  0.00     0.236 A 
HETATM    4  C3  UNL     1      19.873   2.537  51.175  1.00  0.00     0.193 A 
HETATM    5  C4  UNL     1      20.356   3.021  49.888  1.00  0.00     0.086 A 
HETATM    6  C5  UNL     1      20.435   3.672  48.679  1.00  0.00    -0.000 A 
HETATM    7  C6  UNL     1      19.191   4.014  49.179  1.00  0.00     0.060 A 
HETATM    8  C7  UNL     1      18.894   3.469  50.459  1.00  0.00     0.075 A 
HETATM    9  C8  UNL     1      18.481   3.071  51.582  1.00  0.00     0.257 A 
HETATM   10  N3  UNL     1      20.832   4.119  47.498  1.00  0.00    -0.372 N 
HETATM   11  C9  UNL     1      21.451   5.203  48.185  1.00  0.00     0.085 C 
HETATM   12  C10 UNL     1      22.207   5.660  49.108  1.00  0.00     0.015 C 
HETATM   13  C11 UNL     1      23.096   5.537  50.221  1.00  0.00     0.139 A 
HETATM   14  C12 UNL     1      23.829   4.950  51.121  1.00  0.00     0.018 A 
HETATM   15 CL1  UNL     1      24.167   6.544  51.648  1.00  0.00    -0.172 Cl
HETATM   16  C13 UNL     1      24.188   3.671  51.686  1.00  0.00     0.016 C 
HETATM   17  C14 UNL     1      24.436   2.473  52.120  1.00  0.00    -0.021 C 
HETATM   18  C15 UNL     1      23.741   1.338  51.547  1.00  0.00     0.067 C 
HETATM   19  C16 UNL     1      22.795   0.728  52.531  1.00  0.00    -0.028 A 
HETATM   20  C17 UNL     1      23.428  -0.097  53.458  1.00  0.00     0.018 A 
HETATM   21 BR1  UNL     1      25.291  -0.437  53.418  1.00  0.00    -0.051 Br
HETATM   22  C18 UNL     1      22.807  -0.778  54.476  1.00  0.00     0.019 A 
HETATM   23  C19 UNL     1      21.441  -0.654  54.617  1.00  0.00     0.002 A 
HETATM   24  C20 UNL     1      20.773   0.132  53.739  1.00  0.00     0.010 A 
HETATM   25  C21 UNL     1      21.446   0.780  52.758  1.00  0.00    -0.008 A 
HETATM   26  H7  UNL     1      20.461   3.430  46.894  1.00  0.00     0.164 HD
ENDROOT
BRANCH   1  27
HETATM   27  N1  UNL     1      19.232   0.982  49.890  1.00  0.00    -0.307 N 
HETATM   28  H1  UNL     1      18.444   0.794  49.219  1.00  0.00     0.120 HD
HETATM   29  H2  UNL     1      19.463   0.098  50.380  1.00  0.00     0.120 HD
ENDBRANCH   1  27
TORSDOF 2
ENDMDL
