MODEL 1
REMARK VINA RESULT:      -7.2      0.000      0.000
REMARK  8 active torsions:
REMARK  status: ('A' for Active; 'I' for Inactive)
REMARK    1  A    between atoms: C2_2  and  O1_3 
REMARK    2  A    between atoms: C2_2  and  C4_5 
REMARK    3  A    between atoms: C6_7  and  C7_8 
REMARK    4  A    between atoms: C7_8  and  C8_9 
REMARK    5  A    between atoms: C8_9  and  O2_10 
REMARK    6  A    between atoms: O2_10  and  C9_11 
REMARK    7  A    between atoms: C13_17  and  O3_18 
REMARK    8  A    between atoms: C15_20  and  O4_21 
ROOT
HETATM    1  C9  UNL     1      23.599   0.240  53.373  1.00  0.00     0.100 A 
HETATM    2  N1  UNL     1      24.457  -0.280  54.310  1.00  0.00    -0.239 NA
HETATM    3  C10 UNL     1      23.956  -1.175  55.199  1.00  0.00     0.234 A 
HETATM    4  N2  UNL     1      22.681  -1.609  55.245  1.00  0.00    -0.241 NA
HETATM    5  C11 UNL     1      21.820  -1.106  54.320  1.00  0.00     0.073 A 
HETATM    6  C12 UNL     1      20.473  -1.476  54.308  1.00  0.00     0.072 A 
HETATM    7  C13 UNL     1      19.544  -0.966  53.398  1.00  0.00     0.103 A 
HETATM    8  C15 UNL     1      20.029  -0.029  52.448  1.00  0.00     0.102 A 
HETATM    9  C17 UNL     1      21.361   0.300  52.506  1.00  0.00     0.055 A 
HETATM   10  C18 UNL     1      22.299  -0.193  53.405  1.00  0.00     0.027 A 
ENDROOT
BRANCH   1  11
HETATM   11  O2  UNL     1      23.833   1.211  52.326  1.00  0.00     0.000 OA
BRANCH  11  12
HETATM   12  C8  UNL     1      25.104   1.530  52.010  1.00  0.00    -0.021 C 
BRANCH  12  13
HETATM   13  C7  UNL     1      26.345   1.943  51.771  1.00  0.00     0.042 C 
BRANCH  13  14
HETATM   14  C6  UNL     1      26.910   0.632  52.025  1.00  0.00    -0.008 C 
HETATM   15  C4  UNL     1      27.939   0.846  52.865  1.00  0.00    -0.033 C 
HETATM   16  C5  UNL     1      28.452   2.109  53.468  1.00  0.00     0.050 C 
BRANCH  15  17
HETATM   17  C2  UNL     1      28.797  -0.187  53.382  1.00  0.00     0.064 C 
HETATM   18  C1  UNL     1      29.955  -0.658  53.783  1.00  0.00     0.051 C 
BRANCH  17  19
HETATM   19  O1  UNL     1      28.098  -1.399  53.623  1.00  0.00    -0.356 OA
HETATM   20  C3  UNL     1      28.678  -2.581  53.068  1.00  0.00     0.210 C 
ENDBRANCH  17  19
ENDBRANCH  15  17
ENDBRANCH  13  14
ENDBRANCH  12  13
ENDBRANCH  11  12
ENDBRANCH   1  11
BRANCH   8  21
HETATM   21  O4  UNL     1      19.043   0.399  51.602  1.00  0.00    -0.353 OA
HETATM   22  C16 UNL     1      18.825   1.733  51.263  1.00  0.00     0.210 C 
ENDBRANCH   8  21
BRANCH   7  23
HETATM   23  O3  UNL     1      18.217  -1.306  53.372  1.00  0.00    -0.353 OA
HETATM   24  C14 UNL     1      17.762  -2.601  53.637  1.00  0.00     0.210 C 
ENDBRANCH   7  23
TORSDOF 8
ENDMDL
MODEL 2
REMARK VINA RESULT:      -6.9      1.699      7.978
REMARK  8 active torsions:
REMARK  status: ('A' for Active; 'I' for Inactive)
REMARK    1  A    between atoms: C2_2  and  O1_3 
REMARK    2  A    between atoms: C2_2  and  C4_5 
REMARK    3  A    between atoms: C6_7  and  C7_8 
REMARK    4  A    between atoms: C7_8  and  C8_9 
REMARK    5  A    between atoms: C8_9  and  O2_10 
REMARK    6  A    between atoms: O2_10  and  C9_11 
REMARK    7  A    between atoms: C13_17  and  O3_18 
REMARK    8  A    between atoms: C15_20  and  O4_21 
ROOT
HETATM    1  C9  UNL     1      23.078  -0.584  53.610  1.00  0.00     0.100 A 
HETATM    2  N1  UNL     1      22.676  -1.289  54.717  1.00  0.00    -0.239 NA
HETATM    3  C10 UNL     1      23.601  -1.540  55.678  1.00  0.00     0.234 A 
HETATM    4  N2  UNL     1      24.892  -1.155  55.648  1.00  0.00    -0.241 NA
HETATM    5  C11 UNL     1      25.305  -0.451  54.559  1.00  0.00     0.073 A 
HETATM    6  C12 UNL     1      26.631  -0.034  54.427  1.00  0.00     0.072 A 
HETATM    7  C13 UNL     1      27.110   0.665  53.317  1.00  0.00     0.103 A 
HETATM    8  C15 UNL     1      26.172   0.951  52.290  1.00  0.00     0.102 A 
HETATM    9  C17 UNL     1      24.882   0.517  52.470  1.00  0.00     0.055 A 
HETATM   10  C18 UNL     1      24.388  -0.182  53.565  1.00  0.00     0.027 A 
ENDROOT
BRANCH   1  11
HETATM   11  O2  UNL     1      22.337  -0.187  52.432  1.00  0.00     0.000 OA
BRANCH  11  12
HETATM   12  C8  UNL     1      21.046   0.174  52.571  1.00  0.00    -0.021 C 
BRANCH  12  13
HETATM   13  C7  UNL     1      19.801   0.569  52.820  1.00  0.00     0.042 C 
BRANCH  13  14
HETATM   14  C6  UNL     1      19.432  -0.710  53.395  1.00  0.00    -0.008 C 
HETATM   15  C4  UNL     1      18.242  -1.016  52.847  1.00  0.00    -0.033 C 
HETATM   16  C5  UNL     1      17.415  -0.278  51.851  1.00  0.00     0.050 C 
BRANCH  15  17
HETATM   17  C2  UNL     1      17.493  -2.209  53.139  1.00  0.00     0.064 C 
HETATM   18  C1  UNL     1      17.352  -3.411  53.649  1.00  0.00     0.051 C 
BRANCH  17  19
HETATM   19  O1  UNL     1      16.163  -2.146  52.645  1.00  0.00    -0.356 OA
HETATM   20  C3  UNL     1      15.458  -3.386  52.574  1.00  0.00     0.210 C 
ENDBRANCH  17  19
ENDBRANCH  15  17
ENDBRANCH  13  14
ENDBRANCH  12  13
ENDBRANCH  11  12
ENDBRANCH   1  11
BRANCH   8  21
HETATM   21  O4  UNL     1      26.741   1.644  51.256  1.00  0.00    -0.353 OA
HETATM   22  C16 UNL     1      26.229   2.829  50.730  1.00  0.00     0.210 C 
ENDBRANCH   8  21
BRANCH   7  23
HETATM   23  O3  UNL     1      28.407   1.077  53.160  1.00  0.00    -0.353 OA
HETATM   24  C14 UNL     1      29.334   1.075  54.207  1.00  0.00     0.210 C 
ENDBRANCH   7  23
TORSDOF 8
ENDMDL
MODEL 3
REMARK VINA RESULT:      -6.9      3.571      6.764
REMARK  8 active torsions:
REMARK  status: ('A' for Active; 'I' for Inactive)
REMARK    1  A    between atoms: C2_2  and  O1_3 
REMARK    2  A    between atoms: C2_2  and  C4_5 
REMARK    3  A    between atoms: C6_7  and  C7_8 
REMARK    4  A    between atoms: C7_8  and  C8_9 
REMARK    5  A    between atoms: C8_9  and  O2_10 
REMARK    6  A    between atoms: O2_10  and  C9_11 
REMARK    7  A    between atoms: C13_17  and  O3_18 
REMARK    8  A    between atoms: C15_20  and  O4_21 
ROOT
HETATM    1  C9  UNL     1      23.209   2.290  52.593  1.00  0.00     0.100 A 
HETATM    2  N1  UNL     1      22.087   1.599  52.207  1.00  0.00    -0.239 NA
HETATM    3  C10 UNL     1      22.104   0.247  52.326  1.00  0.00     0.234 A 
HETATM    4  N2  UNL     1      23.129  -0.489  52.796  1.00  0.00    -0.241 NA
HETATM    5  C11 UNL     1      24.247   0.181  53.187  1.00  0.00     0.073 A 
HETATM    6  C12 UNL     1      25.370  -0.499  53.662  1.00  0.00     0.072 A 
HETATM    7  C13 UNL     1      26.551   0.140  54.047  1.00  0.00     0.103 A 
HETATM    8  C15 UNL     1      26.572   1.556  53.942  1.00  0.00     0.102 A 
HETATM    9  C17 UNL     1      25.442   2.175  53.468  1.00  0.00     0.055 A 
HETATM   10  C18 UNL     1      24.261   1.556  53.076  1.00  0.00     0.027 A 
ENDROOT
BRANCH   1  11
HETATM   11  O2  UNL     1      23.491   3.709  52.566  1.00  0.00     0.000 OA
BRANCH  11  12
HETATM   12  C8  UNL     1      23.482   4.349  51.380  1.00  0.00    -0.021 C 
BRANCH  12  13
HETATM   13  C7  UNL     1      23.587   4.937  50.193  1.00  0.00     0.042 C 
BRANCH  13  14
HETATM   14  C6  UNL     1      24.997   4.620  50.077  1.00  0.00    -0.008 C 
HETATM   15  C4  UNL     1      25.476   5.463  49.144  1.00  0.00    -0.033 C 
HETATM   16  C5  UNL     1      24.792   6.530  48.360  1.00  0.00     0.050 C 
BRANCH  15  17
HETATM   17  C2  UNL     1      26.844   5.498  48.702  1.00  0.00     0.064 C 
HETATM   18  C1  UNL     1      28.037   4.975  48.536  1.00  0.00     0.051 C 
BRANCH  17  19
HETATM   19  O1  UNL     1      27.187   6.738  48.103  1.00  0.00    -0.356 OA
HETATM   20  C3  UNL     1      28.580   6.973  47.894  1.00  0.00     0.210 C 
ENDBRANCH  17  19
ENDBRANCH  15  17
ENDBRANCH  13  14
ENDBRANCH  12  13
ENDBRANCH  11  12
ENDBRANCH   1  11
BRANCH   8  21
HETATM   21  O4  UNL     1      27.768   2.081  54.352  1.00  0.00    -0.353 OA
HETATM   22  C16 UNL     1      28.750   2.562  53.488  1.00  0.00     0.210 C 
ENDBRANCH   8  21
BRANCH   7  23
HETATM   23  O3  UNL     1      27.668  -0.505  54.507  1.00  0.00    -0.353 OA
HETATM   24  C14 UNL     1      28.583  -1.132  53.656  1.00  0.00     0.210 C 
ENDBRANCH   7  23
TORSDOF 8
ENDMDL
MODEL 4
REMARK VINA RESULT:      -6.8      4.069      5.387
REMARK  8 active torsions:
REMARK  status: ('A' for Active; 'I' for Inactive)
REMARK    1  A    between atoms: C2_2  and  O1_3 
REMARK    2  A    between atoms: C2_2  and  C4_5 
REMARK    3  A    between atoms: C6_7  and  C7_8 
REMARK    4  A    between atoms: C7_8  and  C8_9 
REMARK    5  A    between atoms: C8_9  and  O2_10 
REMARK    6  A    between atoms: O2_10  and  C9_11 
REMARK    7  A    between atoms: C13_17  and  O3_18 
REMARK    8  A    between atoms: C15_20  and  O4_21 
ROOT
HETATM    1  C9  UNL     1      25.792   2.673  51.249  1.00  0.00     0.100 A 
HETATM    2  N1  UNL     1      27.122   2.662  51.588  1.00  0.00    -0.239 NA
HETATM    3  C10 UNL     1      27.544   1.716  52.465  1.00  0.00     0.234 A 
HETATM    4  N2  UNL     1      26.771   0.774  53.040  1.00  0.00    -0.241 NA
HETATM    5  C11 UNL     1      25.451   0.770  52.711  1.00  0.00     0.073 A 
HETATM    6  C12 UNL     1      24.567  -0.151  53.277  1.00  0.00     0.072 A 
HETATM    7  C13 UNL     1      23.199  -0.179  52.995  1.00  0.00     0.103 A 
HETATM    8  C15 UNL     1      22.718   0.793  52.078  1.00  0.00     0.102 A 
HETATM    9  C17 UNL     1      23.629   1.675  51.552  1.00  0.00     0.055 A 
HETATM   10  C18 UNL     1      24.992   1.720  51.823  1.00  0.00     0.027 A 
ENDROOT
BRANCH   1  11
HETATM   11  O2  UNL     1      25.057   3.556  50.370  1.00  0.00     0.000 OA
BRANCH  11  12
HETATM   12  C8  UNL     1      25.744   4.427  49.604  1.00  0.00    -0.021 C 
BRANCH  12  13
HETATM   13  C7  UNL     1      26.324   5.359  48.855  1.00  0.00     0.042 C 
BRANCH  13  14
HETATM   14  C6  UNL     1      27.594   4.659  48.834  1.00  0.00    -0.008 C 
HETATM   15  C4  UNL     1      28.476   5.538  48.326  1.00  0.00    -0.033 C 
HETATM   16  C5  UNL     1      28.290   6.945  47.871  1.00  0.00     0.050 C 
BRANCH  15  17
HETATM   17  C2  UNL     1      29.873   5.263  48.117  1.00  0.00     0.064 C 
HETATM   18  C1  UNL     1      30.896   4.865  47.396  1.00  0.00     0.051 C 
BRANCH  17  19
HETATM   19  O1  UNL     1      30.656   5.546  49.267  1.00  0.00    -0.356 OA
HETATM   20  C3  UNL     1      32.031   5.851  49.033  1.00  0.00     0.210 C 
ENDBRANCH  17  19
ENDBRANCH  15  17
ENDBRANCH  13  14
ENDBRANCH  12  13
ENDBRANCH  11  12
ENDBRANCH   1  11
BRANCH   8  21
HETATM   21  O4  UNL     1      21.372   0.673  51.866  1.00  0.00    -0.353 OA
HETATM   22  C16 UNL     1      20.459   1.716  52.014  1.00  0.00     0.210 C 
ENDBRANCH   8  21
BRANCH   7  23
HETATM   23  O3  UNL     1      22.311  -1.065  53.544  1.00  0.00    -0.353 OA
HETATM   24  C14 UNL     1      21.842  -0.951  54.856  1.00  0.00     0.210 C 
ENDBRANCH   7  23
TORSDOF 8
ENDMDL
MODEL 5
REMARK VINA RESULT:      -6.8      2.259      7.876
REMARK  8 active torsions:
REMARK  status: ('A' for Active; 'I' for Inactive)
REMARK    1  A    between atoms: C2_2  and  O1_3 
REMARK    2  A    between atoms: C2_2  and  C4_5 
REMARK    3  A    between atoms: C6_7  and  C7_8 
REMARK    4  A    between atoms: C7_8  and  C8_9 
REMARK    5  A    between atoms: C8_9  and  O2_10 
REMARK    6  A    between atoms: O2_10  and  C9_11 
REMARK    7  A    between atoms: C13_17  and  O3_18 
REMARK    8  A    between atoms: C15_20  and  O4_21 
ROOT
HETATM    1  C9  UNL     1      24.112   2.183  51.701  1.00  0.00     0.100 A 
HETATM    2  N1  UNL     1      24.447   3.051  50.692  1.00  0.00    -0.239 NA
HETATM    3  C10 UNL     1      25.754   3.129  50.333  1.00  0.00     0.234 A 
HETATM    4  N2  UNL     1      26.764   2.423  50.878  1.00  0.00    -0.241 NA
HETATM    5  C11 UNL     1      26.447   1.556  51.877  1.00  0.00     0.073 A 
HETATM    6  C12 UNL     1      27.430   0.802  52.520  1.00  0.00     0.072 A 
HETATM    7  C13 UNL     1      27.160  -0.080  53.569  1.00  0.00     0.103 A 
HETATM    8  C15 UNL     1      25.803  -0.194  53.973  1.00  0.00     0.102 A 
HETATM    9  C17 UNL     1      24.877   0.570  53.308  1.00  0.00     0.055 A 
HETATM   10  C18 UNL     1      25.127   1.455  52.265  1.00  0.00     0.027 A 
ENDROOT
BRANCH   1  11
HETATM   11  O2  UNL     1      22.827   1.900  52.305  1.00  0.00     0.000 OA
BRANCH  11  12
HETATM   12  C8  UNL     1      21.869   1.325  51.551  1.00  0.00    -0.021 C 
BRANCH  12  13
HETATM   13  C7  UNL     1      20.997   0.778  50.710  1.00  0.00     0.042 C 
BRANCH  13  14
HETATM   14  C6  UNL     1      20.297   0.082  51.772  1.00  0.00    -0.008 C 
HETATM   15  C4  UNL     1      19.001   0.098  51.413  1.00  0.00    -0.033 C 
HETATM   16  C5  UNL     1      18.336   0.667  50.206  1.00  0.00     0.050 C 
BRANCH  15  17
HETATM   17  C2  UNL     1      17.934  -0.481  52.184  1.00  0.00     0.064 C 
HETATM   18  C1  UNL     1      16.675  -0.783  52.405  1.00  0.00     0.051 C 
BRANCH  17  19
HETATM   19  O1  UNL     1      18.399  -1.080  53.385  1.00  0.00    -0.356 OA
HETATM   20  C3  UNL     1      17.968  -2.419  53.630  1.00  0.00     0.210 C 
ENDBRANCH  17  19
ENDBRANCH  15  17
ENDBRANCH  13  14
ENDBRANCH  12  13
ENDBRANCH  11  12
ENDBRANCH   1  11
BRANCH   8  21
HETATM   21  O4  UNL     1      25.649  -1.087  54.998  1.00  0.00    -0.353 OA
HETATM   22  C16 UNL     1      24.470  -1.250  55.724  1.00  0.00     0.210 C 
ENDBRANCH   8  21
BRANCH   7  23
HETATM   23  O3  UNL     1      28.108  -0.822  54.222  1.00  0.00    -0.353 OA
HETATM   24  C14 UNL     1      29.466  -0.772  53.896  1.00  0.00     0.210 C 
ENDBRANCH   7  23
TORSDOF 8
ENDMDL
MODEL 6
REMARK VINA RESULT:      -6.8      4.222      6.085
REMARK  8 active torsions:
REMARK  status: ('A' for Active; 'I' for Inactive)
REMARK    1  A    between atoms: C2_2  and  O1_3 
REMARK    2  A    between atoms: C2_2  and  C4_5 
REMARK    3  A    between atoms: C6_7  and  C7_8 
REMARK    4  A    between atoms: C7_8  and  C8_9 
REMARK    5  A    between atoms: C8_9  and  O2_10 
REMARK    6  A    between atoms: O2_10  and  C9_11 
REMARK    7  A    between atoms: C13_17  and  O3_18 
REMARK    8  A    between atoms: C15_20  and  O4_21 
ROOT
HETATM    1  C9  UNL     1      26.345   2.339  51.803  1.00  0.00     0.100 A 
HETATM    2  N1  UNL     1      27.621   2.143  52.269  1.00  0.00    -0.239 NA
HETATM    3  C10 UNL     1      27.831   1.112  53.127  1.00  0.00     0.234 A 
HETATM    4  N2  UNL     1      26.893   0.251  53.567  1.00  0.00    -0.241 NA
HETATM    5  C11 UNL     1      25.623   0.430  53.111  1.00  0.00     0.073 A 
HETATM    6  C12 UNL     1      24.579  -0.396  53.533  1.00  0.00     0.072 A 
HETATM    7  C13 UNL     1      23.256  -0.237  53.117  1.00  0.00     0.103 A 
HETATM    8  C15 UNL     1      22.995   0.829  52.216  1.00  0.00     0.102 A 
HETATM    9  C17 UNL     1      24.057   1.611  51.834  1.00  0.00     0.055 A 
HETATM   10  C18 UNL     1      25.379   1.470  52.239  1.00  0.00     0.027 A 
ENDROOT
BRANCH   1  11
HETATM   11  O2  UNL     1      25.818   3.348  50.909  1.00  0.00     0.000 OA
BRANCH  11  12
HETATM   12  C8  UNL     1      26.579   3.756  49.874  1.00  0.00    -0.021 C 
BRANCH  12  13
HETATM   13  C7  UNL     1      27.296   4.274  48.882  1.00  0.00     0.042 C 
BRANCH  13  14
HETATM   14  C6  UNL     1      26.556   5.522  48.899  1.00  0.00    -0.008 C 
HETATM   15  C4  UNL     1      27.406   6.445  48.414  1.00  0.00    -0.033 C 
HETATM   16  C5  UNL     1      28.808   6.311  47.927  1.00  0.00     0.050 C 
BRANCH  15  17
HETATM   17  C2  UNL     1      27.090   7.840  48.257  1.00  0.00     0.064 C 
HETATM   18  C1  UNL     1      26.425   8.840  47.727  1.00  0.00     0.051 C 
BRANCH  17  19
HETATM   19  O1  UNL     1      27.882   8.670  49.093  1.00  0.00    -0.356 OA
HETATM   20  C3  UNL     1      27.237   9.191  50.256  1.00  0.00     0.210 C 
ENDBRANCH  17  19
ENDBRANCH  15  17
ENDBRANCH  13  14
ENDBRANCH  12  13
ENDBRANCH  11  12
ENDBRANCH   1  11
BRANCH   8  21
HETATM   21  O4  UNL     1      21.674   0.891  51.867  1.00  0.00    -0.353 OA
HETATM   22  C16 UNL     1      20.810   1.919  52.243  1.00  0.00     0.210 C 
ENDBRANCH   8  21
BRANCH   7  23
HETATM   23  O3  UNL     1      22.214  -1.027  53.525  1.00  0.00    -0.353 OA
HETATM   24  C14 UNL     1      21.696  -0.987  54.822  1.00  0.00     0.210 C 
ENDBRANCH   7  23
TORSDOF 8
ENDMDL
MODEL 7
REMARK VINA RESULT:      -6.7      4.412      6.776
REMARK  8 active torsions:
REMARK  status: ('A' for Active; 'I' for Inactive)
REMARK    1  A    between atoms: C2_2  and  O1_3 
REMARK    2  A    between atoms: C2_2  and  C4_5 
REMARK    3  A    between atoms: C6_7  and  C7_8 
REMARK    4  A    between atoms: C7_8  and  C8_9 
REMARK    5  A    between atoms: C8_9  and  O2_10 
REMARK    6  A    between atoms: O2_10  and  C9_11 
REMARK    7  A    between atoms: C13_17  and  O3_18 
REMARK    8  A    between atoms: C15_20  and  O4_21 
ROOT
HETATM    1  C9  UNL     1      25.080   2.775  50.737  1.00  0.00     0.100 A 
HETATM    2  N1  UNL     1      23.837   3.221  50.364  1.00  0.00    -0.239 NA
HETATM    3  C10 UNL     1      22.760   2.705  51.008  1.00  0.00     0.234 A 
HETATM    4  N2  UNL     1      22.797   1.788  51.994  1.00  0.00    -0.241 NA
HETATM    5  C11 UNL     1      24.023   1.339  52.379  1.00  0.00     0.073 A 
HETATM    6  C12 UNL     1      24.159   0.369  53.373  1.00  0.00     0.072 A 
HETATM    7  C13 UNL     1      25.391  -0.145  53.783  1.00  0.00     0.103 A 
HETATM    8  C15 UNL     1      26.545   0.372  53.135  1.00  0.00     0.102 A 
HETATM    9  C17 UNL     1      26.354   1.323  52.164  1.00  0.00     0.055 A 
HETATM   10  C18 UNL     1      25.136   1.844  51.741  1.00  0.00     0.027 A 
ENDROOT
BRANCH   1  11
HETATM   11  O2  UNL     1      26.391   3.120  50.229  1.00  0.00     0.000 OA
BRANCH  11  12
HETATM   12  C8  UNL     1      26.520   4.223  49.465  1.00  0.00    -0.021 C 
BRANCH  12  13
HETATM   13  C7  UNL     1      26.765   5.312  48.745  1.00  0.00     0.042 C 
BRANCH  13  14
HETATM   14  C6  UNL     1      28.172   4.991  48.601  1.00  0.00    -0.008 C 
HETATM   15  C4  UNL     1      28.736   6.093  48.074  1.00  0.00    -0.033 C 
HETATM   16  C5  UNL     1      28.136   7.406  47.701  1.00  0.00     0.050 C 
BRANCH  15  17
HETATM   17  C2  UNL     1      30.133   6.221  47.755  1.00  0.00     0.064 C 
HETATM   18  C1  UNL     1      31.137   6.681  47.045  1.00  0.00     0.051 C 
BRANCH  17  19
HETATM   19  O1  UNL     1      30.959   5.475  48.637  1.00  0.00    -0.356 OA
HETATM   20  C3  UNL     1      31.916   6.224  49.388  1.00  0.00     0.210 C 
ENDBRANCH  17  19
ENDBRANCH  15  17
ENDBRANCH  13  14
ENDBRANCH  12  13
ENDBRANCH  11  12
ENDBRANCH   1  11
BRANCH   8  21
HETATM   21  O4  UNL     1      27.696  -0.191  53.616  1.00  0.00    -0.353 OA
HETATM   22  C16 UNL     1      28.863   0.522  53.886  1.00  0.00     0.210 C 
ENDBRANCH   8  21
BRANCH   7  23
HETATM   23  O3  UNL     1      25.550  -1.104  54.749  1.00  0.00    -0.353 OA
HETATM   24  C14 UNL     1      24.635  -1.289  55.789  1.00  0.00     0.210 C 
ENDBRANCH   7  23
TORSDOF 8
ENDMDL
MODEL 8
REMARK VINA RESULT:      -6.7      6.088      9.902
REMARK  8 active torsions:
REMARK  status: ('A' for Active; 'I' for Inactive)
REMARK    1  A    between atoms: C2_2  and  O1_3 
REMARK    2  A    between atoms: C2_2  and  C4_5 
REMARK    3  A    between atoms: C6_7  and  C7_8 
REMARK    4  A    between atoms: C7_8  and  C8_9 
REMARK    5  A    between atoms: C8_9  and  O2_10 
REMARK    6  A    between atoms: O2_10  and  C9_11 
REMARK    7  A    between atoms: C13_17  and  O3_18 
REMARK    8  A    between atoms: C15_20  and  O4_21 
ROOT
HETATM    1  C9  UNL     1      26.558   5.019  49.057  1.00  0.00     0.100 A 
HETATM    2  N1  UNL     1      25.256   5.451  49.103  1.00  0.00    -0.239 NA
HETATM    3  C10 UNL     1      24.964   6.644  48.525  1.00  0.00     0.234 A 
HETATM    4  N2  UNL     1      25.842   7.451  47.900  1.00  0.00    -0.241 NA
HETATM    5  C11 UNL     1      27.136   7.035  47.842  1.00  0.00     0.073 A 
HETATM    6  C12 UNL     1      28.123   7.819  47.239  1.00  0.00     0.072 A 
HETATM    7  C13 UNL     1      29.469   7.450  47.180  1.00  0.00     0.103 A 
HETATM    8  C15 UNL     1      29.815   6.206  47.771  1.00  0.00     0.102 A 
HETATM    9  C17 UNL     1      28.807   5.476  48.351  1.00  0.00     0.055 A 
HETATM   10  C18 UNL     1      27.464   5.828  48.422  1.00  0.00     0.027 A 
ENDROOT
BRANCH   1  11
HETATM   11  O2  UNL     1      27.167   3.820  49.592  1.00  0.00     0.000 OA
BRANCH  11  12
HETATM   12  C8  UNL     1      26.492   3.109  50.517  1.00  0.00    -0.021 C 
BRANCH  12  13
HETATM   13  C7  UNL     1      25.724   2.448  51.377  1.00  0.00     0.042 C 
BRANCH  13  14
HETATM   14  C6  UNL     1      26.691   1.379  51.535  1.00  0.00    -0.008 C 
HETATM   15  C4  UNL     1      26.124   0.511  52.392  1.00  0.00    -0.033 C 
HETATM   16  C5  UNL     1      24.797   0.545  53.070  1.00  0.00     0.050 C 
BRANCH  15  17
HETATM   17  C2  UNL     1      26.739  -0.709  52.842  1.00  0.00     0.064 C 
HETATM   18  C1  UNL     1      27.189  -1.930  52.668  1.00  0.00     0.051 C 
BRANCH  17  19
HETATM   19  O1  UNL     1      27.085  -0.664  54.219  1.00  0.00    -0.356 OA
HETATM   20  C3  UNL     1      28.359  -0.099  54.530  1.00  0.00     0.210 C 
ENDBRANCH  17  19
ENDBRANCH  15  17
ENDBRANCH  13  14
ENDBRANCH  12  13
ENDBRANCH  11  12
ENDBRANCH   1  11
BRANCH   8  21
HETATM   21  O4  UNL     1      31.151   5.938  47.650  1.00  0.00    -0.353 OA
HETATM   22  C16 UNL     1      31.874   5.138  48.535  1.00  0.00     0.210 C 
ENDBRANCH   8  21
BRANCH   7  23
HETATM   23  O3  UNL     1      30.455   8.205  46.603  1.00  0.00    -0.353 OA
HETATM   24  C14 UNL     1      30.642   9.559  46.897  1.00  0.00     0.210 C 
ENDBRANCH   7  23
TORSDOF 8
ENDMDL
MODEL 9
REMARK VINA RESULT:      -6.5      2.894      6.431
REMARK  8 active torsions:
REMARK  status: ('A' for Active; 'I' for Inactive)
REMARK    1  A    between atoms: C2_2  and  O1_3 
REMARK    2  A    between atoms: C2_2  and  C4_5 
REMARK    3  A    between atoms: C6_7  and  C7_8 
REMARK    4  A    between atoms: C7_8  and  C8_9 
REMARK    5  A    between atoms: C8_9  and  O2_10 
REMARK    6  A    between atoms: O2_10  and  C9_11 
REMARK    7  A    between atoms: C13_17  and  O3_18 
REMARK    8  A    between atoms: C15_20  and  O4_21 
ROOT
HETATM    1  C9  UNL     1      21.978   0.292  53.010  1.00  0.00     0.100 A 
HETATM    2  N1  UNL     1      21.036  -0.293  53.819  1.00  0.00    -0.239 NA
HETATM    3  C10 UNL     1      21.475  -1.056  54.852  1.00  0.00     0.234 A 
HETATM    4  N2  UNL     1      22.764  -1.293  55.163  1.00  0.00    -0.241 NA
HETATM    5  C11 UNL     1      23.710  -0.716  54.372  1.00  0.00     0.073 A 
HETATM    6  C12 UNL     1      25.071  -0.928  54.600  1.00  0.00     0.072 A 
HETATM    7  C13 UNL     1      26.079  -0.383  53.801  1.00  0.00     0.103 A 
HETATM    8  C15 UNL     1      25.660   0.425  52.711  1.00  0.00     0.102 A 
HETATM    9  C17 UNL     1      24.311   0.599  52.532  1.00  0.00     0.055 A 
HETATM   10  C18 UNL     1      23.294   0.063  53.313  1.00  0.00     0.027 A 
ENDROOT
BRANCH   1  11
HETATM   11  O2  UNL     1      21.818   1.130  51.840  1.00  0.00     0.000 OA
BRANCH  11  12
HETATM   12  C8  UNL     1      21.347   2.383  51.999  1.00  0.00    -0.021 C 
BRANCH  12  13
HETATM   13  C7  UNL     1      20.966   3.631  52.247  1.00  0.00     0.042 C 
BRANCH  13  14
HETATM   14  C6  UNL     1      22.331   4.117  52.298  1.00  0.00    -0.008 C 
HETATM   15  C4  UNL     1      22.371   5.156  51.444  1.00  0.00    -0.033 C 
HETATM   16  C5  UNL     1      21.301   5.758  50.599  1.00  0.00     0.050 C 
BRANCH  15  17
HETATM   17  C2  UNL     1      23.545   5.942  51.173  1.00  0.00     0.064 C 
HETATM   18  C1  UNL     1      24.239   7.057  51.185  1.00  0.00     0.051 C 
BRANCH  17  19
HETATM   19  O1  UNL     1      24.571   5.184  50.549  1.00  0.00    -0.356 OA
HETATM   20  C3  UNL     1      25.561   5.929  49.838  1.00  0.00     0.210 C 
ENDBRANCH  17  19
ENDBRANCH  15  17
ENDBRANCH  13  14
ENDBRANCH  12  13
ENDBRANCH  11  12
ENDBRANCH   1  11
BRANCH   8  21
HETATM   21  O4  UNL     1      26.722   0.915  52.001  1.00  0.00    -0.353 OA
HETATM   22  C16 UNL     1      26.773   2.192  51.445  1.00  0.00     0.210 C 
ENDBRANCH   8  21
BRANCH   7  23
HETATM   23  O3  UNL     1      27.419  -0.583  53.999  1.00  0.00    -0.353 OA
HETATM   24  C14 UNL     1      28.164   0.145  54.931  1.00  0.00     0.210 C 
ENDBRANCH   7  23
TORSDOF 8
ENDMDL
