MODEL 1
REMARK VINA RESULT:      -8.8      0.000      0.000
REMARK  5 active torsions:
REMARK  status: ('A' for Active; 'I' for Inactive)
REMARK    1  A    between atoms: C7_7  and  C8_8 
REMARK    2  A    between atoms: C8_8  and  C9_9 
REMARK    3  A    between atoms: C12_15  and  N4_16 
REMARK    4  A    between atoms: N4_16  and  C13_17 
REMARK    5  A    between atoms: C17_22  and  C18_23 
ROOT
HETATM    1  C9  UNL     1      26.413   2.156  53.262  1.00  0.00     0.128 A 
HETATM    2  N1  UNL     1      27.691   2.712  53.652  1.00  0.00    -0.365 N 
HETATM    3  C10 UNL     1      28.300   1.443  53.832  1.00  0.00     0.137 A 
HETATM    4  N2  UNL     1      29.386   0.722  54.157  1.00  0.00    -0.224 NA
HETATM    5  C11 UNL     1      29.309  -0.638  54.135  1.00  0.00     0.237 A 
HETATM    6  N3  UNL     1      28.138  -1.181  53.787  1.00  0.00    -0.224 NA
HETATM    7  C12 UNL     1      27.041  -0.526  53.459  1.00  0.00     0.141 A 
HETATM    8  C20 UNL     1      27.102   0.861  53.475  1.00  0.00     0.056 A 
HETATM    9  H11 UNL     1      28.057   3.688  53.768  1.00  0.00     0.162 HD
ENDROOT
BRANCH   7  10
HETATM   10  N4  UNL     1      25.820  -1.149  53.098  1.00  0.00    -0.340 N 
HETATM   11  H13 UNL     1      25.857  -1.953  52.404  1.00  0.00     0.167 HD
BRANCH  10  12
HETATM   12  C13 UNL     1      24.510  -0.846  53.545  1.00  0.00     0.034 A 
HETATM   13  C14 UNL     1      23.988  -1.149  54.783  1.00  0.00     0.032 A 
HETATM   14  C15 UNL     1      22.729  -0.854  55.229  1.00  0.00     0.045 A 
HETATM   15  C16 UNL     1      21.883  -0.178  54.356  1.00  0.00     0.131 A 
HETATM   16  F1  UNL     1      20.629   0.149  54.720  1.00  0.00    -0.205 F 
HETATM   17  C17 UNL     1      22.339   0.151  53.119  1.00  0.00     0.088 A 
HETATM   18  C19 UNL     1      23.619  -0.179  52.733  1.00  0.00     0.048 A 
BRANCH  17  19
HETATM   19  C18 UNL     1      21.443   0.875  52.180  1.00  0.00     0.420 C 
HETATM   20  F2  UNL     1      20.920   2.029  52.732  1.00  0.00    -0.166 F 
HETATM   21  F3  UNL     1      20.419   0.052  51.802  1.00  0.00    -0.166 F 
HETATM   22  F4  UNL     1      22.176   1.292  51.072  1.00  0.00    -0.166 F 
ENDBRANCH  17  19
ENDBRANCH  10  12
ENDBRANCH   7  10
BRANCH   1  23
HETATM   23  C8  UNL     1      26.083   2.441  51.813  1.00  0.00     0.069 C 
BRANCH  23  24
HETATM   24  C7  UNL     1      24.851   3.271  51.796  1.00  0.00    -0.050 A 
HETATM   25  C2  UNL     1      24.282   3.758  50.646  1.00  0.00    -0.056 A 
HETATM   26  C1  UNL     1      24.915   3.460  49.329  1.00  0.00     0.049 C 
HETATM   27  C3  UNL     1      23.128   4.530  50.672  1.00  0.00     0.007 A 
HETATM   28  C4  UNL     1      22.511   4.835  51.858  1.00  0.00     0.001 A 
HETATM   29  C5  UNL     1      23.036   4.371  53.055  1.00  0.00     0.001 A 
HETATM   30  C6  UNL     1      24.183   3.608  52.979  1.00  0.00     0.007 A 
ENDBRANCH  23  24
ENDBRANCH   1  23
TORSDOF 5
ENDMDL
MODEL 2
REMARK VINA RESULT:      -8.8      2.001      4.684
REMARK  5 active torsions:
REMARK  status: ('A' for Active; 'I' for Inactive)
REMARK    1  A    between atoms: C7_7  and  C8_8 
REMARK    2  A    between atoms: C8_8  and  C9_9 
REMARK    3  A    between atoms: C12_15  and  N4_16 
REMARK    4  A    between atoms: N4_16  and  C13_17 
REMARK    5  A    between atoms: C17_22  and  C18_23 
ROOT
HETATM    1  C9  UNL     1      25.960  -0.882  52.896  1.00  0.00     0.128 A 
HETATM    2  N1  UNL     1      26.606  -2.171  52.769  1.00  0.00    -0.365 N 
HETATM    3  C10 UNL     1      27.885  -1.677  53.133  1.00  0.00     0.137 A 
HETATM    4  N2  UNL     1      29.190  -1.911  53.357  1.00  0.00    -0.224 NA
HETATM    5  C11 UNL     1      29.994  -0.874  53.725  1.00  0.00     0.237 A 
HETATM    6  N3  UNL     1      29.428   0.330  53.842  1.00  0.00    -0.224 NA
HETATM    7  C12 UNL     1      28.157   0.619  53.636  1.00  0.00     0.141 A 
HETATM    8  C20 UNL     1      27.323  -0.425  53.261  1.00  0.00     0.056 A 
HETATM    9  H11 UNL     1      26.273  -3.130  52.506  1.00  0.00     0.162 HD
ENDROOT
BRANCH   7  10
HETATM   10  N4  UNL     1      27.604   1.918  53.772  1.00  0.00    -0.340 N 
HETATM   11  H13 UNL     1      28.061   2.585  54.461  1.00  0.00     0.167 HD
BRANCH  10  12
HETATM   12  C13 UNL     1      26.489   2.475  53.098  1.00  0.00     0.034 A 
HETATM   13  C14 UNL     1      25.306   2.868  53.681  1.00  0.00     0.032 A 
HETATM   14  C15 UNL     1      24.227   3.415  53.042  1.00  0.00     0.045 A 
HETATM   15  C16 UNL     1      24.323   3.599  51.666  1.00  0.00     0.131 A 
HETATM   16  F1  UNL     1      23.305   4.131  50.965  1.00  0.00    -0.205 F 
HETATM   17  C17 UNL     1      25.467   3.231  51.031  1.00  0.00     0.088 A 
HETATM   18  C19 UNL     1      26.515   2.684  51.736  1.00  0.00     0.048 A 
BRANCH  17  19
HETATM   19  C18 UNL     1      25.580   3.426  49.563  1.00  0.00     0.420 C 
HETATM   20  F2  UNL     1      24.500   2.908  48.874  1.00  0.00    -0.166 F 
HETATM   21  F3  UNL     1      26.728   2.836  49.112  1.00  0.00    -0.166 F 
HETATM   22  F4  UNL     1      25.582   4.790  49.277  1.00  0.00    -0.166 F 
ENDBRANCH  17  19
ENDBRANCH  10  12
ENDBRANCH   7  10
BRANCH   1  23
HETATM   23  C8  UNL     1      24.977  -0.846  54.046  1.00  0.00     0.069 C 
BRANCH  23  24
HETATM   24  C7  UNL     1      23.642  -0.530  53.474  1.00  0.00    -0.050 A 
HETATM   25  C2  UNL     1      22.459  -0.884  54.073  1.00  0.00    -0.056 A 
HETATM   26  C1  UNL     1      22.482  -1.630  55.364  1.00  0.00     0.049 C 
HETATM   27  C3  UNL     1      21.231  -0.569  53.507  1.00  0.00     0.007 A 
HETATM   28  C4  UNL     1      21.156   0.113  52.319  1.00  0.00     0.001 A 
HETATM   29  C5  UNL     1      22.317   0.499  51.665  1.00  0.00     0.001 A 
HETATM   30  C6  UNL     1      23.513   0.165  52.266  1.00  0.00     0.007 A 
ENDBRANCH  23  24
ENDBRANCH   1  23
TORSDOF 5
ENDMDL
MODEL 3
REMARK VINA RESULT:      -8.7      3.278      5.937
REMARK  5 active torsions:
REMARK  status: ('A' for Active; 'I' for Inactive)
REMARK    1  A    between atoms: C7_7  and  C8_8 
REMARK    2  A    between atoms: C8_8  and  C9_9 
REMARK    3  A    between atoms: C12_15  and  N4_16 
REMARK    4  A    between atoms: N4_16  and  C13_17 
REMARK    5  A    between atoms: C17_22  and  C18_23 
ROOT
HETATM    1  C9  UNL     1      23.496   2.613  52.292  1.00  0.00     0.128 A 
HETATM    2  N1  UNL     1      22.564   3.720  52.304  1.00  0.00    -0.365 N 
HETATM    3  C10 UNL     1      23.365   4.533  51.460  1.00  0.00     0.137 A 
HETATM    4  N2  UNL     1      23.540   5.695  50.808  1.00  0.00    -0.224 NA
HETATM    5  C11 UNL     1      24.675   5.878  50.077  1.00  0.00     0.237 A 
HETATM    6  N3  UNL     1      25.559   4.877  50.053  1.00  0.00    -0.224 NA
HETATM    7  C12 UNL     1      25.441   3.717  50.671  1.00  0.00     0.141 A 
HETATM    8  C20 UNL     1      24.291   3.512  51.421  1.00  0.00     0.056 A 
HETATM    9  H11 UNL     1      21.636   3.886  52.762  1.00  0.00     0.162 HD
ENDROOT
BRANCH   7  10
HETATM   10  N4  UNL     1      26.411   2.684  50.616  1.00  0.00    -0.340 N 
HETATM   11  H13 UNL     1      26.797   2.413  49.664  1.00  0.00     0.167 HD
BRANCH  10  12
HETATM   12  C13 UNL     1      26.959   1.933  51.685  1.00  0.00     0.034 A 
HETATM   13  C14 UNL     1      27.705   2.437  52.727  1.00  0.00     0.032 A 
HETATM   14  C15 UNL     1      28.232   1.725  53.769  1.00  0.00     0.045 A 
HETATM   15  C16 UNL     1      27.998   0.353  53.790  1.00  0.00     0.131 A 
HETATM   16  F1  UNL     1      28.483  -0.417  54.781  1.00  0.00    -0.205 F 
HETATM   17  C17 UNL     1      27.269  -0.205  52.789  1.00  0.00     0.088 A 
HETATM   18  C19 UNL     1      26.767   0.571  51.769  1.00  0.00     0.048 A 
BRANCH  17  19
HETATM   19  C18 UNL     1      27.011  -1.668  52.805  1.00  0.00     0.420 C 
HETATM   20  F2  UNL     1      26.483  -2.127  51.613  1.00  0.00    -0.166 F 
HETATM   21  F3  UNL     1      26.149  -1.967  53.824  1.00  0.00    -0.166 F 
HETATM   22  F4  UNL     1      28.216  -2.348  52.963  1.00  0.00    -0.166 F 
ENDBRANCH  17  19
ENDBRANCH  10  12
ENDBRANCH   7  10
BRANCH   1  23
HETATM   23  C8  UNL     1      22.938   1.404  51.573  1.00  0.00     0.069 C 
BRANCH  23  24
HETATM   24  C7  UNL     1      22.506   0.434  52.613  1.00  0.00    -0.050 A 
HETATM   25  C2  UNL     1      21.221  -0.035  52.723  1.00  0.00    -0.056 A 
HETATM   26  C1  UNL     1      20.180   0.440  51.767  1.00  0.00     0.049 C 
HETATM   27  C3  UNL     1      20.857  -0.942  53.709  1.00  0.00     0.007 A 
HETATM   28  C4  UNL     1      21.777  -1.407  54.614  1.00  0.00     0.001 A 
HETATM   29  C5  UNL     1      23.092  -0.971  54.554  1.00  0.00     0.001 A 
HETATM   30  C6  UNL     1      23.407  -0.070  53.558  1.00  0.00     0.007 A 
ENDBRANCH  23  24
ENDBRANCH   1  23
TORSDOF 5
ENDMDL
MODEL 4
REMARK VINA RESULT:      -8.6      2.604      5.273
REMARK  5 active torsions:
REMARK  status: ('A' for Active; 'I' for Inactive)
REMARK    1  A    between atoms: C7_7  and  C8_8 
REMARK    2  A    between atoms: C8_8  and  C9_9 
REMARK    3  A    between atoms: C12_15  and  N4_16 
REMARK    4  A    between atoms: N4_16  and  C13_17 
REMARK    5  A    between atoms: C17_22  and  C18_23 
ROOT
HETATM    1  C9  UNL     1      25.765   2.549  51.003  1.00  0.00     0.128 A 
HETATM    2  N1  UNL     1      26.211   3.920  50.877  1.00  0.00    -0.365 N 
HETATM    3  C10 UNL     1      24.999   4.365  50.290  1.00  0.00     0.137 A 
HETATM    4  N2  UNL     1      24.268   5.369  49.775  1.00  0.00    -0.224 NA
HETATM    5  C11 UNL     1      23.011   5.107  49.321  1.00  0.00     0.237 A 
HETATM    6  N3  UNL     1      22.573   3.848  49.416  1.00  0.00    -0.224 NA
HETATM    7  C12 UNL     1      23.243   2.824  49.911  1.00  0.00     0.141 A 
HETATM    8  C20 UNL     1      24.526   3.073  50.379  1.00  0.00     0.056 A 
HETATM    9  H11 UNL     1      27.099   4.422  51.119  1.00  0.00     0.162 HD
ENDROOT
BRANCH   7  10
HETATM   10  N4  UNL     1      22.734   1.503  49.989  1.00  0.00    -0.340 N 
HETATM   11  H13 UNL     1      23.084   0.792  49.281  1.00  0.00     0.167 HD
BRANCH  10  12
HETATM   12  C13 UNL     1      21.795   0.974  50.908  1.00  0.00     0.034 A 
HETATM   13  C14 UNL     1      20.436   0.881  50.711  1.00  0.00     0.032 A 
HETATM   14  C15 UNL     1      19.521   0.364  51.587  1.00  0.00     0.045 A 
HETATM   15  C16 UNL     1      19.998  -0.120  52.800  1.00  0.00     0.131 A 
HETATM   16  F1  UNL     1      19.162  -0.644  53.715  1.00  0.00    -0.205 F 
HETATM   17  C17 UNL     1      21.332  -0.057  53.055  1.00  0.00     0.088 A 
HETATM   18  C19 UNL     1      22.198   0.477  52.129  1.00  0.00     0.048 A 
BRANCH  17  19
HETATM   19  C18 UNL     1      21.851  -0.575  54.347  1.00  0.00     0.420 C 
HETATM   20  F2  UNL     1      21.575  -1.916  54.530  1.00  0.00    -0.166 F 
HETATM   21  F3  UNL     1      21.307   0.142  55.377  1.00  0.00    -0.166 F 
HETATM   22  F4  UNL     1      23.241  -0.477  54.358  1.00  0.00    -0.166 F 
ENDBRANCH  17  19
ENDBRANCH  10  12
ENDBRANCH   7  10
BRANCH   1  23
HETATM   23  C8  UNL     1      25.592   2.134  52.448  1.00  0.00     0.069 C 
BRANCH  23  24
HETATM   24  C7  UNL     1      26.461   0.950  52.674  1.00  0.00    -0.050 A 
HETATM   25  C2  UNL     1      27.736   1.031  53.173  1.00  0.00    -0.056 A 
HETATM   26  C1  UNL     1      28.310   2.365  53.512  1.00  0.00     0.049 C 
HETATM   27  C3  UNL     1      28.517  -0.100  53.372  1.00  0.00     0.007 A 
HETATM   28  C4  UNL     1      28.035  -1.350  53.072  1.00  0.00     0.001 A 
HETATM   29  C5  UNL     1      26.754  -1.498  52.565  1.00  0.00     0.001 A 
HETATM   30  C6  UNL     1      26.016  -0.346  52.386  1.00  0.00     0.007 A 
ENDBRANCH  23  24
ENDBRANCH   1  23
TORSDOF 5
ENDMDL
MODEL 5
REMARK VINA RESULT:      -8.5      2.925      5.961
REMARK  5 active torsions:
REMARK  status: ('A' for Active; 'I' for Inactive)
REMARK    1  A    between atoms: C7_7  and  C8_8 
REMARK    2  A    between atoms: C8_8  and  C9_9 
REMARK    3  A    between atoms: C12_15  and  N4_16 
REMARK    4  A    between atoms: N4_16  and  C13_17 
REMARK    5  A    between atoms: C17_22  and  C18_23 
ROOT
HETATM    1  C9  UNL     1      24.941   0.103  53.689  1.00  0.00     0.128 A 
HETATM    2  N1  UNL     1      24.855  -0.752  54.853  1.00  0.00    -0.365 N 
HETATM    3  C10 UNL     1      23.474  -1.024  54.674  1.00  0.00     0.137 A 
HETATM    4  N2  UNL     1      22.358  -1.648  55.091  1.00  0.00    -0.224 NA
HETATM    5  C11 UNL     1      21.203  -1.475  54.391  1.00  0.00     0.237 A 
HETATM    6  N3  UNL     1      21.249  -0.684  53.316  1.00  0.00    -0.224 NA
HETATM    7  C12 UNL     1      22.311  -0.047  52.859  1.00  0.00     0.141 A 
HETATM    8  C20 UNL     1      23.498  -0.212  53.560  1.00  0.00     0.056 A 
HETATM    9  H11 UNL     1      25.543  -1.068  55.578  1.00  0.00     0.162 HD
ENDROOT
BRANCH   7  10
HETATM   10  N4  UNL     1      22.308   0.785  51.711  1.00  0.00    -0.340 N 
HETATM   11  H13 UNL     1      21.982   0.364  50.792  1.00  0.00     0.167 HD
BRANCH  10  12
HETATM   12  C13 UNL     1      22.690   2.145  51.609  1.00  0.00     0.034 A 
HETATM   13  C14 UNL     1      22.165   3.189  52.337  1.00  0.00     0.032 A 
HETATM   14  C15 UNL     1      22.531   4.504  52.253  1.00  0.00     0.045 A 
HETATM   15  C16 UNL     1      23.534   4.833  51.347  1.00  0.00     0.131 A 
HETATM   16  F1  UNL     1      23.951   6.105  51.206  1.00  0.00    -0.205 F 
HETATM   17  C17 UNL     1      24.094   3.847  50.598  1.00  0.00     0.088 A 
HETATM   18  C19 UNL     1      23.677   2.542  50.732  1.00  0.00     0.048 A 
BRANCH  17  19
HETATM   19  C18 UNL     1      25.169   4.188  49.631  1.00  0.00     0.420 C 
HETATM   20  F2  UNL     1      26.210   4.881  50.218  1.00  0.00    -0.166 F 
HETATM   21  F3  UNL     1      24.644   4.937  48.614  1.00  0.00    -0.166 F 
HETATM   22  F4  UNL     1      25.735   3.015  49.137  1.00  0.00    -0.166 F 
ENDBRANCH  17  19
ENDBRANCH  10  12
ENDBRANCH   7  10
BRANCH   1  23
HETATM   23  C8  UNL     1      25.797  -0.501  52.598  1.00  0.00     0.069 C 
BRANCH  23  24
HETATM   24  C7  UNL     1      27.217  -0.274  52.974  1.00  0.00    -0.050 A 
HETATM   25  C2  UNL     1      28.147  -1.279  53.060  1.00  0.00    -0.056 A 
HETATM   26  C1  UNL     1      27.741  -2.684  52.770  1.00  0.00     0.049 C 
HETATM   27  C3  UNL     1      29.466  -1.025  53.415  1.00  0.00     0.007 A 
HETATM   28  C4  UNL     1      29.887   0.250  53.694  1.00  0.00     0.001 A 
HETATM   29  C5  UNL     1      28.995   1.309  53.624  1.00  0.00     0.001 A 
HETATM   30  C6  UNL     1      27.696   1.008  53.268  1.00  0.00     0.007 A 
ENDBRANCH  23  24
ENDBRANCH   1  23
TORSDOF 5
ENDMDL
MODEL 6
REMARK VINA RESULT:      -8.3      3.824      6.382
REMARK  5 active torsions:
REMARK  status: ('A' for Active; 'I' for Inactive)
REMARK    1  A    between atoms: C7_7  and  C8_8 
REMARK    2  A    between atoms: C8_8  and  C9_9 
REMARK    3  A    between atoms: C12_15  and  N4_16 
REMARK    4  A    between atoms: N4_16  and  C13_17 
REMARK    5  A    between atoms: C17_22  and  C18_23 
ROOT
HETATM    1  C9  UNL     1      22.215   2.669  50.907  1.00  0.00     0.128 A 
HETATM    2  N1  UNL     1      21.791   3.293  49.672  1.00  0.00    -0.365 N 
HETATM    3  C10 UNL     1      23.024   3.967  49.474  1.00  0.00     0.137 A 
HETATM    4  N2  UNL     1      23.781   4.790  48.727  1.00  0.00    -0.224 NA
HETATM    5  C11 UNL     1      25.045   5.083  49.141  1.00  0.00     0.237 A 
HETATM    6  N3  UNL     1      25.462   4.528  50.283  1.00  0.00    -0.224 NA
HETATM    7  C12 UNL     1      24.766   3.716  51.056  1.00  0.00     0.141 A 
HETATM    8  C20 UNL     1      23.476   3.405  50.649  1.00  0.00     0.056 A 
HETATM    9  H11 UNL     1      20.905   3.273  49.112  1.00  0.00     0.162 HD
ENDROOT
BRANCH   7  10
HETATM   10  N4  UNL     1      25.254   3.153  52.262  1.00  0.00    -0.340 N 
HETATM   11  H13 UNL     1      25.019   3.646  53.173  1.00  0.00     0.167 HD
BRANCH  10  12
HETATM   12  C13 UNL     1      26.035   1.984  52.435  1.00  0.00     0.034 A 
HETATM   13  C14 UNL     1      25.783   0.753  51.873  1.00  0.00     0.032 A 
HETATM   14  C15 UNL     1      26.534  -0.380  52.025  1.00  0.00     0.045 A 
HETATM   15  C16 UNL     1      27.670  -0.293  52.824  1.00  0.00     0.131 A 
HETATM   16  F1  UNL     1      28.461  -1.363  53.023  1.00  0.00    -0.205 F 
HETATM   17  C17 UNL     1      27.974   0.896  53.408  1.00  0.00     0.088 A 
HETATM   18  C19 UNL     1      27.173   1.999  53.213  1.00  0.00     0.048 A 
BRANCH  17  19
HETATM   19  C18 UNL     1      29.187   1.000  54.260  1.00  0.00     0.420 C 
HETATM   20  F2  UNL     1      29.485   2.306  54.600  1.00  0.00    -0.166 F 
HETATM   21  F3  UNL     1      30.253   0.450  53.603  1.00  0.00    -0.166 F 
HETATM   22  F4  UNL     1      28.960   0.345  55.468  1.00  0.00    -0.166 F 
ENDBRANCH  17  19
ENDBRANCH  10  12
ENDBRANCH   7  10
BRANCH   1  23
HETATM   23  C8  UNL     1      22.347   1.167  50.772  1.00  0.00     0.069 C 
BRANCH  23  24
HETATM   24  C7  UNL     1      21.817   0.564  52.023  1.00  0.00    -0.050 A 
HETATM   25  C2  UNL     1      20.505   0.202  52.192  1.00  0.00    -0.056 A 
HETATM   26  C1  UNL     1      19.534   0.417  51.081  1.00  0.00     0.049 C 
HETATM   27  C3  UNL     1      20.049  -0.361  53.377  1.00  0.00     0.007 A 
HETATM   28  C4  UNL     1      20.903  -0.576  54.429  1.00  0.00     0.001 A 
HETATM   29  C5  UNL     1      22.242  -0.231  54.320  1.00  0.00     0.001 A 
HETATM   30  C6  UNL     1      22.648   0.324  53.124  1.00  0.00     0.007 A 
ENDBRANCH  23  24
ENDBRANCH   1  23
TORSDOF 5
ENDMDL
MODEL 7
REMARK VINA RESULT:      -8.3      3.466      6.486
REMARK  5 active torsions:
REMARK  status: ('A' for Active; 'I' for Inactive)
REMARK    1  A    between atoms: C7_7  and  C8_8 
REMARK    2  A    between atoms: C8_8  and  C9_9 
REMARK    3  A    between atoms: C12_15  and  N4_16 
REMARK    4  A    between atoms: N4_16  and  C13_17 
REMARK    5  A    between atoms: C17_22  and  C18_23 
ROOT
HETATM    1  C9  UNL     1      21.164   2.917  52.370  1.00  0.00     0.128 A 
HETATM    2  N1  UNL     1      20.189   3.637  51.579  1.00  0.00    -0.365 N 
HETATM    3  C10 UNL     1      21.056   4.730  51.323  1.00  0.00     0.137 A 
HETATM    4  N2  UNL     1      21.264   5.925  50.743  1.00  0.00    -0.224 NA
HETATM    5  C11 UNL     1      22.472   6.535  50.899  1.00  0.00     0.237 A 
HETATM    6  N3  UNL     1      23.391   5.899  51.631  1.00  0.00    -0.224 NA
HETATM    7  C12 UNL     1      23.245   4.729  52.223  1.00  0.00     0.141 A 
HETATM    8  C20 UNL     1      22.020   4.092  52.074  1.00  0.00     0.056 A 
HETATM    9  H11 UNL     1      19.200   3.444  51.290  1.00  0.00     0.162 HD
ENDROOT
BRANCH   7  10
HETATM   10  N4  UNL     1      24.252   4.094  52.993  1.00  0.00    -0.340 N 
HETATM   11  H13 UNL     1      24.481   4.501  53.947  1.00  0.00     0.167 HD
BRANCH  10  12
HETATM   12  C13 UNL     1      25.025   2.953  52.663  1.00  0.00     0.034 A 
HETATM   13  C14 UNL     1      25.521   2.647  51.416  1.00  0.00     0.032 A 
HETATM   14  C15 UNL     1      26.275   1.554  51.087  1.00  0.00     0.045 A 
HETATM   15  C16 UNL     1      26.580   0.656  52.105  1.00  0.00     0.131 A 
HETATM   16  F1  UNL     1      27.317  -0.443  51.863  1.00  0.00    -0.205 F 
HETATM   17  C17 UNL     1      26.119   0.903  53.360  1.00  0.00     0.088 A 
HETATM   18  C19 UNL     1      25.363   2.023  53.622  1.00  0.00     0.048 A 
BRANCH  17  19
HETATM   19  C18 UNL     1      26.441  -0.049  54.454  1.00  0.00     0.420 C 
HETATM   20  F2  UNL     1      25.946   0.362  55.677  1.00  0.00    -0.166 F 
HETATM   21  F3  UNL     1      27.797  -0.197  54.544  1.00  0.00    -0.166 F 
HETATM   22  F4  UNL     1      25.827  -1.273  54.198  1.00  0.00    -0.166 F 
ENDBRANCH  17  19
ENDBRANCH  10  12
ENDBRANCH   7  10
BRANCH   1  23
HETATM   23  C8  UNL     1      21.622   1.644  51.693  1.00  0.00     0.069 C 
BRANCH  23  24
HETATM   24  C7  UNL     1      21.475   0.542  52.680  1.00  0.00    -0.050 A 
HETATM   25  C2  UNL     1      20.324  -0.189  52.832  1.00  0.00    -0.056 A 
HETATM   26  C1  UNL     1      19.140   0.116  51.979  1.00  0.00     0.049 C 
HETATM   27  C3  UNL     1      20.227  -1.212  53.766  1.00  0.00     0.007 A 
HETATM   28  C4  UNL     1      21.287  -1.530  54.576  1.00  0.00     0.001 A 
HETATM   29  C5  UNL     1      22.478  -0.827  54.471  1.00  0.00     0.001 A 
HETATM   30  C6  UNL     1      22.527   0.179  53.529  1.00  0.00     0.007 A 
ENDBRANCH  23  24
ENDBRANCH   1  23
TORSDOF 5
ENDMDL
MODEL 8
REMARK VINA RESULT:      -8.2      3.584      5.819
REMARK  5 active torsions:
REMARK  status: ('A' for Active; 'I' for Inactive)
REMARK    1  A    between atoms: C7_7  and  C8_8 
REMARK    2  A    between atoms: C8_8  and  C9_9 
REMARK    3  A    between atoms: C12_15  and  N4_16 
REMARK    4  A    between atoms: N4_16  and  C13_17 
REMARK    5  A    between atoms: C17_22  and  C18_23 
ROOT
HETATM    1  C9  UNL     1      21.250   1.289  52.026  1.00  0.00     0.128 A 
HETATM    2  N1  UNL     1      20.191   0.809  52.888  1.00  0.00    -0.365 N 
HETATM    3  C10 UNL     1      21.066   0.049  53.706  1.00  0.00     0.137 A 
HETATM    4  N2  UNL     1      21.240  -0.772  54.757  1.00  0.00    -0.224 NA
HETATM    5  C11 UNL     1      22.496  -1.208  55.055  1.00  0.00     0.237 A 
HETATM    6  N3  UNL     1      23.494  -0.788  54.272  1.00  0.00    -0.224 NA
HETATM    7  C12 UNL     1      23.384   0.014  53.230  1.00  0.00     0.141 A 
HETATM    8  C20 UNL     1      22.112   0.469  52.912  1.00  0.00     0.056 A 
HETATM    9  H11 UNL     1      19.153   0.953  52.916  1.00  0.00     0.162 HD
ENDROOT
BRANCH   7  10
HETATM   10  N4  UNL     1      24.477   0.431  52.428  1.00  0.00    -0.340 N 
HETATM   11  H13 UNL     1      24.320   0.520  51.381  1.00  0.00     0.167 HD
BRANCH  10  12
HETATM   12  C13 UNL     1      25.793   0.758  52.834  1.00  0.00     0.034 A 
HETATM   13  C14 UNL     1      26.245   2.014  53.175  1.00  0.00     0.032 A 
HETATM   14  C15 UNL     1      27.511   2.340  53.578  1.00  0.00     0.045 A 
HETATM   15  C16 UNL     1      28.444   1.312  53.656  1.00  0.00     0.131 A 
HETATM   16  F1  UNL     1      29.710   1.552  54.043  1.00  0.00    -0.205 F 
HETATM   17  C17 UNL     1      28.060   0.049  53.332  1.00  0.00     0.088 A 
HETATM   18  C19 UNL     1      26.768  -0.211  52.933  1.00  0.00     0.048 A 
BRANCH  17  19
HETATM   19  C18 UNL     1      29.048  -1.057  53.416  1.00  0.00     0.420 C 
HETATM   20  F2  UNL     1      30.143  -0.853  52.597  1.00  0.00    -0.166 F 
HETATM   21  F3  UNL     1      28.443  -2.235  53.075  1.00  0.00    -0.166 F 
HETATM   22  F4  UNL     1      29.560  -1.122  54.710  1.00  0.00    -0.166 F 
ENDBRANCH  17  19
ENDBRANCH  10  12
ENDBRANCH   7  10
BRANCH   1  23
HETATM   23  C8  UNL     1      21.472   2.779  52.169  1.00  0.00     0.069 C 
BRANCH  23  24
HETATM   24  C7  UNL     1      22.587   3.148  51.259  1.00  0.00    -0.050 A 
HETATM   25  C2  UNL     1      23.591   4.016  51.606  1.00  0.00    -0.056 A 
HETATM   26  C1  UNL     1      23.588   4.642  52.960  1.00  0.00     0.049 C 
HETATM   27  C3  UNL     1      24.618   4.335  50.727  1.00  0.00     0.007 A 
HETATM   28  C4  UNL     1      24.665   3.788  49.470  1.00  0.00     0.001 A 
HETATM   29  C5  UNL     1      23.679   2.903  49.060  1.00  0.00     0.001 A 
HETATM   30  C6  UNL     1      22.680   2.616  49.967  1.00  0.00     0.007 A 
ENDBRANCH  23  24
ENDBRANCH   1  23
TORSDOF 5
ENDMDL
MODEL 9
REMARK VINA RESULT:      -8.2      3.384      5.410
REMARK  5 active torsions:
REMARK  status: ('A' for Active; 'I' for Inactive)
REMARK    1  A    between atoms: C7_7  and  C8_8 
REMARK    2  A    between atoms: C8_8  and  C9_9 
REMARK    3  A    between atoms: C12_15  and  N4_16 
REMARK    4  A    between atoms: N4_16  and  C13_17 
REMARK    5  A    between atoms: C17_22  and  C18_23 
ROOT
HETATM    1  C9  UNL     1      21.035  -0.287  52.439  1.00  0.00     0.128 A 
HETATM    2  N1  UNL     1      20.358  -1.051  53.466  1.00  0.00    -0.365 N 
HETATM    3  C10 UNL     1      21.524  -1.200  54.261  1.00  0.00     0.137 A 
HETATM    4  N2  UNL     1      22.107  -1.680  55.373  1.00  0.00    -0.224 NA
HETATM    5  C11 UNL     1      23.436  -1.456  55.574  1.00  0.00     0.237 A 
HETATM    6  N3  UNL     1      24.089  -0.761  54.638  1.00  0.00    -0.224 NA
HETATM    7  C12 UNL     1      23.572  -0.266  53.530  1.00  0.00     0.141 A 
HETATM    8  C20 UNL     1      22.219  -0.485  53.309  1.00  0.00     0.056 A 
HETATM    9  H11 UNL     1      19.373  -1.384  53.597  1.00  0.00     0.162 HD
ENDROOT
BRANCH   7  10
HETATM   10  N4  UNL     1      24.309   0.465  52.564  1.00  0.00    -0.340 N 
HETATM   11  H13 UNL     1      24.993  -0.069  51.951  1.00  0.00     0.167 HD
BRANCH  10  12
HETATM   12  C13 UNL     1      24.264   1.853  52.288  1.00  0.00     0.034 A 
HETATM   13  C14 UNL     1      23.735   2.824  53.108  1.00  0.00     0.032 A 
HETATM   14  C15 UNL     1      23.693   4.168  52.856  1.00  0.00     0.045 A 
HETATM   15  C16 UNL     1      24.237   4.612  51.655  1.00  0.00     0.131 A 
HETATM   16  F1  UNL     1      24.234   5.918  51.334  1.00  0.00    -0.205 F 
HETATM   17  C17 UNL     1      24.775   3.702  50.801  1.00  0.00     0.088 A 
HETATM   18  C19 UNL     1      24.783   2.362  51.117  1.00  0.00     0.048 A 
BRANCH  17  19
HETATM   19  C18 UNL     1      25.361   4.166  49.517  1.00  0.00     0.420 C 
HETATM   20  F2  UNL     1      24.405   4.633  48.636  1.00  0.00    -0.166 F 
HETATM   21  F3  UNL     1      26.050   3.140  48.934  1.00  0.00    -0.166 F 
HETATM   22  F4  UNL     1      26.203   5.250  49.759  1.00  0.00    -0.166 F 
ENDBRANCH  17  19
ENDBRANCH  10  12
ENDBRANCH   7  10
BRANCH   1  23
HETATM   23  C8  UNL     1      20.552   1.146  52.381  1.00  0.00     0.069 C 
BRANCH  23  24
HETATM   24  C7  UNL     1      20.943   1.689  51.054  1.00  0.00    -0.050 A 
HETATM   25  C2  UNL     1      20.868   3.020  50.729  1.00  0.00    -0.056 A 
HETATM   26  C1  UNL     1      20.368   3.997  51.738  1.00  0.00     0.049 C 
HETATM   27  C3  UNL     1      21.244   3.488  49.477  1.00  0.00     0.007 A 
HETATM   28  C4  UNL     1      21.707   2.629  48.512  1.00  0.00     0.001 A 
HETATM   29  C5  UNL     1      21.806   1.272  48.780  1.00  0.00     0.001 A 
HETATM   30  C6  UNL     1      21.422   0.854  50.037  1.00  0.00     0.007 A 
ENDBRANCH  23  24
ENDBRANCH   1  23
TORSDOF 5
ENDMDL
