MODEL 1
REMARK VINA RESULT:      -8.8      0.000      0.000
REMARK  7 active torsions:
REMARK  status: ('A' for Active; 'I' for Inactive)
REMARK    1  A    between atoms: N1_1  and  C1_2 
REMARK    2  A    between atoms: C1_2  and  O1_3 
REMARK    3  A    between atoms: C2_4  and  S1_5 
REMARK    4  A    between atoms: S1_5  and  C3_6 
REMARK    5  A    between atoms: C3_6  and  N2_7 
REMARK    6  A    between atoms: C4_9  and  C5_10 
REMARK    7  A    between atoms: C12_18  and  C13_19 
ROOT
HETATM    1  N2  UNL     1      25.521   1.310  52.005  1.00  0.00    -0.286 N 
HETATM    2  N3  UNL     1      24.131   1.222  51.919  1.00  0.00    -0.179 NA
HETATM    3  C4  UNL     1      23.618   0.341  52.705  1.00  0.00     0.067 C 
HETATM    4  C11 UNL     1      24.790  -0.266  53.438  1.00  0.00     0.093 C 
HETATM    5  C12 UNL     1      25.819  -0.075  52.312  1.00  0.00     0.144 C 
ENDROOT
BRANCH   1   6
HETATM    6  C3  UNL     1      26.107   2.616  51.777  1.00  0.00     0.223 C 
BRANCH   6   7
HETATM    7  S1  UNL     1      26.369   2.856  49.994  1.00  0.00    -0.116 SA
BRANCH   7   8
HETATM    8  C2  UNL     1      25.823   4.526  49.573  1.00  0.00     0.095 C 
HETATM    9  C1  UNL     1      26.896   5.271  49.296  1.00  0.00     0.118 C 
BRANCH   9  10
HETATM   10  N1  UNL     1      27.621   6.456  48.921  1.00  0.00    -0.283 NA
HETATM   11  H1  UNL     1      27.879   6.759  47.974  1.00  0.00     0.126 HD
HETATM   12  H2  UNL     1      27.826   6.658  47.907  1.00  0.00     0.126 HD
ENDBRANCH   9  10
BRANCH   9  13
HETATM   13  O1  UNL     1      28.271   4.960  49.288  1.00  0.00    -0.350 OA
HETATM   14  H3  UNL     1      28.576   4.250  49.958  1.00  0.00     0.218 HD
ENDBRANCH   9  13
ENDBRANCH   7   8
ENDBRANCH   6   7
ENDBRANCH   1   6
BRANCH   5  15
HETATM   15  C13 UNL     1      27.154  -0.339  52.824  1.00  0.00    -0.033 A 
HETATM   16  C14 UNL     1      28.026   0.535  53.433  1.00  0.00     0.012 A 
HETATM   17  C15 UNL     1      29.281   0.227  53.908  1.00  0.00     0.043 A 
HETATM   18  C16 UNL     1      29.727  -1.074  53.770  1.00  0.00     0.116 A 
HETATM   19  F1  UNL     1      30.955  -1.381  54.234  1.00  0.00    -0.206 F 
HETATM   20  C17 UNL     1      28.896  -1.995  53.167  1.00  0.00     0.043 A 
HETATM   21  C18 UNL     1      27.661  -1.639  52.712  1.00  0.00     0.012 A 
ENDBRANCH   5  15
BRANCH   3  22
HETATM   22  C5  UNL     1      22.225  -0.062  52.924  1.00  0.00    -0.010 A 
HETATM   23  C6  UNL     1      21.208   0.431  52.134  1.00  0.00     0.015 A 
HETATM   24  C7  UNL     1      19.888   0.074  52.311  1.00  0.00     0.024 A 
HETATM   25  C8  UNL     1      19.619  -0.824  53.346  1.00  0.00     0.034 A 
HETATM   26 CL1  UNL     1      17.961  -1.313  53.618  1.00  0.00    -0.084 Cl
HETATM   27  C9  UNL     1      20.626  -1.322  54.140  1.00  0.00     0.024 A 
HETATM   28  C10 UNL     1      21.936  -0.947  53.939  1.00  0.00     0.015 A 
ENDBRANCH   3  22
TORSDOF 7
ENDMDL
MODEL 2
REMARK VINA RESULT:      -8.8      3.223      5.539
REMARK  7 active torsions:
REMARK  status: ('A' for Active; 'I' for Inactive)
REMARK    1  A    between atoms: N1_1  and  C1_2 
REMARK    2  A    between atoms: C1_2  and  O1_3 
REMARK    3  A    between atoms: C2_4  and  S1_5 
REMARK    4  A    between atoms: S1_5  and  C3_6 
REMARK    5  A    between atoms: C3_6  and  N2_7 
REMARK    6  A    between atoms: C4_9  and  C5_10 
REMARK    7  A    between atoms: C12_18  and  C13_19 
ROOT
HETATM    1  N2  UNL     1      25.274   1.854  52.922  1.00  0.00    -0.286 N 
HETATM    2  N3  UNL     1      24.254   1.102  53.507  1.00  0.00    -0.179 NA
HETATM    3  C4  UNL     1      23.224   0.948  52.750  1.00  0.00     0.067 C 
HETATM    4  C11 UNL     1      23.560   1.680  51.472  1.00  0.00     0.093 C 
HETATM    5  C12 UNL     1      24.466   2.744  52.112  1.00  0.00     0.144 C 
ENDROOT
BRANCH   1   6
HETATM    6  C3  UNL     1      26.632   1.513  53.298  1.00  0.00     0.223 C 
BRANCH   6   7
HETATM    7  S1  UNL     1      27.156   0.031  52.385  1.00  0.00    -0.116 SA
BRANCH   7   8
HETATM    8  C2  UNL     1      28.471  -0.768  53.331  1.00  0.00     0.095 C 
HETATM    9  C1  UNL     1      28.367  -2.090  53.178  1.00  0.00     0.118 C 
BRANCH   9  10
HETATM   10  N1  UNL     1      28.717  -3.473  53.364  1.00  0.00    -0.283 NA
HETATM   11  H1  UNL     1      28.311  -4.137  54.035  1.00  0.00     0.126 HD
HETATM   12  H2  UNL     1      28.224  -4.055  54.092  1.00  0.00     0.126 HD
ENDBRANCH   9  10
BRANCH   9  13
HETATM   13  O1  UNL     1      27.454  -2.876  52.446  1.00  0.00    -0.350 OA
HETATM   14  H3  UNL     1      26.789  -2.365  51.860  1.00  0.00     0.218 HD
ENDBRANCH   9  13
ENDBRANCH   7   8
ENDBRANCH   6   7
ENDBRANCH   1   6
BRANCH   5  15
HETATM   15  C13 UNL     1      25.173   3.470  51.071  1.00  0.00    -0.033 A 
HETATM   16  C14 UNL     1      26.233   3.049  50.299  1.00  0.00     0.012 A 
HETATM   17  C15 UNL     1      26.861   3.780  49.316  1.00  0.00     0.043 A 
HETATM   18  C16 UNL     1      26.402   5.059  49.064  1.00  0.00     0.116 A 
HETATM   19  F1  UNL     1      27.012   5.779  48.102  1.00  0.00    -0.206 F 
HETATM   20  C17 UNL     1      25.342   5.537  49.806  1.00  0.00     0.043 A 
HETATM   21  C18 UNL     1      24.754   4.772  50.769  1.00  0.00     0.012 A 
ENDBRANCH   5  15
BRANCH   3  22
HETATM   22  C5  UNL     1      21.959   0.241  52.973  1.00  0.00    -0.010 A 
HETATM   23  C6  UNL     1      21.863  -0.771  53.906  1.00  0.00     0.015 A 
HETATM   24  C7  UNL     1      20.691  -1.457  54.142  1.00  0.00     0.024 A 
HETATM   25  C8  UNL     1      19.583  -1.078  53.380  1.00  0.00     0.034 A 
HETATM   26 CL1  UNL     1      18.068  -1.914  53.636  1.00  0.00    -0.084 Cl
HETATM   27  C9  UNL     1      19.668  -0.070  52.447  1.00  0.00     0.024 A 
HETATM   28  C10 UNL     1      20.853   0.598  52.234  1.00  0.00     0.015 A 
ENDBRANCH   3  22
TORSDOF 7
ENDMDL
MODEL 3
REMARK VINA RESULT:      -8.7      4.272      7.463
REMARK  7 active torsions:
REMARK  status: ('A' for Active; 'I' for Inactive)
REMARK    1  A    between atoms: N1_1  and  C1_2 
REMARK    2  A    between atoms: C1_2  and  O1_3 
REMARK    3  A    between atoms: C2_4  and  S1_5 
REMARK    4  A    between atoms: S1_5  and  C3_6 
REMARK    5  A    between atoms: C3_6  and  N2_7 
REMARK    6  A    between atoms: C4_9  and  C5_10 
REMARK    7  A    between atoms: C12_18  and  C13_19 
ROOT
HETATM    1  N2  UNL     1      25.176   1.271  52.273  1.00  0.00    -0.286 N 
HETATM    2  N3  UNL     1      26.014   2.118  51.546  1.00  0.00    -0.179 NA
HETATM    3  C4  UNL     1      25.397   3.090  50.970  1.00  0.00     0.067 C 
HETATM    4  C11 UNL     1      23.944   2.908  51.338  1.00  0.00     0.093 C 
HETATM    5  C12 UNL     1      23.983   1.375  51.457  1.00  0.00     0.144 C 
ENDROOT
BRANCH   1   6
HETATM    6  C3  UNL     1      25.741   0.654  53.457  1.00  0.00     0.223 C 
BRANCH   6   7
HETATM    7  S1  UNL     1      27.309  -0.158  53.023  1.00  0.00    -0.116 SA
BRANCH   7   8
HETATM    8  C2  UNL     1      28.474   0.129  54.374  1.00  0.00     0.095 C 
HETATM    9  C1  UNL     1      29.027   1.335  54.215  1.00  0.00     0.118 C 
BRANCH   9  10
HETATM   10  N1  UNL     1      29.881   2.448  54.531  1.00  0.00    -0.283 NA
HETATM   11  H1  UNL     1      30.520   2.946  53.899  1.00  0.00     0.126 HD
HETATM   12  H2  UNL     1      30.496   2.876  53.789  1.00  0.00     0.126 HD
ENDBRANCH   9  10
BRANCH   9  13
HETATM   13  O1  UNL     1      28.841   2.323  53.228  1.00  0.00    -0.350 OA
HETATM   14  H3  UNL     1      28.121   2.130  52.527  1.00  0.00     0.218 HD
ENDBRANCH   9  13
ENDBRANCH   7   8
ENDBRANCH   6   7
ENDBRANCH   1   6
BRANCH   5  15
HETATM   15  C13 UNL     1      22.752   0.904  52.069  1.00  0.00    -0.033 A 
HETATM   16  C14 UNL     1      22.492   0.669  53.400  1.00  0.00     0.012 A 
HETATM   17  C15 UNL     1      21.298   0.229  53.927  1.00  0.00     0.043 A 
HETATM   18  C16 UNL     1      20.251  -0.007  53.057  1.00  0.00     0.116 A 
HETATM   19  F1  UNL     1      19.081  -0.437  53.568  1.00  0.00    -0.206 F 
HETATM   20  C17 UNL     1      20.453   0.210  51.710  1.00  0.00     0.043 A 
HETATM   21  C18 UNL     1      21.655   0.647  51.237  1.00  0.00     0.012 A 
ENDBRANCH   5  15
BRANCH   3  22
HETATM   22  C5  UNL     1      25.892   4.183  50.128  1.00  0.00    -0.010 A 
HETATM   23  C6  UNL     1      25.247   5.401  50.090  1.00  0.00     0.015 A 
HETATM   24  C7  UNL     1      25.684   6.451  49.309  1.00  0.00     0.024 A 
HETATM   25  C8  UNL     1      26.829   6.223  48.543  1.00  0.00     0.034 A 
HETATM   26 CL1  UNL     1      27.430   7.519  47.533  1.00  0.00    -0.084 Cl
HETATM   27  C9  UNL     1      27.480   5.011  48.574  1.00  0.00     0.024 A 
HETATM   28  C10 UNL     1      27.020   3.981  49.364  1.00  0.00     0.015 A 
ENDBRANCH   3  22
TORSDOF 7
ENDMDL
MODEL 4
REMARK VINA RESULT:      -8.6      2.094      2.767
REMARK  7 active torsions:
REMARK  status: ('A' for Active; 'I' for Inactive)
REMARK    1  A    between atoms: N1_1  and  C1_2 
REMARK    2  A    between atoms: C1_2  and  O1_3 
REMARK    3  A    between atoms: C2_4  and  S1_5 
REMARK    4  A    between atoms: S1_5  and  C3_6 
REMARK    5  A    between atoms: C3_6  and  N2_7 
REMARK    6  A    between atoms: C4_9  and  C5_10 
REMARK    7  A    between atoms: C12_18  and  C13_19 
ROOT
HETATM    1  N2  UNL     1      23.482   2.066  52.438  1.00  0.00    -0.286 N 
HETATM    2  N3  UNL     1      22.126   1.881  52.164  1.00  0.00    -0.179 NA
HETATM    3  C4  UNL     1      21.664   0.751  52.572  1.00  0.00     0.067 C 
HETATM    4  C11 UNL     1      22.839   0.053  53.216  1.00  0.00     0.093 C 
HETATM    5  C12 UNL     1      23.926   0.690  52.335  1.00  0.00     0.144 C 
ENDROOT
BRANCH   1   6
HETATM    6  C3  UNL     1      23.915   3.425  52.697  1.00  0.00     0.223 C 
BRANCH   6   7
HETATM    7  S1  UNL     1      23.020   4.563  51.598  1.00  0.00    -0.116 SA
BRANCH   7   8
HETATM    8  C2  UNL     1      24.197   5.206  50.388  1.00  0.00     0.095 C 
HETATM    9  C1  UNL     1      24.773   6.302  50.890  1.00  0.00     0.118 C 
BRANCH   9  10
HETATM   10  N1  UNL     1      25.651   7.441  50.911  1.00  0.00    -0.283 NA
HETATM   11  H1  UNL     1      25.949   7.986  51.729  1.00  0.00     0.126 HD
HETATM   12  H2  UNL     1      25.883   7.919  51.822  1.00  0.00     0.126 HD
ENDBRANCH   9  10
BRANCH   9  13
HETATM   13  O1  UNL     1      24.602   6.963  52.122  1.00  0.00    -0.350 OA
HETATM   14  H3  UNL     1      23.896   7.704  52.142  1.00  0.00     0.218 HD
ENDBRANCH   9  13
ENDBRANCH   7   8
ENDBRANCH   6   7
ENDBRANCH   1   6
BRANCH   5  15
HETATM   15  C13 UNL     1      25.236   0.402  52.894  1.00  0.00    -0.033 A 
HETATM   16  C14 UNL     1      26.406   0.107  52.231  1.00  0.00     0.012 A 
HETATM   17  C15 UNL     1      27.626  -0.149  52.816  1.00  0.00     0.043 A 
HETATM   18  C16 UNL     1      27.706  -0.114  54.195  1.00  0.00     0.116 A 
HETATM   19  F1  UNL     1      28.898  -0.364  54.772  1.00  0.00    -0.206 F 
HETATM   20  C17 UNL     1      26.565   0.175  54.914  1.00  0.00     0.043 A 
HETATM   21  C18 UNL     1      25.380   0.422  54.287  1.00  0.00     0.012 A 
ENDBRANCH   5  15
BRANCH   3  22
HETATM   22  C5  UNL     1      20.320   0.171  52.488  1.00  0.00    -0.010 A 
HETATM   23  C6  UNL     1      19.831  -0.643  53.488  1.00  0.00     0.015 A 
HETATM   24  C7  UNL     1      18.573  -1.206  53.441  1.00  0.00     0.024 A 
HETATM   25  C8  UNL     1      17.801  -0.913  52.315  1.00  0.00     0.034 A 
HETATM   26 CL1  UNL     1      16.196  -1.599  52.200  1.00  0.00    -0.084 Cl
HETATM   27  C9  UNL     1      18.279  -0.102  51.311  1.00  0.00     0.024 A 
HETATM   28  C10 UNL     1      19.541   0.447  51.386  1.00  0.00     0.015 A 
ENDBRANCH   3  22
TORSDOF 7
ENDMDL
MODEL 5
REMARK VINA RESULT:      -8.5      4.263      7.053
REMARK  7 active torsions:
REMARK  status: ('A' for Active; 'I' for Inactive)
REMARK    1  A    between atoms: N1_1  and  C1_2 
REMARK    2  A    between atoms: C1_2  and  O1_3 
REMARK    3  A    between atoms: C2_4  and  S1_5 
REMARK    4  A    between atoms: S1_5  and  C3_6 
REMARK    5  A    between atoms: C3_6  and  N2_7 
REMARK    6  A    between atoms: C4_9  and  C5_10 
REMARK    7  A    between atoms: C12_18  and  C13_19 
ROOT
HETATM    1  N2  UNL     1      22.305   1.832  52.596  1.00  0.00    -0.286 N 
HETATM    2  N3  UNL     1      23.687   1.884  52.788  1.00  0.00    -0.179 NA
HETATM    3  C4  UNL     1      24.231   0.729  52.955  1.00  0.00     0.067 C 
HETATM    4  C11 UNL     1      23.094  -0.260  52.869  1.00  0.00     0.093 C 
HETATM    5  C12 UNL     1      22.004   0.676  53.418  1.00  0.00     0.144 C 
ENDROOT
BRANCH   1   6
HETATM    6  C3  UNL     1      21.728   2.847  51.737  1.00  0.00     0.223 C 
BRANCH   6   7
HETATM    7  S1  UNL     1      22.931   3.305  50.453  1.00  0.00    -0.116 SA
BRANCH   7   8
HETATM    8  C2  UNL     1      22.995   5.109  50.373  1.00  0.00     0.095 C 
HETATM    9  C1  UNL     1      23.683   5.561  51.425  1.00  0.00     0.118 C 
BRANCH   9  10
HETATM   10  N1  UNL     1      24.285   6.543  52.286  1.00  0.00    -0.283 NA
HETATM   11  H1  UNL     1      24.555   7.505  52.047  1.00  0.00     0.126 HD
HETATM   12  H2  UNL     1      24.517   7.504  51.920  1.00  0.00     0.126 HD
ENDBRANCH   9  10
BRANCH   9  13
HETATM   13  O1  UNL     1      24.307   4.884  52.491  1.00  0.00    -0.350 OA
HETATM   14  H3  UNL     1      25.118   4.310  52.247  1.00  0.00     0.218 HD
ENDBRANCH   9  13
ENDBRANCH   7   8
ENDBRANCH   6   7
ENDBRANCH   1   6
BRANCH   5  15
HETATM   15  C13 UNL     1      20.698   0.075  53.212  1.00  0.00    -0.033 A 
HETATM   16  C14 UNL     1      19.692   0.478  52.362  1.00  0.00     0.012 A 
HETATM   17  C15 UNL     1      18.472  -0.139  52.201  1.00  0.00     0.043 A 
HETATM   18  C16 UNL     1      18.210  -1.268  52.952  1.00  0.00     0.116 A 
HETATM   19  F1  UNL     1      17.017  -1.876  52.798  1.00  0.00    -0.206 F 
HETATM   20  C17 UNL     1      19.180  -1.720  53.822  1.00  0.00     0.043 A 
HETATM   21  C18 UNL     1      20.374  -1.073  53.946  1.00  0.00     0.012 A 
ENDBRANCH   5  15
BRANCH   3  22
HETATM   22  C5  UNL     1      25.628   0.345  53.183  1.00  0.00    -0.010 A 
HETATM   23  C6  UNL     1      26.141  -0.821  52.655  1.00  0.00     0.015 A 
HETATM   24  C7  UNL     1      27.448  -1.214  52.850  1.00  0.00     0.024 A 
HETATM   25  C8  UNL     1      28.246  -0.365  53.620  1.00  0.00     0.034 A 
HETATM   26 CL1  UNL     1      29.914  -0.812  53.901  1.00  0.00    -0.084 Cl
HETATM   27  C9  UNL     1      27.744   0.801  54.152  1.00  0.00     0.024 A 
HETATM   28  C10 UNL     1      26.433   1.167  53.939  1.00  0.00     0.015 A 
ENDBRANCH   3  22
TORSDOF 7
ENDMDL
MODEL 6
REMARK VINA RESULT:      -8.3      4.382      7.631
REMARK  7 active torsions:
REMARK  status: ('A' for Active; 'I' for Inactive)
REMARK    1  A    between atoms: N1_1  and  C1_2 
REMARK    2  A    between atoms: C1_2  and  O1_3 
REMARK    3  A    between atoms: C2_4  and  S1_5 
REMARK    4  A    between atoms: S1_5  and  C3_6 
REMARK    5  A    between atoms: C3_6  and  N2_7 
REMARK    6  A    between atoms: C4_9  and  C5_10 
REMARK    7  A    between atoms: C12_18  and  C13_19 
ROOT
HETATM    1  N2  UNL     1      25.396   1.669  52.526  1.00  0.00    -0.286 N 
HETATM    2  N3  UNL     1      26.120   2.558  51.729  1.00  0.00    -0.179 NA
HETATM    3  C4  UNL     1      25.381   3.360  51.045  1.00  0.00     0.067 C 
HETATM    4  C11 UNL     1      23.961   2.994  51.404  1.00  0.00     0.093 C 
HETATM    5  C12 UNL     1      24.228   1.505  51.682  1.00  0.00     0.144 C 
ENDROOT
BRANCH   1   6
HETATM    6  C3  UNL     1      26.009   1.268  53.777  1.00  0.00     0.223 C 
BRANCH   6   7
HETATM    7  S1  UNL     1      27.491   0.274  53.431  1.00  0.00    -0.116 SA
BRANCH   7   8
HETATM    8  C2  UNL     1      26.948  -1.318  52.771  1.00  0.00     0.095 C 
HETATM    9  C1  UNL     1      27.903  -2.224  52.998  1.00  0.00     0.118 C 
BRANCH   9  10
HETATM   10  N1  UNL     1      28.528  -3.519  52.970  1.00  0.00    -0.283 NA
HETATM   11  H1  UNL     1      29.054  -3.944  52.197  1.00  0.00     0.126 HD
HETATM   12  H2  UNL     1      29.043  -3.845  52.110  1.00  0.00     0.126 HD
ENDBRANCH   9  10
BRANCH   9  13
HETATM   13  O1  UNL     1      29.160  -2.117  53.626  1.00  0.00    -0.350 OA
HETATM   14  H3  UNL     1      29.209  -1.489  54.432  1.00  0.00     0.218 HD
ENDBRANCH   9  13
ENDBRANCH   7   8
ENDBRANCH   6   7
ENDBRANCH   1   6
BRANCH   5  15
HETATM   15  C13 UNL     1      23.064   0.913  52.319  1.00  0.00    -0.033 A 
HETATM   16  C14 UNL     1      21.811   1.457  52.490  1.00  0.00     0.012 A 
HETATM   17  C15 UNL     1      20.737   0.843  53.096  1.00  0.00     0.043 A 
HETATM   18  C16 UNL     1      20.912  -0.437  53.587  1.00  0.00     0.116 A 
HETATM   19  F1  UNL     1      19.865  -1.043  54.180  1.00  0.00    -0.206 F 
HETATM   20  C17 UNL     1      22.148  -1.034  53.444  1.00  0.00     0.043 A 
HETATM   21  C18 UNL     1      23.180  -0.384  52.836  1.00  0.00     0.012 A 
ENDBRANCH   5  15
BRANCH   3  22
HETATM   22  C5  UNL     1      25.732   4.427  50.102  1.00  0.00    -0.010 A 
HETATM   23  C6  UNL     1      24.874   5.481  49.868  1.00  0.00     0.015 A 
HETATM   24  C7  UNL     1      25.171   6.501  48.988  1.00  0.00     0.024 A 
HETATM   25  C8  UNL     1      26.400   6.418  48.330  1.00  0.00     0.034 A 
HETATM   26 CL1  UNL     1      26.831   7.684  47.202  1.00  0.00    -0.084 Cl
HETATM   27  C9  UNL     1      27.263   5.370  48.556  1.00  0.00     0.024 A 
HETATM   28  C10 UNL     1      26.939   4.366  49.442  1.00  0.00     0.015 A 
ENDBRANCH   3  22
TORSDOF 7
ENDMDL
MODEL 7
REMARK VINA RESULT:      -8.3      4.604      7.393
REMARK  7 active torsions:
REMARK  status: ('A' for Active; 'I' for Inactive)
REMARK    1  A    between atoms: N1_1  and  C1_2 
REMARK    2  A    between atoms: C1_2  and  O1_3 
REMARK    3  A    between atoms: C2_4  and  S1_5 
REMARK    4  A    between atoms: S1_5  and  C3_6 
REMARK    5  A    between atoms: C3_6  and  N2_7 
REMARK    6  A    between atoms: C4_9  and  C5_10 
REMARK    7  A    between atoms: C12_18  and  C13_19 
ROOT
HETATM    1  N2  UNL     1      24.232   3.332  50.316  1.00  0.00    -0.286 N 
HETATM    2  N3  UNL     1      24.653   4.453  49.600  1.00  0.00    -0.179 NA
HETATM    3  C4  UNL     1      25.928   4.511  49.429  1.00  0.00     0.067 C 
HETATM    4  C11 UNL     1      26.474   3.277  50.107  1.00  0.00     0.093 C 
HETATM    5  C12 UNL     1      25.382   3.171  51.184  1.00  0.00     0.144 C 
ENDROOT
BRANCH   1   6
HETATM    6  C3  UNL     1      22.932   2.791  49.973  1.00  0.00     0.223 C 
BRANCH   6   7
HETATM    7  S1  UNL     1      21.728   3.258  51.253  1.00  0.00    -0.116 SA
BRANCH   7   8
HETATM    8  C2  UNL     1      20.890   4.761  50.704  1.00  0.00     0.095 C 
HETATM    9  C1  UNL     1      21.595   5.819  51.113  1.00  0.00     0.118 C 
BRANCH   9  10
HETATM   10  N1  UNL     1      21.912   7.213  51.276  1.00  0.00    -0.283 NA
HETATM   11  H1  UNL     1      21.261   7.986  51.458  1.00  0.00     0.126 HD
HETATM   12  H2  UNL     1      21.149   7.916  51.460  1.00  0.00     0.126 HD
ENDBRANCH   9  10
BRANCH   9  13
HETATM   13  O1  UNL     1      22.794   5.913  51.848  1.00  0.00    -0.350 OA
HETATM   14  H3  UNL     1      23.049   5.092  52.402  1.00  0.00     0.218 HD
ENDBRANCH   9  13
ENDBRANCH   7   8
ENDBRANCH   6   7
ENDBRANCH   1   6
BRANCH   5  15
HETATM   15  C13 UNL     1      25.490   1.890  51.862  1.00  0.00    -0.033 A 
HETATM   16  C14 UNL     1      24.623   1.324  52.770  1.00  0.00     0.012 A 
HETATM   17  C15 UNL     1      24.773   0.097  53.376  1.00  0.00     0.043 A 
HETATM   18  C16 UNL     1      25.890  -0.653  53.059  1.00  0.00     0.116 A 
HETATM   19  F1  UNL     1      26.040  -1.855  53.649  1.00  0.00    -0.206 F 
HETATM   20  C17 UNL     1      26.795  -0.137  52.155  1.00  0.00     0.043 A 
HETATM   21  C18 UNL     1      26.601   1.084  51.581  1.00  0.00     0.012 A 
ENDBRANCH   5  15
BRANCH   3  22
HETATM   22  C5  UNL     1      26.766   5.502  48.746  1.00  0.00    -0.010 A 
HETATM   23  C6  UNL     1      26.241   6.700  48.309  1.00  0.00     0.015 A 
HETATM   24  C7  UNL     1      26.999   7.654  47.663  1.00  0.00     0.024 A 
HETATM   25  C8  UNL     1      28.347   7.348  47.465  1.00  0.00     0.034 A 
HETATM   26 CL1  UNL     1      29.358   8.521  46.650  1.00  0.00    -0.084 Cl
HETATM   27  C9  UNL     1      28.881   6.156  47.896  1.00  0.00     0.024 A 
HETATM   28  C10 UNL     1      28.098   5.222  48.540  1.00  0.00     0.015 A 
ENDBRANCH   3  22
TORSDOF 7
ENDMDL
MODEL 8
REMARK VINA RESULT:      -8.2      4.193      6.927
REMARK  7 active torsions:
REMARK  status: ('A' for Active; 'I' for Inactive)
REMARK    1  A    between atoms: N1_1  and  C1_2 
REMARK    2  A    between atoms: C1_2  and  O1_3 
REMARK    3  A    between atoms: C2_4  and  S1_5 
REMARK    4  A    between atoms: S1_5  and  C3_6 
REMARK    5  A    between atoms: C3_6  and  N2_7 
REMARK    6  A    between atoms: C4_9  and  C5_10 
REMARK    7  A    between atoms: C12_18  and  C13_19 
ROOT
HETATM    1  N2  UNL     1      23.340   3.166  52.667  1.00  0.00    -0.286 N 
HETATM    2  N3  UNL     1      24.631   2.887  53.118  1.00  0.00    -0.179 NA
HETATM    3  C4  UNL     1      25.066   1.728  52.764  1.00  0.00     0.067 C 
HETATM    4  C11 UNL     1      23.944   1.113  51.962  1.00  0.00     0.093 C 
HETATM    5  C12 UNL     1      22.794   1.822  52.696  1.00  0.00     0.144 C 
ENDROOT
BRANCH   1   6
HETATM    6  C3  UNL     1      23.039   4.551  52.367  1.00  0.00     0.223 C 
BRANCH   6   7
HETATM    7  S1  UNL     1      23.741   4.983  50.747  1.00  0.00    -0.116 SA
BRANCH   7   8
HETATM    8  C2  UNL     1      24.111   6.751  50.756  1.00  0.00     0.095 C 
HETATM    9  C1  UNL     1      25.394   6.923  50.425  1.00  0.00     0.118 C 
BRANCH   9  10
HETATM   10  N1  UNL     1      26.600   7.656  50.148  1.00  0.00    -0.283 NA
HETATM   11  H1  UNL     1      27.555   7.427  50.448  1.00  0.00     0.126 HD
HETATM   12  H2  UNL     1      27.528   7.316  50.515  1.00  0.00     0.126 HD
ENDBRANCH   9  10
BRANCH   9  13
HETATM   13  O1  UNL     1      26.405   5.997  50.099  1.00  0.00    -0.350 OA
HETATM   14  H3  UNL     1      26.156   5.008  50.186  1.00  0.00     0.218 HD
ENDBRANCH   9  13
ENDBRANCH   7   8
ENDBRANCH   6   7
ENDBRANCH   1   6
BRANCH   5  15
HETATM   15  C13 UNL     1      21.555   1.626  51.963  1.00  0.00    -0.033 A 
HETATM   16  C14 UNL     1      20.261   1.756  52.416  1.00  0.00     0.012 A 
HETATM   17  C15 UNL     1      19.119   1.565  51.670  1.00  0.00     0.043 A 
HETATM   18  C16 UNL     1      19.261   1.208  50.342  1.00  0.00     0.116 A 
HETATM   19  F1  UNL     1      18.147   1.021  49.608  1.00  0.00    -0.206 F 
HETATM   20  C17 UNL     1      20.534   1.062  49.833  1.00  0.00     0.043 A 
HETATM   21  C18 UNL     1      21.634   1.263  50.613  1.00  0.00     0.012 A 
ENDBRANCH   5  15
BRANCH   3  22
HETATM   22  C5  UNL     1      26.344   1.057  53.022  1.00  0.00    -0.010 A 
HETATM   23  C6  UNL     1      27.430   1.755  53.507  1.00  0.00     0.015 A 
HETATM   24  C7  UNL     1      28.646   1.157  53.760  1.00  0.00     0.024 A 
HETATM   25  C8  UNL     1      28.734  -0.212  53.498  1.00  0.00     0.034 A 
HETATM   26 CL1  UNL     1      30.253  -1.025  53.800  1.00  0.00    -0.084 Cl
HETATM   27  C9  UNL     1      27.656  -0.918  53.014  1.00  0.00     0.024 A 
HETATM   28  C10 UNL     1      26.453  -0.292  52.772  1.00  0.00     0.015 A 
ENDBRANCH   3  22
TORSDOF 7
ENDMDL
MODEL 9
REMARK VINA RESULT:      -8.0      2.782      3.365
REMARK  7 active torsions:
REMARK  status: ('A' for Active; 'I' for Inactive)
REMARK    1  A    between atoms: N1_1  and  C1_2 
REMARK    2  A    between atoms: C1_2  and  O1_3 
REMARK    3  A    between atoms: C2_4  and  S1_5 
REMARK    4  A    between atoms: S1_5  and  C3_6 
REMARK    5  A    between atoms: C3_6  and  N2_7 
REMARK    6  A    between atoms: C4_9  and  C5_10 
REMARK    7  A    between atoms: C12_18  and  C13_19 
ROOT
HETATM    1  N2  UNL     1      23.893   1.820  51.670  1.00  0.00    -0.286 N 
HETATM    2  N3  UNL     1      22.540   1.618  51.393  1.00  0.00    -0.179 NA
HETATM    3  C4  UNL     1      21.980   0.744  52.154  1.00  0.00     0.067 C 
HETATM    4  C11 UNL     1      23.071   0.273  53.086  1.00  0.00     0.093 C 
HETATM    5  C12 UNL     1      24.239   0.482  52.108  1.00  0.00     0.144 C 
ENDROOT
BRANCH   1   6
HETATM    6  C3  UNL     1      24.412   3.154  51.442  1.00  0.00     0.223 C 
BRANCH   6   7
HETATM    7  S1  UNL     1      23.390   4.360  52.340  1.00  0.00    -0.116 SA
BRANCH   7   8
HETATM    8  C2  UNL     1      22.554   5.396  51.119  1.00  0.00     0.095 C 
HETATM    9  C1  UNL     1      21.285   4.996  51.014  1.00  0.00     0.118 C 
BRANCH   9  10
HETATM   10  N1  UNL     1      19.934   5.002  50.518  1.00  0.00    -0.283 NA
HETATM   11  H1  UNL     1      19.119   4.520  50.916  1.00  0.00     0.126 HD
HETATM   12  H2  UNL     1      19.179   4.463  51.019  1.00  0.00     0.126 HD
ENDBRANCH   9  10
BRANCH   9  13
HETATM   13  O1  UNL     1      20.573   3.968  51.666  1.00  0.00    -0.350 OA
HETATM   14  H3  UNL     1      19.555   4.066  51.683  1.00  0.00     0.218 HD
ENDBRANCH   9  13
ENDBRANCH   7   8
ENDBRANCH   6   7
ENDBRANCH   1   6
BRANCH   5  15
HETATM   15  C13 UNL     1      25.499   0.354  52.821  1.00  0.00    -0.033 A 
HETATM   16  C14 UNL     1      26.775   0.319  52.307  1.00  0.00     0.012 A 
HETATM   17  C15 UNL     1      27.939   0.205  53.035  1.00  0.00     0.043 A 
HETATM   18  C16 UNL     1      27.839   0.115  54.410  1.00  0.00     0.116 A 
HETATM   19  F1  UNL     1      28.975   0.004  55.127  1.00  0.00    -0.206 F 
HETATM   20  C17 UNL     1      26.585   0.144  54.983  1.00  0.00     0.043 A 
HETATM   21  C18 UNL     1      25.462   0.259  54.218  1.00  0.00     0.012 A 
ENDBRANCH   5  15
BRANCH   3  22
HETATM   22  C5  UNL     1      20.602   0.244  52.198  1.00  0.00    -0.010 A 
HETATM   23  C6  UNL     1      19.723   0.487  51.163  1.00  0.00     0.015 A 
HETATM   24  C7  UNL     1      18.421   0.033  51.171  1.00  0.00     0.024 A 
HETATM   25  C8  UNL     1      18.022  -0.696  52.293  1.00  0.00     0.034 A 
HETATM   26 CL1  UNL     1      16.380  -1.298  52.358  1.00  0.00    -0.084 Cl
HETATM   27  C9  UNL     1      18.891  -0.944  53.331  1.00  0.00     0.024 A 
HETATM   28  C10 UNL     1      20.187  -0.478  53.294  1.00  0.00     0.015 A 
ENDBRANCH   3  22
TORSDOF 7
ENDMDL
