MODEL 1
REMARK VINA RESULT:      -8.3      0.000      0.000
REMARK  5 active torsions:
REMARK  status: ('A' for Active; 'I' for Inactive)
REMARK    1  A    between atoms: N1_2  and  C3_4 
REMARK    2  A    between atoms: C3_4  and  C4_5 
REMARK    3  A    between atoms: C5_6  and  C6_7 
REMARK       I    between atoms: C6_7  and  N2_9 
REMARK    4  A    between atoms: N2_9  and  C7_10 
REMARK    5  A    between atoms: C15_19  and  C16_21 
ROOT
HETATM    1  C7  UNL     1      21.825   1.325  52.526  1.00  0.00     0.045 C 
HETATM    2  C8  UNL     1      22.318   0.340  53.275  1.00  0.00     0.032 C 
HETATM    3  C9  UNL     1      23.266  -0.421  54.024  1.00  0.00     0.019 C 
HETATM    4  C10 UNL     1      24.047  -1.241  54.754  1.00  0.00     0.084 C 
HETATM    5  N3  UNL     1      25.467  -1.013  55.066  1.00  0.00    -0.386 N 
HETATM    6  C11 UNL     1      26.372   0.026  55.192  1.00  0.00     0.067 A 
HETATM    7  C12 UNL     1      26.880   1.110  54.514  1.00  0.00     0.052 A 
HETATM    8  C13 UNL     1      27.366   2.164  53.811  1.00  0.00     0.071 A 
HETATM    9  C14 UNL     1      27.066   2.199  52.468  1.00  0.00     0.150 A 
HETATM   10  C15 UNL     1      26.543   1.101  53.092  1.00  0.00     0.069 A 
HETATM   11 CL1  UNL     1      26.926   0.375  51.461  1.00  0.00    -0.169 Cl
HETATM   12  C16 UNL     1      26.020  -0.012  53.756  1.00  0.00     0.051 A 
HETATM   13  O2  UNL     1      27.148   2.840  51.216  1.00  0.00    -0.359 OA
HETATM   14  C17 UNL     1      26.012   2.681  50.365  1.00  0.00     0.216 C 
HETATM   15  C18 UNL     1      24.733   3.047  50.922  1.00  0.00     0.007 A 
HETATM   16  C19 UNL     1      23.906   2.098  51.478  1.00  0.00     0.031 A 
HETATM   17  C20 UNL     1      22.643   2.438  52.002  1.00  0.00    -0.002 A 
HETATM   18  C21 UNL     1      22.249   3.728  51.956  1.00  0.00     0.064 A 
HETATM   19  S1  UNL     1      23.693   4.597  51.130  1.00  0.00    -0.103 SA
HETATM   20  H15 UNL     1      25.801  -2.021  55.219  1.00  0.00     0.159 HD
ENDROOT
BRANCH   1  21
HETATM   21  N2  UNL     1      20.428   1.085  52.256  1.00  0.00    -0.323 N 
HETATM   22  C6  UNL     1      19.826   0.861  50.950  1.00  0.00     0.242 C 
HETATM   23  O1  UNL     1      20.381   0.882  49.837  1.00  0.00    -0.269 OA
HETATM   24  H11 UNL     1      19.807   1.069  53.096  1.00  0.00     0.169 HD
BRANCH  22  25
HETATM   25  C5  UNL     1      18.366   0.539  50.906  1.00  0.00     0.054 C 
HETATM   26  C4  UNL     1      18.335  -0.282  51.924  1.00  0.00     0.051 C 
BRANCH  26  27
HETATM   27  C3  UNL     1      16.849  -0.548  51.844  1.00  0.00     0.280 C 
BRANCH  27  28
HETATM   28  N1  UNL     1      16.398  -1.579  52.758  1.00  0.00     0.080 N 
HETATM   29  C1  UNL     1      17.463  -2.346  53.350  1.00  0.00     0.309 C 
HETATM   30  C2  UNL     1      15.404  -2.438  52.161  1.00  0.00     0.309 C 
ENDBRANCH  27  28
ENDBRANCH  26  27
ENDBRANCH  22  25
ENDBRANCH   1  21
TORSDOF 5
ENDMDL
MODEL 2
REMARK VINA RESULT:      -8.0      1.488      1.910
REMARK  5 active torsions:
REMARK  status: ('A' for Active; 'I' for Inactive)
REMARK    1  A    between atoms: N1_2  and  C3_4 
REMARK    2  A    between atoms: C3_4  and  C4_5 
REMARK    3  A    between atoms: C5_6  and  C6_7 
REMARK       I    between atoms: C6_7  and  N2_9 
REMARK    4  A    between atoms: N2_9  and  C7_10 
REMARK    5  A    between atoms: C15_19  and  C16_21 
ROOT
HETATM    1  C7  UNL     1      21.731   1.484  52.666  1.00  0.00     0.045 C 
HETATM    2  C8  UNL     1      22.211   0.467  53.380  1.00  0.00     0.032 C 
HETATM    3  C9  UNL     1      23.154  -0.344  54.082  1.00  0.00     0.019 C 
HETATM    4  C10 UNL     1      23.928  -1.206  54.769  1.00  0.00     0.084 C 
HETATM    5  N3  UNL     1      25.365  -1.040  55.034  1.00  0.00    -0.386 N 
HETATM    6  C11 UNL     1      26.315  -0.039  55.144  1.00  0.00     0.067 A 
HETATM    7  C12 UNL     1      26.841   1.036  54.467  1.00  0.00     0.052 A 
HETATM    8  C13 UNL     1      27.343   2.083  53.764  1.00  0.00     0.071 A 
HETATM    9  C14 UNL     1      26.998   2.153  52.433  1.00  0.00     0.150 A 
HETATM   10  C15 UNL     1      26.454   1.066  53.058  1.00  0.00     0.069 A 
HETATM   11 CL1  UNL     1      26.751   0.355  51.402  1.00  0.00    -0.169 Cl
HETATM   12  C16 UNL     1      25.912  -0.038  53.722  1.00  0.00     0.051 A 
HETATM   13  O2  UNL     1      27.061   2.813  51.190  1.00  0.00    -0.359 OA
HETATM   14  C17 UNL     1      25.890   2.714  50.377  1.00  0.00     0.216 C 
HETATM   15  C18 UNL     1      24.648   3.119  50.987  1.00  0.00     0.007 A 
HETATM   16  C19 UNL     1      23.804   2.193  51.556  1.00  0.00     0.031 A 
HETATM   17  C20 UNL     1      22.574   2.573  52.131  1.00  0.00    -0.002 A 
HETATM   18  C21 UNL     1      22.231   3.877  52.120  1.00  0.00     0.064 A 
HETATM   19  S1  UNL     1      23.678   4.705  51.257  1.00  0.00    -0.103 SA
HETATM   20  H15 UNL     1      25.665  -2.062  55.158  1.00  0.00     0.159 HD
ENDROOT
BRANCH   1  21
HETATM   21  N2  UNL     1      20.318   1.303  52.442  1.00  0.00    -0.323 N 
HETATM   22  C6  UNL     1      19.674   1.014  51.169  1.00  0.00     0.242 C 
HETATM   23  O1  UNL     1      20.203   0.918  50.048  1.00  0.00    -0.269 OA
HETATM   24  H11 UNL     1      19.717   1.386  53.292  1.00  0.00     0.169 HD
BRANCH  22  25
HETATM   25  C5  UNL     1      18.198   0.772  51.178  1.00  0.00     0.054 C 
HETATM   26  C4  UNL     1      17.813   2.023  51.163  1.00  0.00     0.051 C 
BRANCH  26  27
HETATM   27  C3  UNL     1      16.334   1.714  51.145  1.00  0.00     0.280 C 
BRANCH  27  28
HETATM   28  N1  UNL     1      15.512   2.803  51.636  1.00  0.00     0.080 N 
HETATM   29  C1  UNL     1      16.249   4.003  51.942  1.00  0.00     0.309 C 
HETATM   30  C2  UNL     1      14.683   2.401  52.747  1.00  0.00     0.309 C 
ENDBRANCH  27  28
ENDBRANCH  26  27
ENDBRANCH  22  25
ENDBRANCH   1  21
TORSDOF 5
ENDMDL
MODEL 3
REMARK VINA RESULT:      -7.6      6.801     11.409
REMARK  5 active torsions:
REMARK  status: ('A' for Active; 'I' for Inactive)
REMARK    1  A    between atoms: N1_2  and  C3_4 
REMARK    2  A    between atoms: C3_4  and  C4_5 
REMARK    3  A    between atoms: C5_6  and  C6_7 
REMARK       I    between atoms: C6_7  and  N2_9 
REMARK    4  A    between atoms: N2_9  and  C7_10 
REMARK    5  A    between atoms: C15_19  and  C16_21 
ROOT
HETATM    1  C7  UNL     1      28.957   6.104  48.010  1.00  0.00     0.045 C 
HETATM    2  C8  UNL     1      28.280   5.110  48.582  1.00  0.00     0.032 C 
HETATM    3  C9  UNL     1      27.167   4.358  49.066  1.00  0.00     0.019 C 
HETATM    4  C10 UNL     1      26.219   3.545  49.572  1.00  0.00     0.084 C 
HETATM    5  N3  UNL     1      24.771   3.799  49.540  1.00  0.00    -0.386 N 
HETATM    6  C11 UNL     1      23.832   4.498  48.801  1.00  0.00     0.067 A 
HETATM    7  C12 UNL     1      23.541   5.758  48.331  1.00  0.00     0.052 A 
HETATM    8  C13 UNL     1      23.282   7.016  47.894  1.00  0.00     0.071 A 
HETATM    9  C14 UNL     1      24.024   8.030  48.457  1.00  0.00     0.150 A 
HETATM   10  C15 UNL     1      24.348   6.801  48.961  1.00  0.00     0.069 A 
HETATM   11 CL1  UNL     1      24.584   7.821  50.457  1.00  0.00    -0.169 Cl
HETATM   12  C16 UNL     1      24.659   5.532  49.459  1.00  0.00     0.051 A 
HETATM   13  O2  UNL     1      24.351   9.396  48.548  1.00  0.00    -0.359 OA
HETATM   14  C17 UNL     1      25.717   9.687  48.849  1.00  0.00     0.216 C 
HETATM   15  C18 UNL     1      26.707   9.093  47.986  1.00  0.00     0.007 A 
HETATM   16  C19 UNL     1      27.333   7.917  48.331  1.00  0.00     0.031 A 
HETATM   17  C20 UNL     1      28.322   7.340  47.509  1.00  0.00    -0.002 A 
HETATM   18  C21 UNL     1      28.649   7.961  46.358  1.00  0.00     0.064 A 
HETATM   19  S1  UNL     1      27.542   9.477  46.347  1.00  0.00    -0.103 SA
HETATM   20  H15 UNL     1      24.449   3.227  50.388  1.00  0.00     0.159 HD
ENDROOT
BRANCH   1  21
HETATM   21  N2  UNL     1      30.370   5.816  48.037  1.00  0.00    -0.323 N 
HETATM   22  C6  UNL     1      31.398   6.590  48.719  1.00  0.00     0.242 C 
HETATM   23  O1  UNL     1      31.262   7.651  49.353  1.00  0.00    -0.269 OA
HETATM   24  H11 UNL     1      30.662   4.959  47.515  1.00  0.00     0.169 HD
BRANCH  22  25
HETATM   25  C5  UNL     1      32.796   6.059  48.695  1.00  0.00     0.054 C 
HETATM   26  C4  UNL     1      32.564   4.980  47.992  1.00  0.00     0.051 C 
BRANCH  26  27
HETATM   27  C3  UNL     1      34.000   4.510  47.980  1.00  0.00     0.280 C 
BRANCH  27  28
HETATM   28  N1  UNL     1      34.183   3.233  47.318  1.00  0.00     0.080 N 
HETATM   29  C1  UNL     1      34.971   3.303  46.114  1.00  0.00     0.309 C 
HETATM   30  C2  UNL     1      32.929   2.558  47.082  1.00  0.00     0.309 C 
ENDBRANCH  27  28
ENDBRANCH  26  27
ENDBRANCH  22  25
ENDBRANCH   1  21
TORSDOF 5
ENDMDL
MODEL 4
REMARK VINA RESULT:      -7.5      8.403     11.034
REMARK  5 active torsions:
REMARK  status: ('A' for Active; 'I' for Inactive)
REMARK    1  A    between atoms: N1_2  and  C3_4 
REMARK    2  A    between atoms: C3_4  and  C4_5 
REMARK    3  A    between atoms: C5_6  and  C6_7 
REMARK       I    between atoms: C6_7  and  N2_9 
REMARK    4  A    between atoms: N2_9  and  C7_10 
REMARK    5  A    between atoms: C15_19  and  C16_21 
ROOT
HETATM    1  C7  UNL     1      29.818   7.063  48.670  1.00  0.00     0.045 C 
HETATM    2  C8  UNL     1      30.580   5.976  48.555  1.00  0.00     0.032 C 
HETATM    3  C9  UNL     1      31.756   5.180  48.404  1.00  0.00     0.019 C 
HETATM    4  C10 UNL     1      32.772   4.307  48.264  1.00  0.00     0.084 C 
HETATM    5  N3  UNL     1      34.194   4.664  48.143  1.00  0.00    -0.386 N 
HETATM    6  C11 UNL     1      35.065   5.683  48.486  1.00  0.00     0.067 A 
HETATM    7  C12 UNL     1      35.246   7.041  48.367  1.00  0.00     0.052 A 
HETATM    8  C13 UNL     1      35.396   8.382  48.220  1.00  0.00     0.071 A 
HETATM    9  C14 UNL     1      34.575   8.997  47.302  1.00  0.00     0.150 A 
HETATM   10  C15 UNL     1      34.359   7.649  47.378  1.00  0.00     0.069 A 
HETATM   11 CL1  UNL     1      34.049   7.912  45.597  1.00  0.00    -0.169 Cl
HETATM   12  C16 UNL     1      34.159   6.269  47.475  1.00  0.00     0.051 A 
HETATM   13  O2  UNL     1      34.135  10.164  46.648  1.00  0.00    -0.359 OA
HETATM   14  C17 UNL     1      32.752  10.191  46.293  1.00  0.00     0.216 C 
HETATM   15  C18 UNL     1      31.809   9.944  47.356  1.00  0.00     0.007 A 
HETATM   16  C19 UNL     1      31.287   8.688  47.561  1.00  0.00     0.031 A 
HETATM   17  C20 UNL     1      30.344   8.440  48.580  1.00  0.00    -0.002 A 
HETATM   18  C21 UNL     1      29.958   9.465  49.367  1.00  0.00     0.064 A 
HETATM   19  S1  UNL     1      30.934  10.923  48.700  1.00  0.00    -0.103 SA
HETATM   20  H15 UNL     1      34.568   3.812  47.609  1.00  0.00     0.159 HD
ENDROOT
BRANCH   1  21
HETATM   21  N2  UNL     1      28.435   6.680  48.810  1.00  0.00    -0.323 N 
HETATM   22  C6  UNL     1      27.319   7.162  48.009  1.00  0.00     0.242 C 
HETATM   23  O1  UNL     1      27.339   8.013  47.102  1.00  0.00    -0.269 OA
HETATM   24  H11 UNL     1      28.237   5.983  49.563  1.00  0.00     0.169 HD
BRANCH  22  25
HETATM   25  C5  UNL     1      25.973   6.562  48.262  1.00  0.00     0.054 C 
HETATM   26  C4  UNL     1      26.368   5.532  48.966  1.00  0.00     0.051 C 
BRANCH  26  27
HETATM   27  C3  UNL     1      24.978   4.989  49.211  1.00  0.00     0.280 C 
BRANCH  27  28
HETATM   28  N1  UNL     1      24.972   3.689  49.854  1.00  0.00     0.080 N 
HETATM   29  C1  UNL     1      24.234   3.649  51.090  1.00  0.00     0.309 C 
HETATM   30  C2  UNL     1      26.305   3.160  50.023  1.00  0.00     0.309 C 
ENDBRANCH  27  28
ENDBRANCH  26  27
ENDBRANCH  22  25
ENDBRANCH   1  21
TORSDOF 5
ENDMDL
MODEL 5
REMARK VINA RESULT:      -7.4      2.914      4.103
REMARK  5 active torsions:
REMARK  status: ('A' for Active; 'I' for Inactive)
REMARK    1  A    between atoms: N1_2  and  C3_4 
REMARK    2  A    between atoms: C3_4  and  C4_5 
REMARK    3  A    between atoms: C5_6  and  C6_7 
REMARK       I    between atoms: C6_7  and  N2_9 
REMARK    4  A    between atoms: N2_9  and  C7_10 
REMARK    5  A    between atoms: C15_19  and  C16_21 
ROOT
HETATM    1  C7  UNL     1      21.500   2.138  52.412  1.00  0.00     0.045 C 
HETATM    2  C8  UNL     1      22.477   2.931  51.973  1.00  0.00     0.032 C 
HETATM    3  C9  UNL     1      23.789   3.349  51.597  1.00  0.00     0.019 C 
HETATM    4  C10 UNL     1      24.966   3.881  51.212  1.00  0.00     0.084 C 
HETATM    5  N3  UNL     1      26.256   3.174  51.188  1.00  0.00    -0.386 N 
HETATM    6  C11 UNL     1      26.759   1.888  51.089  1.00  0.00     0.067 A 
HETATM    7  C12 UNL     1      26.673   0.642  51.665  1.00  0.00     0.052 A 
HETATM    8  C13 UNL     1      26.570  -0.570  52.265  1.00  0.00     0.071 A 
HETATM    9  C14 UNL     1      25.925  -0.603  53.482  1.00  0.00     0.150 A 
HETATM   10  C15 UNL     1      25.989   0.657  52.955  1.00  0.00     0.069 A 
HETATM   11 CL1  UNL     1      26.138   1.056  54.731  1.00  0.00    -0.169 Cl
HETATM   12  C16 UNL     1      26.068   1.935  52.395  1.00  0.00     0.051 A 
HETATM   13  O2  UNL     1      25.448  -1.328  54.590  1.00  0.00    -0.359 OA
HETATM   14  C17 UNL     1      24.246  -0.834  55.182  1.00  0.00     0.216 C 
HETATM   15  C18 UNL     1      23.119  -0.657  54.299  1.00  0.00     0.007 A 
HETATM   16  C19 UNL     1      22.839   0.572  53.747  1.00  0.00     0.031 A 
HETATM   17  C20 UNL     1      21.725   0.763  52.904  1.00  0.00    -0.002 A 
HETATM   18  C21 UNL     1      20.926  -0.290  52.638  1.00  0.00     0.064 A 
HETATM   19  S1  UNL     1      21.717  -1.694  53.601  1.00  0.00    -0.103 SA
HETATM   20  H15 UNL     1      26.935   3.997  51.290  1.00  0.00     0.159 HD
ENDROOT
BRANCH   1  21
HETATM   21  N2  UNL     1      20.247   2.851  52.402  1.00  0.00    -0.323 N 
HETATM   22  C6  UNL     1      19.218   2.779  51.376  1.00  0.00     0.242 C 
HETATM   23  O1  UNL     1      19.245   2.140  50.309  1.00  0.00    -0.269 OA
HETATM   24  H11 UNL     1      20.078   3.471  53.227  1.00  0.00     0.169 HD
BRANCH  22  25
HETATM   25  C5  UNL     1      17.948   3.534  51.611  1.00  0.00     0.054 C 
HETATM   26  C4  UNL     1      17.142   2.506  51.685  1.00  0.00     0.051 C 
BRANCH  26  27
HETATM   27  C3  UNL     1      15.898   3.323  51.947  1.00  0.00     0.280 C 
BRANCH  27  28
HETATM   28  N1  UNL     1      14.952   2.667  52.828  1.00  0.00     0.080 N 
HETATM   29  C1  UNL     1      14.823   1.250  52.600  1.00  0.00     0.309 C 
HETATM   30  C2  UNL     1      13.663   3.316  52.824  1.00  0.00     0.309 C 
ENDBRANCH  27  28
ENDBRANCH  26  27
ENDBRANCH  22  25
ENDBRANCH   1  21
TORSDOF 5
ENDMDL
MODEL 6
REMARK VINA RESULT:      -7.2      5.039      9.491
REMARK  5 active torsions:
REMARK  status: ('A' for Active; 'I' for Inactive)
REMARK    1  A    between atoms: N1_2  and  C3_4 
REMARK    2  A    between atoms: C3_4  and  C4_5 
REMARK    3  A    between atoms: C5_6  and  C6_7 
REMARK       I    between atoms: C6_7  and  N2_9 
REMARK    4  A    between atoms: N2_9  and  C7_10 
REMARK    5  A    between atoms: C15_19  and  C16_21 
ROOT
HETATM    1  C7  UNL     1      26.586   5.006  48.969  1.00  0.00     0.045 C 
HETATM    2  C8  UNL     1      26.783   3.905  49.693  1.00  0.00     0.032 C 
HETATM    3  C9  UNL     1      26.491   2.799  50.547  1.00  0.00     0.019 C 
HETATM    4  C10 UNL     1      26.364   1.720  51.343  1.00  0.00     0.084 C 
HETATM    5  N3  UNL     1      25.112   1.258  51.963  1.00  0.00    -0.386 N 
HETATM    6  C11 UNL     1      23.744   1.321  51.764  1.00  0.00     0.067 A 
HETATM    7  C12 UNL     1      22.716   2.214  51.573  1.00  0.00     0.052 A 
HETATM    8  C13 UNL     1      21.726   3.126  51.398  1.00  0.00     0.071 A 
HETATM    9  C14 UNL     1      22.042   4.439  51.666  1.00  0.00     0.150 A 
HETATM   10  C15 UNL     1      23.095   3.593  51.876  1.00  0.00     0.069 A 
HETATM   11 CL1  UNL     1      23.407   4.809  53.202  1.00  0.00    -0.169 Cl
HETATM   12  C16 UNL     1      24.155   2.705  52.083  1.00  0.00     0.051 A 
HETATM   13  O2  UNL     1      21.672   5.796  51.720  1.00  0.00    -0.359 OA
HETATM   14  C17 UNL     1      22.708   6.733  51.423  1.00  0.00     0.216 C 
HETATM   15  C18 UNL     1      23.399   6.553  50.169  1.00  0.00     0.007 A 
HETATM   16  C19 UNL     1      24.592   5.872  50.111  1.00  0.00     0.031 A 
HETATM   17  C20 UNL     1      25.290   5.712  48.897  1.00  0.00    -0.002 A 
HETATM   18  C21 UNL     1      24.763   6.240  47.773  1.00  0.00     0.064 A 
HETATM   19  S1  UNL     1      23.173   7.041  48.369  1.00  0.00    -0.103 SA
HETATM   20  H15 UNL     1      25.494   0.732  52.816  1.00  0.00     0.159 HD
ENDROOT
BRANCH   1  21
HETATM   21  N2  UNL     1      27.825   5.420  48.357  1.00  0.00    -0.323 N 
HETATM   22  C6  UNL     1      28.389   6.762  48.370  1.00  0.00     0.242 C 
HETATM   23  O1  UNL     1      27.897   7.794  48.859  1.00  0.00    -0.269 OA
HETATM   24  H11 UNL     1      28.356   4.666  47.867  1.00  0.00     0.169 HD
BRANCH  22  25
HETATM   25  C5  UNL     1      29.737   6.953  47.751  1.00  0.00     0.054 C 
HETATM   26  C4  UNL     1      30.201   5.748  47.960  1.00  0.00     0.051 C 
BRANCH  26  27
HETATM   27  C3  UNL     1      31.536   5.995  47.296  1.00  0.00     0.280 C 
BRANCH  27  28
HETATM   28  N1  UNL     1      32.483   4.913  47.484  1.00  0.00     0.080 N 
HETATM   29  C1  UNL     1      33.845   5.264  47.176  1.00  0.00     0.309 C 
HETATM   30  C2  UNL     1      32.082   3.713  46.789  1.00  0.00     0.309 C 
ENDBRANCH  27  28
ENDBRANCH  26  27
ENDBRANCH  22  25
ENDBRANCH   1  21
TORSDOF 5
ENDMDL
MODEL 7
REMARK VINA RESULT:      -7.2      4.290      8.774
REMARK  5 active torsions:
REMARK  status: ('A' for Active; 'I' for Inactive)
REMARK    1  A    between atoms: N1_2  and  C3_4 
REMARK    2  A    between atoms: C3_4  and  C4_5 
REMARK    3  A    between atoms: C5_6  and  C6_7 
REMARK       I    between atoms: C6_7  and  N2_9 
REMARK    4  A    between atoms: N2_9  and  C7_10 
REMARK    5  A    between atoms: C15_19  and  C16_21 
ROOT
HETATM    1  C7  UNL     1      24.437   4.307  49.776  1.00  0.00     0.045 C 
HETATM    2  C8  UNL     1      24.874   3.631  50.837  1.00  0.00     0.032 C 
HETATM    3  C9  UNL     1      24.887   2.677  51.899  1.00  0.00     0.019 C 
HETATM    4  C10 UNL     1      25.035   1.836  52.941  1.00  0.00     0.084 C 
HETATM    5  N3  UNL     1      24.070   0.803  53.350  1.00  0.00    -0.386 N 
HETATM    6  C11 UNL     1      23.060   0.024  52.813  1.00  0.00     0.067 A 
HETATM    7  C12 UNL     1      21.885   0.109  52.104  1.00  0.00     0.052 A 
HETATM    8  C13 UNL     1      20.724   0.233  51.411  1.00  0.00     0.071 A 
HETATM    9  C14 UNL     1      20.195   1.501  51.317  1.00  0.00     0.150 A 
HETATM   10  C15 UNL     1      21.358   1.470  52.036  1.00  0.00     0.069 A 
HETATM   11 CL1  UNL     1      20.470   2.785  52.940  1.00  0.00    -0.169 Cl
HETATM   12  C16 UNL     1      22.548   1.410  52.766  1.00  0.00     0.051 A 
HETATM   13  O2  UNL     1      19.196   2.373  50.845  1.00  0.00    -0.359 OA
HETATM   14  C17 UNL     1      19.630   3.697  50.528  1.00  0.00     0.216 C 
HETATM   15  C18 UNL     1      20.733   3.810  49.606  1.00  0.00     0.007 A 
HETATM   16  C19 UNL     1      22.022   3.962  50.060  1.00  0.00     0.031 A 
HETATM   17  C20 UNL     1      23.106   4.100  49.169  1.00  0.00    -0.002 A 
HETATM   18  C21 UNL     1      22.860   4.076  47.843  1.00  0.00     0.064 A 
HETATM   19  S1  UNL     1      20.998   3.851  47.747  1.00  0.00    -0.103 SA
HETATM   20  H15 UNL     1      24.306   0.711  54.391  1.00  0.00     0.159 HD
ENDROOT
BRANCH   1  21
HETATM   21  N2  UNL     1      25.413   5.295  49.386  1.00  0.00    -0.323 N 
HETATM   22  C6  UNL     1      26.790   5.041  48.989  1.00  0.00     0.242 C 
HETATM   23  O1  UNL     1      27.389   3.951  48.958  1.00  0.00    -0.269 OA
HETATM   24  H11 UNL     1      25.074   6.283  49.391  1.00  0.00     0.169 HD
BRANCH  22  25
HETATM   25  C5  UNL     1      27.607   6.208  48.532  1.00  0.00     0.054 C 
HETATM   26  C4  UNL     1      28.690   5.549  48.207  1.00  0.00     0.051 C 
BRANCH  26  27
HETATM   27  C3  UNL     1      29.455   6.764  47.735  1.00  0.00     0.280 C 
BRANCH  27  28
HETATM   28  N1  UNL     1      30.351   7.306  48.737  1.00  0.00     0.080 N 
HETATM   29  C1  UNL     1      30.803   8.645  48.457  1.00  0.00     0.309 C 
HETATM   30  C2  UNL     1      31.462   6.425  49.008  1.00  0.00     0.309 C 
ENDBRANCH  27  28
ENDBRANCH  26  27
ENDBRANCH  22  25
ENDBRANCH   1  21
TORSDOF 5
ENDMDL
MODEL 8
REMARK VINA RESULT:      -7.2      4.943      6.993
REMARK  5 active torsions:
REMARK  status: ('A' for Active; 'I' for Inactive)
REMARK    1  A    between atoms: N1_2  and  C3_4 
REMARK    2  A    between atoms: C3_4  and  C4_5 
REMARK    3  A    between atoms: C5_6  and  C6_7 
REMARK       I    between atoms: C6_7  and  N2_9 
REMARK    4  A    between atoms: N2_9  and  C7_10 
REMARK    5  A    between atoms: C15_19  and  C16_21 
ROOT
HETATM    1  C7  UNL     1      24.471   4.322  50.065  1.00  0.00     0.045 C 
HETATM    2  C8  UNL     1      25.709   4.314  49.573  1.00  0.00     0.032 C 
HETATM    3  C9  UNL     1      26.924   4.807  49.007  1.00  0.00     0.019 C 
HETATM    4  C10 UNL     1      28.119   5.126  48.473  1.00  0.00     0.084 C 
HETATM    5  N3  UNL     1      28.551   6.481  48.096  1.00  0.00    -0.386 N 
HETATM    6  C11 UNL     1      28.295   7.804  48.416  1.00  0.00     0.067 A 
HETATM    7  C12 UNL     1      27.272   8.717  48.518  1.00  0.00     0.052 A 
HETATM    8  C13 UNL     1      26.239   9.592  48.597  1.00  0.00     0.071 A 
HETATM    9  C14 UNL     1      25.049   9.195  48.027  1.00  0.00     0.150 A 
HETATM   10  C15 UNL     1      26.034   8.256  47.894  1.00  0.00     0.069 A 
HETATM   11 CL1  UNL     1      25.149   8.003  46.317  1.00  0.00    -0.169 Cl
HETATM   12  C16 UNL     1      27.058   7.314  47.772  1.00  0.00     0.051 A 
HETATM   13  O2  UNL     1      23.697   9.448  47.726  1.00  0.00    -0.359 OA
HETATM   14  C17 UNL     1      22.842   8.303  47.712  1.00  0.00     0.216 C 
HETATM   15  C18 UNL     1      22.846   7.482  48.897  1.00  0.00     0.007 A 
HETATM   16  C19 UNL     1      23.632   6.356  48.976  1.00  0.00     0.031 A 
HETATM   17  C20 UNL     1      23.623   5.530  50.118  1.00  0.00    -0.002 A 
HETATM   18  C21 UNL     1      22.826   5.866  51.153  1.00  0.00     0.064 A 
HETATM   19  S1  UNL     1      21.986   7.439  50.567  1.00  0.00    -0.103 SA
HETATM   20  H15 UNL     1      29.276   6.256  47.339  1.00  0.00     0.159 HD
ENDROOT
BRANCH   1  21
HETATM   21  N2  UNL     1      24.085   2.985  50.445  1.00  0.00    -0.323 N 
HETATM   22  C6  UNL     1      24.100   2.430  51.791  1.00  0.00     0.242 C 
HETATM   23  O1  UNL     1      24.488   2.975  52.839  1.00  0.00    -0.269 OA
HETATM   24  H11 UNL     1      23.759   2.374  49.663  1.00  0.00     0.169 HD
BRANCH  22  25
HETATM   25  C5  UNL     1      23.568   1.044  51.976  1.00  0.00     0.054 C 
HETATM   26  C4  UNL     1      22.365   1.369  52.376  1.00  0.00     0.051 C 
BRANCH  26  27
HETATM   27  C3  UNL     1      21.877  -0.055  52.518  1.00  0.00     0.280 C 
BRANCH  27  28
HETATM   28  N1  UNL     1      21.069  -0.271  53.702  1.00  0.00     0.080 N 
HETATM   29  C1  UNL     1      21.582  -1.289  54.584  1.00  0.00     0.309 C 
HETATM   30  C2  UNL     1      19.683  -0.509  53.380  1.00  0.00     0.309 C 
ENDBRANCH  27  28
ENDBRANCH  26  27
ENDBRANCH  22  25
ENDBRANCH   1  21
TORSDOF 5
ENDMDL
MODEL 9
REMARK VINA RESULT:      -7.1      4.135      8.068
REMARK  5 active torsions:
REMARK  status: ('A' for Active; 'I' for Inactive)
REMARK    1  A    between atoms: N1_2  and  C3_4 
REMARK    2  A    between atoms: C3_4  and  C4_5 
REMARK    3  A    between atoms: C5_6  and  C6_7 
REMARK       I    between atoms: C6_7  and  N2_9 
REMARK    4  A    between atoms: N2_9  and  C7_10 
REMARK    5  A    between atoms: C15_19  and  C16_21 
ROOT
HETATM    1  C7  UNL     1      23.930   2.709  51.047  1.00  0.00     0.045 C 
HETATM    2  C8  UNL     1      24.200   3.971  51.372  1.00  0.00     0.032 C 
HETATM    3  C9  UNL     1      24.088   5.395  51.406  1.00  0.00     0.019 C 
HETATM    4  C10 UNL     1      24.104   6.736  51.531  1.00  0.00     0.084 C 
HETATM    5  N3  UNL     1      23.162   7.665  50.888  1.00  0.00    -0.386 N 
HETATM    6  C11 UNL     1      21.874   7.688  50.383  1.00  0.00     0.067 A 
HETATM    7  C12 UNL     1      21.047   7.047  49.490  1.00  0.00     0.052 A 
HETATM    8  C13 UNL     1      20.264   6.396  48.593  1.00  0.00     0.071 A 
HETATM    9  C14 UNL     1      20.904   5.542  47.722  1.00  0.00     0.150 A 
HETATM   10  C15 UNL     1      21.769   6.158  48.583  1.00  0.00     0.069 A 
HETATM   11 CL1  UNL     1      22.827   6.062  47.097  1.00  0.00    -0.169 Cl
HETATM   12  C16 UNL     1      22.632   6.801  49.475  1.00  0.00     0.051 A 
HETATM   13  O2  UNL     1      20.851   4.617  46.662  1.00  0.00    -0.359 OA
HETATM   14  C17 UNL     1      21.825   3.573  46.703  1.00  0.00     0.216 C 
HETATM   15  C18 UNL     1      21.884   2.795  47.916  1.00  0.00     0.007 A 
HETATM   16  C19 UNL     1      22.794   3.092  48.904  1.00  0.00     0.031 A 
HETATM   17  C20 UNL     1      22.880   2.322  50.082  1.00  0.00    -0.002 A 
HETATM   18  C21 UNL     1      22.042   1.276  50.233  1.00  0.00     0.064 A 
HETATM   19  S1  UNL     1      21.026   1.296  48.655  1.00  0.00    -0.103 SA
HETATM   20  H15 UNL     1      23.758   8.555  50.845  1.00  0.00     0.159 HD
ENDROOT
BRANCH   1  21
HETATM   21  N2  UNL     1      24.855   1.822  51.708  1.00  0.00    -0.323 N 
HETATM   22  C6  UNL     1      24.543   0.890  52.782  1.00  0.00     0.242 C 
HETATM   23  O1  UNL     1      23.452   0.720  53.355  1.00  0.00    -0.269 OA
HETATM   24  H11 UNL     1      25.840   1.864  51.362  1.00  0.00     0.169 HD
BRANCH  22  25
HETATM   25  C5  UNL     1      25.639  -0.007  53.263  1.00  0.00     0.054 C 
HETATM   26  C4  UNL     1      26.450   0.923  53.699  1.00  0.00     0.051 C 
BRANCH  26  27
HETATM   27  C3  UNL     1      27.510  -0.036  54.190  1.00  0.00     0.280 C 
BRANCH  27  28
HETATM   28  N1  UNL     1      28.841   0.281  53.709  1.00  0.00     0.080 N 
HETATM   29  C1  UNL     1      29.768  -0.819  53.779  1.00  0.00     0.309 C 
HETATM   30  C2  UNL     1      29.381   1.461  54.341  1.00  0.00     0.309 C 
ENDBRANCH  27  28
ENDBRANCH  26  27
ENDBRANCH  22  25
ENDBRANCH   1  21
TORSDOF 5
ENDMDL
