MODEL 1
REMARK VINA RESULT:      -8.3      0.000      0.000
REMARK  3 active torsions:
REMARK  status: ('A' for Active; 'I' for Inactive)
REMARK    1  A    between atoms: C7_7  and  N1_8 
REMARK    2  A    between atoms: N1_8  and  C8_9 
REMARK    3  A    between atoms: C11_14  and  O1_15 
ROOT
HETATM    1  C1  UNL     1      29.768   6.337  47.870  1.00  0.00     0.018 C 
HETATM    2  C2  UNL     1      28.629   6.091  48.159  1.00  0.00    -0.078 C 
HETATM    3  C3  UNL     1      27.249   5.789  48.504  1.00  0.00     0.019 A 
HETATM    4  C4  UNL     1      26.220   6.649  48.182  1.00  0.00     0.021 A 
HETATM    5  C5  UNL     1      24.945   6.288  48.545  1.00  0.00     0.004 A 
HETATM    6  C6  UNL     1      24.732   5.112  49.201  1.00  0.00     0.029 A 
HETATM    7  C7  UNL     1      25.715   4.216  49.549  1.00  0.00     0.035 A 
HETATM    8  C18 UNL     1      26.977   4.613  49.168  1.00  0.00     0.050 A 
ENDROOT
BRANCH   7   9
HETATM    9  N1  UNL     1      25.529   2.988  50.233  1.00  0.00    -0.339 N 
HETATM   10  H5  UNL     1      26.306   2.284  50.214  1.00  0.00     0.167 HD
BRANCH   9  11
HETATM   11  C8  UNL     1      24.349   2.644  50.945  1.00  0.00     0.154 A 
HETATM   12  N2  UNL     1      23.243   3.262  50.845  1.00  0.00    -0.251 NA
HETATM   13  C9  UNL     1      22.229   2.671  51.698  1.00  0.00     0.281 A 
HETATM   14  N3  UNL     1      22.886   1.566  52.361  1.00  0.00    -0.331 N 
HETATM   15  C10 UNL     1      22.412   0.630  53.298  1.00  0.00     0.128 A 
HETATM   16  C17 UNL     1      24.227   1.545  51.887  1.00  0.00     0.114 A 
HETATM   17  C11 UNL     1      23.270  -0.276  53.725  1.00  0.00     0.096 A 
HETATM   18  C13 UNL     1      24.688  -0.411  53.315  1.00  0.00     0.238 A 
HETATM   19  O2  UNL     1      25.541  -0.403  54.415  1.00  0.00    -0.370 OA
HETATM   20  C16 UNL     1      25.066   0.624  52.331  1.00  0.00     0.112 A 
HETATM   21  C14 UNL     1      26.767   0.194  54.177  1.00  0.00     0.196 C 
HETATM   22  C15 UNL     1      27.290  -0.098  52.783  1.00  0.00     0.201 C 
HETATM   23  O3  UNL     1      26.387   0.565  51.898  1.00  0.00    -0.348 OA
BRANCH  17  24
HETATM   24  O1  UNL     1      22.782  -1.187  54.648  1.00  0.00    -0.356 OA
HETATM   25  C12 UNL     1      21.475  -1.719  54.551  1.00  0.00     0.209 C 
ENDBRANCH  17  24
ENDBRANCH   9  11
ENDBRANCH   7   9
TORSDOF 3
ENDMDL
MODEL 2
REMARK VINA RESULT:      -8.1      2.002      3.163
REMARK  3 active torsions:
REMARK  status: ('A' for Active; 'I' for Inactive)
REMARK    1  A    between atoms: C7_7  and  N1_8 
REMARK    2  A    between atoms: N1_8  and  C8_9 
REMARK    3  A    between atoms: C11_14  and  O1_15 
ROOT
HETATM    1  C1  UNL     1      29.821   7.352  46.953  1.00  0.00     0.018 C 
HETATM    2  C2  UNL     1      28.872   6.995  47.596  1.00  0.00    -0.078 C 
HETATM    3  C3  UNL     1      27.720   6.562  48.368  1.00  0.00     0.019 A 
HETATM    4  C4  UNL     1      26.825   7.467  48.899  1.00  0.00     0.021 A 
HETATM    5  C5  UNL     1      25.763   6.973  49.617  1.00  0.00     0.004 A 
HETATM    6  C6  UNL     1      25.621   5.628  49.784  1.00  0.00     0.029 A 
HETATM    7  C7  UNL     1      26.478   4.678  49.281  1.00  0.00     0.035 A 
HETATM    8  C18 UNL     1      27.529   5.212  48.568  1.00  0.00     0.050 A 
ENDROOT
BRANCH   7   9
HETATM    9  N1  UNL     1      26.363   3.273  49.438  1.00  0.00    -0.339 N 
HETATM   10  H5  UNL     1      26.433   2.669  48.584  1.00  0.00     0.167 HD
BRANCH   9  11
HETATM   11  C8  UNL     1      26.155   2.627  50.685  1.00  0.00     0.154 A 
HETATM   12  N2  UNL     1      27.083   2.304  51.492  1.00  0.00    -0.251 NA
HETATM   13  C9  UNL     1      26.551   1.659  52.678  1.00  0.00     0.281 A 
HETATM   14  N3  UNL     1      25.118   1.628  52.484  1.00  0.00    -0.331 N 
HETATM   15  C10 UNL     1      24.082   1.128  53.293  1.00  0.00     0.128 A 
HETATM   16  C17 UNL     1      24.863   2.239  51.225  1.00  0.00     0.114 A 
HETATM   17  C11 UNL     1      22.852   1.250  52.832  1.00  0.00     0.096 A 
HETATM   18  C13 UNL     1      22.448   1.863  51.545  1.00  0.00     0.238 A 
HETATM   19  O2  UNL     1      21.677   0.991  50.783  1.00  0.00    -0.370 OA
HETATM   20  C16 UNL     1      23.620   2.349  50.788  1.00  0.00     0.112 A 
HETATM   21  C14 UNL     1      21.867   1.111  49.417  1.00  0.00     0.196 C 
HETATM   22  C15 UNL     1      22.073   2.552  48.988  1.00  0.00     0.201 C 
HETATM   23  O3  UNL     1      23.321   2.939  49.563  1.00  0.00    -0.348 OA
BRANCH  17  24
HETATM   24  O1  UNL     1      21.847   0.750  53.645  1.00  0.00    -0.356 OA
HETATM   25  C12 UNL     1      21.975  -0.491  54.311  1.00  0.00     0.209 C 
ENDBRANCH  17  24
ENDBRANCH   9  11
ENDBRANCH   7   9
TORSDOF 3
ENDMDL
MODEL 3
REMARK VINA RESULT:      -7.9      3.958      7.133
REMARK  3 active torsions:
REMARK  status: ('A' for Active; 'I' for Inactive)
REMARK    1  A    between atoms: C7_7  and  N1_8 
REMARK    2  A    between atoms: N1_8  and  C8_9 
REMARK    3  A    between atoms: C11_14  and  O1_15 
ROOT
HETATM    1  C1  UNL     1      18.688   2.270  49.164  1.00  0.00     0.018 C 
HETATM    2  C2  UNL     1      18.651   1.521  50.102  1.00  0.00    -0.078 C 
HETATM    3  C3  UNL     1      18.612   0.610  51.234  1.00  0.00     0.019 A 
HETATM    4  C4  UNL     1      17.722  -0.443  51.283  1.00  0.00     0.021 A 
HETATM    5  C5  UNL     1      17.751  -1.255  52.390  1.00  0.00     0.004 A 
HETATM    6  C6  UNL     1      18.641  -1.008  53.394  1.00  0.00     0.029 A 
HETATM    7  C7  UNL     1      19.550   0.024  53.402  1.00  0.00     0.035 A 
HETATM    8  C18 UNL     1      19.490   0.815  52.276  1.00  0.00     0.050 A 
ENDROOT
BRANCH   7   9
HETATM    9  N1  UNL     1      20.485   0.312  54.428  1.00  0.00    -0.339 N 
HETATM   10  H5  UNL     1      20.234   1.037  55.141  1.00  0.00     0.167 HD
BRANCH   9  11
HETATM   11  C8  UNL     1      21.751  -0.321  54.552  1.00  0.00     0.154 A 
HETATM   12  N2  UNL     1      21.982  -1.328  55.292  1.00  0.00    -0.251 NA
HETATM   13  C9  UNL     1      23.370  -1.742  55.202  1.00  0.00     0.281 A 
HETATM   14  N3  UNL     1      23.983  -0.819  54.272  1.00  0.00    -0.331 N 
HETATM   15  C10 UNL     1      25.301  -0.723  53.792  1.00  0.00     0.128 A 
HETATM   16  C17 UNL     1      22.962   0.081  53.858  1.00  0.00     0.114 A 
HETATM   17  C11 UNL     1      25.556   0.246  52.934  1.00  0.00     0.096 A 
HETATM   18  C13 UNL     1      24.591   1.246  52.420  1.00  0.00     0.238 A 
HETATM   19  O2  UNL     1      25.041   2.546  52.630  1.00  0.00    -0.370 OA
HETATM   20  C16 UNL     1      23.245   1.043  52.995  1.00  0.00     0.112 A 
HETATM   21  C14 UNL     1      24.035   3.461  52.887  1.00  0.00     0.196 C 
HETATM   22  C15 UNL     1      22.786   3.188  52.070  1.00  0.00     0.201 C 
HETATM   23  O3  UNL     1      22.280   1.947  52.562  1.00  0.00    -0.348 OA
BRANCH  17  24
HETATM   24  O1  UNL     1      26.860   0.322  52.474  1.00  0.00    -0.356 OA
HETATM   25  C12 UNL     1      27.950  -0.155  53.240  1.00  0.00     0.209 C 
ENDBRANCH  17  24
ENDBRANCH   9  11
ENDBRANCH   7   9
TORSDOF 3
ENDMDL
MODEL 4
REMARK VINA RESULT:      -7.9      3.119      5.661
REMARK  3 active torsions:
REMARK  status: ('A' for Active; 'I' for Inactive)
REMARK    1  A    between atoms: C7_7  and  N1_8 
REMARK    2  A    between atoms: N1_8  and  C8_9 
REMARK    3  A    between atoms: C11_14  and  O1_15 
ROOT
HETATM    1  C1  UNL     1      27.741  -2.752  52.686  1.00  0.00     0.018 C 
HETATM    2  C2  UNL     1      27.321  -1.643  52.873  1.00  0.00    -0.078 C 
HETATM    3  C3  UNL     1      26.819  -0.298  53.098  1.00  0.00     0.019 A 
HETATM    4  C4  UNL     1      26.882   0.298  54.341  1.00  0.00     0.021 A 
HETATM    5  C5  UNL     1      26.384   1.572  54.467  1.00  0.00     0.004 A 
HETATM    6  C6  UNL     1      25.851   2.205  53.383  1.00  0.00     0.029 A 
HETATM    7  C7  UNL     1      25.759   1.664  52.122  1.00  0.00     0.035 A 
HETATM    8  C18 UNL     1      26.268   0.387  52.036  1.00  0.00     0.050 A 
ENDROOT
BRANCH   7   9
HETATM    9  N1  UNL     1      25.208   2.291  50.976  1.00  0.00    -0.339 N 
HETATM   10  H5  UNL     1      25.559   2.001  50.033  1.00  0.00     0.167 HD
BRANCH   9  11
HETATM   11  C8  UNL     1      24.206   3.296  51.024  1.00  0.00     0.154 A 
HETATM   12  N2  UNL     1      24.409   4.527  50.783  1.00  0.00    -0.251 NA
HETATM   13  C9  UNL     1      23.188   5.300  50.914  1.00  0.00     0.281 A 
HETATM   14  N3  UNL     1      22.169   4.342  51.281  1.00  0.00    -0.331 N 
HETATM   15  C10 UNL     1      20.796   4.501  51.542  1.00  0.00     0.128 A 
HETATM   16  C17 UNL     1      22.808   3.073  51.352  1.00  0.00     0.114 A 
HETATM   17  C11 UNL     1      20.118   3.414  51.859  1.00  0.00     0.096 A 
HETATM   18  C13 UNL     1      20.657   2.038  51.967  1.00  0.00     0.238 A 
HETATM   19  O2  UNL     1      20.378   1.475  53.208  1.00  0.00    -0.370 OA
HETATM   20  C16 UNL     1      22.104   2.000  51.671  1.00  0.00     0.112 A 
HETATM   21  C14 UNL     1      21.360   0.622  53.679  1.00  0.00     0.196 C 
HETATM   22  C15 UNL     1      21.987  -0.202  52.569  1.00  0.00     0.201 C 
HETATM   23  O3  UNL     1      22.685   0.738  51.753  1.00  0.00    -0.348 OA
BRANCH  17  24
HETATM   24  O1  UNL     1      18.768   3.594  52.112  1.00  0.00    -0.356 OA
HETATM   25  C12 UNL     1      17.805   3.565  51.076  1.00  0.00     0.209 C 
ENDBRANCH  17  24
ENDBRANCH   9  11
ENDBRANCH   7   9
TORSDOF 3
ENDMDL
MODEL 5
REMARK VINA RESULT:      -7.9      8.231     10.903
REMARK  3 active torsions:
REMARK  status: ('A' for Active; 'I' for Inactive)
REMARK    1  A    between atoms: C7_7  and  N1_8 
REMARK    2  A    between atoms: N1_8  and  C8_9 
REMARK    3  A    between atoms: C11_14  and  O1_15 
ROOT
HETATM    1  C1  UNL     1      33.159   5.117  42.746  1.00  0.00     0.018 C 
HETATM    2  C2  UNL     1      33.463   4.758  43.850  1.00  0.00    -0.078 C 
HETATM    3  C3  UNL     1      33.835   4.328  45.188  1.00  0.00     0.019 A 
HETATM    4  C4  UNL     1      34.981   3.596  45.420  1.00  0.00     0.021 A 
HETATM    5  C5  UNL     1      35.257   3.230  46.714  1.00  0.00     0.004 A 
HETATM    6  C6  UNL     1      34.411   3.593  47.720  1.00  0.00     0.029 A 
HETATM    7  C7  UNL     1      33.256   4.320  47.552  1.00  0.00     0.035 A 
HETATM    8  C18 UNL     1      33.013   4.667  46.242  1.00  0.00     0.050 A 
ENDROOT
BRANCH   7   9
HETATM    9  N1  UNL     1      32.353   4.710  48.573  1.00  0.00    -0.339 N 
HETATM   10  H5  UNL     1      32.501   4.334  49.540  1.00  0.00     0.167 HD
BRANCH   9  11
HETATM   11  C8  UNL     1      31.251   5.583  48.370  1.00  0.00     0.154 A 
HETATM   12  N2  UNL     1      30.045   5.202  48.242  1.00  0.00    -0.251 NA
HETATM   13  C9  UNL     1      29.153   6.329  48.047  1.00  0.00     0.281 A 
HETATM   14  N3  UNL     1      30.004   7.498  48.073  1.00  0.00    -0.331 N 
HETATM   15  C10 UNL     1      29.708   8.866  47.938  1.00  0.00     0.128 A 
HETATM   16  C17 UNL     1      31.333   7.031  48.277  1.00  0.00     0.114 A 
HETATM   17  C11 UNL     1      30.721   9.707  48.008  1.00  0.00     0.096 A 
HETATM   18  C13 UNL     1      32.146   9.357  48.217  1.00  0.00     0.238 A 
HETATM   19  O2  UNL     1      32.955   9.885  47.215  1.00  0.00    -0.370 OA
HETATM   20  C16 UNL     1      32.330   7.896  48.344  1.00  0.00     0.112 A 
HETATM   21  C14 UNL     1      34.040   9.092  46.884  1.00  0.00     0.196 C 
HETATM   22  C15 UNL     1      34.643   8.406  48.097  1.00  0.00     0.201 C 
HETATM   23  O3  UNL     1      33.646   7.487  48.542  1.00  0.00    -0.348 OA
BRANCH  17  24
HETATM   24  O1  UNL     1      30.407  11.049  47.872  1.00  0.00    -0.356 OA
HETATM   25  C12 UNL     1      30.664  11.983  48.903  1.00  0.00     0.209 C 
ENDBRANCH  17  24
ENDBRANCH   9  11
ENDBRANCH   7   9
TORSDOF 3
ENDMDL
MODEL 6
REMARK VINA RESULT:      -7.8      2.611      6.692
REMARK  3 active torsions:
REMARK  status: ('A' for Active; 'I' for Inactive)
REMARK    1  A    between atoms: C7_7  and  N1_8 
REMARK    2  A    between atoms: N1_8  and  C8_9 
REMARK    3  A    between atoms: C11_14  and  O1_15 
ROOT
HETATM    1  C1  UNL     1      28.466   0.281  54.583  1.00  0.00     0.018 C 
HETATM    2  C2  UNL     1      27.290   0.103  54.423  1.00  0.00    -0.078 C 
HETATM    3  C3  UNL     1      25.864  -0.108  54.233  1.00  0.00     0.019 A 
HETATM    4  C4  UNL     1      25.125  -0.877  55.108  1.00  0.00     0.021 A 
HETATM    5  C5  UNL     1      23.783  -1.025  54.855  1.00  0.00     0.004 A 
HETATM    6  C6  UNL     1      23.225  -0.421  53.768  1.00  0.00     0.029 A 
HETATM    7  C7  UNL     1      23.908   0.355  52.862  1.00  0.00     0.035 A 
HETATM    8  C18 UNL     1      25.249   0.480  53.149  1.00  0.00     0.050 A 
ENDROOT
BRANCH   7   9
HETATM    9  N1  UNL     1      23.360   0.995  51.721  1.00  0.00    -0.339 N 
HETATM   10  H5  UNL     1      23.563   0.588  50.777  1.00  0.00     0.167 HD
BRANCH   9  11
HETATM   11  C8  UNL     1      22.551   2.160  51.774  1.00  0.00     0.154 A 
HETATM   12  N2  UNL     1      21.316   2.166  52.073  1.00  0.00    -0.251 NA
HETATM   13  C9  UNL     1      20.770   3.510  52.039  1.00  0.00     0.281 A 
HETATM   14  N3  UNL     1      21.878   4.361  51.665  1.00  0.00    -0.331 N 
HETATM   15  C10 UNL     1      21.956   5.753  51.475  1.00  0.00     0.128 A 
HETATM   16  C17 UNL     1      23.006   3.512  51.496  1.00  0.00     0.114 A 
HETATM   17  C11 UNL     1      23.131   6.243  51.129  1.00  0.00     0.096 A 
HETATM   18  C13 UNL     1      24.381   5.476  50.921  1.00  0.00     0.238 A 
HETATM   19  O2  UNL     1      24.927   5.716  49.664  1.00  0.00    -0.370 OA
HETATM   20  C16 UNL     1      24.172   4.031  51.150  1.00  0.00     0.112 A 
HETATM   21  C14 UNL     1      25.567   4.624  49.104  1.00  0.00     0.196 C 
HETATM   22  C15 UNL     1      26.315   3.803  50.137  1.00  0.00     0.201 C 
HETATM   23  O3  UNL     1      25.304   3.240  50.972  1.00  0.00    -0.348 OA
BRANCH  17  24
HETATM   24  O1  UNL     1      23.186   7.615  50.947  1.00  0.00    -0.356 OA
HETATM   25  C12 UNL     1      22.480   8.257  49.902  1.00  0.00     0.209 C 
ENDBRANCH  17  24
ENDBRANCH   9  11
ENDBRANCH   7   9
TORSDOF 3
ENDMDL
MODEL 7
REMARK VINA RESULT:      -7.8      3.300      5.691
REMARK  3 active torsions:
REMARK  status: ('A' for Active; 'I' for Inactive)
REMARK    1  A    between atoms: C7_7  and  N1_8 
REMARK    2  A    between atoms: N1_8  and  C8_9 
REMARK    3  A    between atoms: C11_14  and  O1_15 
ROOT
HETATM    1  C1  UNL     1      26.764   4.004  49.352  1.00  0.00     0.018 C 
HETATM    2  C2  UNL     1      26.406   3.176  50.145  1.00  0.00    -0.078 C 
HETATM    3  C3  UNL     1      25.976   2.178  51.110  1.00  0.00     0.019 A 
HETATM    4  C4  UNL     1      26.771   1.099  51.436  1.00  0.00     0.021 A 
HETATM    5  C5  UNL     1      26.288   0.202  52.357  1.00  0.00     0.004 A 
HETATM    6  C6  UNL     1      25.059   0.395  52.916  1.00  0.00     0.029 A 
HETATM    7  C7  UNL     1      24.222   1.448  52.631  1.00  0.00     0.035 A 
HETATM    8  C18 UNL     1      24.741   2.325  51.704  1.00  0.00     0.050 A 
ENDROOT
BRANCH   7   9
HETATM    9  N1  UNL     1      22.939   1.677  53.190  1.00  0.00    -0.339 N 
HETATM   10  H5  UNL     1      22.661   2.664  53.411  1.00  0.00     0.167 HD
BRANCH   9  11
HETATM   11  C8  UNL     1      22.001   0.651  53.476  1.00  0.00     0.154 A 
HETATM   12  N2  UNL     1      22.206  -0.308  54.284  1.00  0.00    -0.251 NA
HETATM   13  C9  UNL     1      21.058  -1.192  54.359  1.00  0.00     0.281 A 
HETATM   14  N3  UNL     1      20.083  -0.626  53.453  1.00  0.00    -0.331 N 
HETATM   15  C10 UNL     1      18.784  -1.042  53.109  1.00  0.00     0.128 A 
HETATM   16  C17 UNL     1      20.674   0.540  52.892  1.00  0.00     0.114 A 
HETATM   17  C11 UNL     1      18.131  -0.300  52.235  1.00  0.00     0.096 A 
HETATM   18  C13 UNL     1      18.626   0.932  51.578  1.00  0.00     0.238 A 
HETATM   19  O2  UNL     1      18.548   0.840  50.191  1.00  0.00    -0.370 OA
HETATM   20  C16 UNL     1      19.997   1.266  52.019  1.00  0.00     0.112 A 
HETATM   21  C14 UNL     1      19.564   1.497  49.520  1.00  0.00     0.196 C 
HETATM   22  C15 UNL     1      19.954   2.798  50.197  1.00  0.00     0.201 C 
HETATM   23  O3  UNL     1      20.534   2.413  51.443  1.00  0.00    -0.348 OA
BRANCH  17  24
HETATM   24  O1  UNL     1      16.854  -0.728  51.910  1.00  0.00    -0.356 OA
HETATM   25  C12 UNL     1      15.726  -0.363  52.682  1.00  0.00     0.209 C 
ENDBRANCH  17  24
ENDBRANCH   9  11
ENDBRANCH   7   9
TORSDOF 3
ENDMDL
MODEL 8
REMARK VINA RESULT:      -7.7      3.841      7.863
REMARK  3 active torsions:
REMARK  status: ('A' for Active; 'I' for Inactive)
REMARK    1  A    between atoms: C7_7  and  N1_8 
REMARK    2  A    between atoms: N1_8  and  C8_9 
REMARK    3  A    between atoms: C11_14  and  O1_15 
ROOT
HETATM    1  C1  UNL     1      18.196  -0.729  52.746  1.00  0.00     0.018 C 
HETATM    2  C2  UNL     1      19.351  -0.695  53.075  1.00  0.00    -0.078 C 
HETATM    3  C3  UNL     1      20.750  -0.658  53.469  1.00  0.00     0.019 A 
HETATM    4  C4  UNL     1      21.226  -1.422  54.514  1.00  0.00     0.021 A 
HETATM    5  C5  UNL     1      22.561  -1.327  54.821  1.00  0.00     0.004 A 
HETATM    6  C6  UNL     1      23.369  -0.499  54.099  1.00  0.00     0.029 A 
HETATM    7  C7  UNL     1      22.953   0.285  53.048  1.00  0.00     0.035 A 
HETATM    8  C18 UNL     1      21.609   0.163  52.772  1.00  0.00     0.050 A 
ENDROOT
BRANCH   7   9
HETATM    9  N1  UNL     1      23.763   1.159  52.280  1.00  0.00    -0.339 N 
HETATM   10  H5  UNL     1      24.560   0.750  51.735  1.00  0.00     0.167 HD
BRANCH   9  11
HETATM   11  C8  UNL     1      23.567   2.563  52.201  1.00  0.00     0.154 A 
HETATM   12  N2  UNL     1      23.913   3.390  53.102  1.00  0.00    -0.251 NA
HETATM   13  C9  UNL     1      23.577   4.751  52.728  1.00  0.00     0.281 A 
HETATM   14  N3  UNL     1      22.955   4.645  51.427  1.00  0.00    -0.331 N 
HETATM   15  C10 UNL     1      22.426   5.626  50.568  1.00  0.00     0.128 A 
HETATM   16  C17 UNL     1      22.946   3.263  51.089  1.00  0.00     0.114 A 
HETATM   17  C11 UNL     1      21.917   5.207  49.425  1.00  0.00     0.096 A 
HETATM   18  C13 UNL     1      21.845   3.805  48.951  1.00  0.00     0.238 A 
HETATM   19  O2  UNL     1      20.543   3.443  48.620  1.00  0.00    -0.370 OA
HETATM   20  C16 UNL     1      22.430   2.872  49.937  1.00  0.00     0.112 A 
HETATM   21  C14 UNL     1      20.238   2.118  48.882  1.00  0.00     0.196 C 
HETATM   22  C15 UNL     1      21.405   1.191  48.597  1.00  0.00     0.201 C 
HETATM   23  O3  UNL     1      22.398   1.531  49.564  1.00  0.00    -0.348 OA
BRANCH  17  24
HETATM   24  O1  UNL     1      21.401   6.189  48.595  1.00  0.00    -0.356 OA
HETATM   25  C12 UNL     1      21.869   7.524  48.638  1.00  0.00     0.209 C 
ENDBRANCH  17  24
ENDBRANCH   9  11
ENDBRANCH   7   9
TORSDOF 3
ENDMDL
MODEL 9
REMARK VINA RESULT:      -7.6      3.548      6.431
REMARK  3 active torsions:
REMARK  status: ('A' for Active; 'I' for Inactive)
REMARK    1  A    between atoms: C7_7  and  N1_8 
REMARK    2  A    between atoms: N1_8  and  C8_9 
REMARK    3  A    between atoms: C11_14  and  O1_15 
ROOT
HETATM    1  C1  UNL     1      16.757   1.561  49.514  1.00  0.00     0.018 C 
HETATM    2  C2  UNL     1      17.719   1.673  50.223  1.00  0.00    -0.078 C 
HETATM    3  C3  UNL     1      18.880   1.807  51.087  1.00  0.00     0.019 A 
HETATM    4  C4  UNL     1      19.183   3.000  51.710  1.00  0.00     0.021 A 
HETATM    5  C5  UNL     1      20.299   3.040  52.510  1.00  0.00     0.004 A 
HETATM    6  C6  UNL     1      21.065   1.923  52.667  1.00  0.00     0.029 A 
HETATM    7  C7  UNL     1      20.816   0.708  52.073  1.00  0.00     0.035 A 
HETATM    8  C18 UNL     1      19.689   0.708  51.280  1.00  0.00     0.050 A 
ENDROOT
BRANCH   7   9
HETATM    9  N1  UNL     1      21.592  -0.470  52.211  1.00  0.00    -0.339 N 
HETATM   10  H5  UNL     1      21.569  -1.175  51.436  1.00  0.00     0.167 HD
BRANCH   9  11
HETATM   11  C8  UNL     1      22.402  -0.762  53.341  1.00  0.00     0.154 A 
HETATM   12  N2  UNL     1      22.039  -1.490  54.318  1.00  0.00    -0.251 NA
HETATM   13  C9  UNL     1      23.088  -1.597  55.314  1.00  0.00     0.281 A 
HETATM   14  N3  UNL     1      24.185  -0.807  54.799  1.00  0.00    -0.331 N 
HETATM   15  C10 UNL     1      25.463  -0.539  55.323  1.00  0.00     0.128 A 
HETATM   16  C17 UNL     1      23.755  -0.277  53.551  1.00  0.00     0.114 A 
HETATM   17  C11 UNL     1      26.254   0.233  54.602  1.00  0.00     0.096 A 
HETATM   18  C13 UNL     1      25.934   0.847  53.292  1.00  0.00     0.238 A 
HETATM   19  O2  UNL     1      26.119   2.226  53.315  1.00  0.00    -0.370 OA
HETATM   20  C16 UNL     1      24.570   0.493  52.849  1.00  0.00     0.112 A 
HETATM   21  C14 UNL     1      25.229   2.931  52.523  1.00  0.00     0.196 C 
HETATM   22  C15 UNL     1      24.909   2.206  51.229  1.00  0.00     0.201 C 
HETATM   23  O3  UNL     1      24.193   1.035  51.623  1.00  0.00    -0.348 OA
BRANCH  17  24
HETATM   24  O1  UNL     1      27.507   0.484  55.137  1.00  0.00    -0.356 OA
HETATM   25  C12 UNL     1      28.684  -0.046  54.559  1.00  0.00     0.209 C 
ENDBRANCH  17  24
ENDBRANCH   9  11
ENDBRANCH   7   9
TORSDOF 3
ENDMDL
