MODEL 1
REMARK VINA RESULT:      -9.1      0.000      0.000
REMARK  3 active torsions:
REMARK  status: ('A' for Active; 'I' for Inactive)
REMARK    1  A    between atoms: C4_5  and  N1_6 
REMARK    2  A    between atoms: N1_6  and  N2_7 
REMARK    3  A    between atoms: N2_7  and  C5_8 
ROOT
HETATM    1  C5  UNL     1      25.937   1.019  52.353  1.00  0.00     0.046 A 
HETATM    2  C6  UNL     1      26.685   2.082  52.690  1.00  0.00     0.033 A 
HETATM    3  C7  UNL     1      27.952   1.958  53.127  1.00  0.00     0.038 A 
HETATM    4  C8  UNL     1      28.473   0.737  53.225  1.00  0.00     0.087 A 
HETATM    5  C9  UNL     1      27.671  -0.648  52.846  1.00  0.00     0.114 A 
HETATM    6  C10 UNL     1      26.326  -0.258  52.401  1.00  0.00     0.034 A 
HETATM    7  C11 UNL     1      27.494  -2.167  52.680  1.00  0.00     0.165 A 
HETATM    8  N3  UNL     1      28.470  -3.305  52.982  1.00  0.00    -0.282 NA
HETATM    9  C12 UNL     1      28.900  -2.435  53.185  1.00  0.00     0.054 A 
HETATM   10  S1  UNL     1      29.376  -1.412  53.413  1.00  0.00    -0.018 SA
HETATM   11  O1  UNL     1      30.030   0.108  53.733  1.00  0.00    -0.286 OA
HETATM   12  H10 UNL     1      27.798  -4.021  52.697  1.00  0.00     0.128 HD
ENDROOT
BRANCH   1  13
HETATM   13  N2  UNL     1      24.655   1.431  51.938  1.00  0.00    -0.301 N 
HETATM   14  H4  UNL     1      24.750   1.888  51.015  1.00  0.00     0.187 HD
BRANCH  13  15
HETATM   15  N1  UNL     1      23.567   1.181  52.762  1.00  0.00    -0.300 N 
HETATM   16  H3  UNL     1      23.343   1.913  53.493  1.00  0.00     0.187 HD
BRANCH  15  17
HETATM   17  C4  UNL     1      22.505   0.320  53.142  1.00  0.00     0.050 A 
HETATM   18  C3  UNL     1      22.689  -0.659  54.115  1.00  0.00     0.034 A 
HETATM   19  C2  UNL     1      21.653  -1.497  54.494  1.00  0.00     0.046 A 
HETATM   20  C1  UNL     1      20.460  -1.255  53.819  1.00  0.00     0.138 A 
HETATM   21  F1  UNL     1      19.407  -2.051  54.156  1.00  0.00    -0.204 F 
HETATM   22  C14 UNL     1      20.211  -0.306  52.851  1.00  0.00     0.074 A 
HETATM   23  C13 UNL     1      21.294   0.503  52.513  1.00  0.00     0.057 A 
HETATM   24 CL1  UNL     1      18.637  -0.156  52.120  1.00  0.00    -0.081 Cl
ENDBRANCH  15  17
ENDBRANCH  13  15
ENDBRANCH   1  13
TORSDOF 3
ENDMDL
MODEL 2
REMARK VINA RESULT:      -8.5      1.545      1.807
REMARK  3 active torsions:
REMARK  status: ('A' for Active; 'I' for Inactive)
REMARK    1  A    between atoms: C4_5  and  N1_6 
REMARK    2  A    between atoms: N1_6  and  N2_7 
REMARK    3  A    between atoms: N2_7  and  C5_8 
ROOT
HETATM    1  C5  UNL     1      26.555   1.563  53.104  1.00  0.00     0.046 A 
HETATM    2  C6  UNL     1      27.551   2.389  53.461  1.00  0.00     0.033 A 
HETATM    3  C7  UNL     1      28.801   1.948  53.696  1.00  0.00     0.038 A 
HETATM    4  C8  UNL     1      29.049   0.646  53.567  1.00  0.00     0.087 A 
HETATM    5  C9  UNL     1      27.926  -0.474  53.136  1.00  0.00     0.114 A 
HETATM    6  C10 UNL     1      26.657   0.241  52.937  1.00  0.00     0.034 A 
HETATM    7  C11 UNL     1      27.402  -1.884  52.810  1.00  0.00     0.165 A 
HETATM    8  N3  UNL     1      28.132  -3.228  52.827  1.00  0.00    -0.282 NA
HETATM    9  C12 UNL     1      28.762  -2.503  53.073  1.00  0.00     0.054 A 
HETATM   10  S1  UNL     1      29.473  -1.643  53.357  1.00  0.00    -0.018 SA
HETATM   11  O1  UNL     1      30.477  -0.353  53.768  1.00  0.00    -0.286 OA
HETATM   12  H10 UNL     1      27.292  -3.742  52.553  1.00  0.00     0.128 HD
ENDROOT
BRANCH   1  13
HETATM   13  N2  UNL     1      25.357   2.283  52.927  1.00  0.00    -0.301 N 
HETATM   14  H4  UNL     1      25.602   3.246  52.645  1.00  0.00     0.187 HD
BRANCH  13  15
HETATM   15  N1  UNL     1      24.147   1.640  53.144  1.00  0.00    -0.300 N 
HETATM   16  H3  UNL     1      23.962   1.286  54.125  1.00  0.00     0.187 HD
BRANCH  15  17
HETATM   17  C4  UNL     1      22.913   1.170  52.625  1.00  0.00     0.050 A 
HETATM   18  C3  UNL     1      21.949   0.610  53.461  1.00  0.00     0.034 A 
HETATM   19  C2  UNL     1      20.740   0.157  52.959  1.00  0.00     0.046 A 
HETATM   20  C1  UNL     1      20.607   0.319  51.584  1.00  0.00     0.138 A 
HETATM   21  F1  UNL     1      19.434  -0.110  51.039  1.00  0.00    -0.204 F 
HETATM   22  C14 UNL     1      21.516   0.863  50.702  1.00  0.00     0.074 A 
HETATM   23  C13 UNL     1      22.713   1.298  51.269  1.00  0.00     0.057 A 
HETATM   24 CL1  UNL     1      21.162   0.983  49.001  1.00  0.00    -0.081 Cl
ENDBRANCH  15  17
ENDBRANCH  13  15
ENDBRANCH   1  13
TORSDOF 3
ENDMDL
MODEL 3
REMARK VINA RESULT:      -8.5      4.321      5.223
REMARK  3 active torsions:
REMARK  status: ('A' for Active; 'I' for Inactive)
REMARK    1  A    between atoms: C4_5  and  N1_6 
REMARK    2  A    between atoms: N1_6  and  N2_7 
REMARK    3  A    between atoms: N2_7  and  C5_8 
ROOT
HETATM    1  C5  UNL     1      25.755   0.899  52.850  1.00  0.00     0.046 A 
HETATM    2  C6  UNL     1      26.486   1.955  53.240  1.00  0.00     0.033 A 
HETATM    3  C7  UNL     1      27.786   1.845  53.576  1.00  0.00     0.038 A 
HETATM    4  C8  UNL     1      28.356   0.643  53.515  1.00  0.00     0.087 A 
HETATM    5  C9  UNL     1      27.580  -0.731  53.054  1.00  0.00     0.114 A 
HETATM    6  C10 UNL     1      26.193  -0.359  52.743  1.00  0.00     0.034 A 
HETATM    7  C11 UNL     1      27.447  -2.233  52.749  1.00  0.00     0.165 A 
HETATM    8  N3  UNL     1      28.482  -3.352  52.868  1.00  0.00    -0.282 NA
HETATM    9  C12 UNL     1      28.894  -2.489  53.128  1.00  0.00     0.054 A 
HETATM   10  S1  UNL     1      29.347  -1.472  53.425  1.00  0.00    -0.018 SA
HETATM   11  O1  UNL     1      29.967   0.036  53.851  1.00  0.00    -0.286 OA
HETATM   12  H10 UNL     1      27.818  -4.065  52.559  1.00  0.00     0.128 HD
ENDROOT
BRANCH   1  13
HETATM   13  N2  UNL     1      24.433   1.294  52.565  1.00  0.00    -0.301 N 
HETATM   14  H4  UNL     1      23.832   0.986  53.347  1.00  0.00     0.187 HD
BRANCH  13  15
HETATM   15  N1  UNL     1      24.173   1.972  51.382  1.00  0.00    -0.300 N 
HETATM   16  H3  UNL     1      23.497   1.514  50.707  1.00  0.00     0.187 HD
BRANCH  15  17
HETATM   17  C4  UNL     1      24.410   3.096  50.550  1.00  0.00     0.050 A 
HETATM   18  C3  UNL     1      23.378   3.968  50.209  1.00  0.00     0.034 A 
HETATM   19  C2  UNL     1      23.608   5.071  49.404  1.00  0.00     0.046 A 
HETATM   20  C1  UNL     1      24.931   5.201  48.993  1.00  0.00     0.138 A 
HETATM   21  F1  UNL     1      25.211   6.271  48.199  1.00  0.00    -0.204 F 
HETATM   22  C14 UNL     1      25.996   4.379  49.293  1.00  0.00     0.074 A 
HETATM   23  C13 UNL     1      25.699   3.287  50.105  1.00  0.00     0.057 A 
HETATM   24 CL1  UNL     1      27.593   4.713  48.681  1.00  0.00    -0.081 Cl
ENDBRANCH  15  17
ENDBRANCH  13  15
ENDBRANCH   1  13
TORSDOF 3
ENDMDL
MODEL 4
REMARK VINA RESULT:      -8.5      4.611      6.870
REMARK  3 active torsions:
REMARK  status: ('A' for Active; 'I' for Inactive)
REMARK    1  A    between atoms: C4_5  and  N1_6 
REMARK    2  A    between atoms: N1_6  and  N2_7 
REMARK    3  A    between atoms: N2_7  and  C5_8 
ROOT
HETATM    1  C5  UNL     1      23.697   1.421  51.648  1.00  0.00     0.046 A 
HETATM    2  C6  UNL     1      22.696   1.759  50.819  1.00  0.00     0.033 A 
HETATM    3  C7  UNL     1      21.437   1.314  50.994  1.00  0.00     0.038 A 
HETATM    4  C8  UNL     1      21.186   0.512  52.027  1.00  0.00     0.087 A 
HETATM    5  C9  UNL     1      22.315   0.021  53.117  1.00  0.00     0.114 A 
HETATM    6  C10 UNL     1      23.592   0.630  52.719  1.00  0.00     0.034 A 
HETATM    7  C11 UNL     1      22.840  -0.731  54.353  1.00  0.00     0.165 A 
HETATM    8  N3  UNL     1      22.102  -1.655  55.323  1.00  0.00    -0.282 NA
HETATM    9  C12 UNL     1      21.469  -1.317  54.638  1.00  0.00     0.054 A 
HETATM   10  S1  UNL     1      20.755  -0.910  53.832  1.00  0.00    -0.018 SA
HETATM   11  O1  UNL     1      19.748  -0.290  52.631  1.00  0.00    -0.286 OA
HETATM   12  H10 UNL     1      22.946  -1.833  55.870  1.00  0.00     0.128 HD
ENDROOT
BRANCH   1  13
HETATM   13  N2  UNL     1      24.903   2.018  51.232  1.00  0.00    -0.301 N 
HETATM   14  H4  UNL     1      24.751   2.426  50.294  1.00  0.00     0.187 HD
BRANCH  13  15
HETATM   15  N1  UNL     1      26.006   1.965  52.072  1.00  0.00    -0.300 N 
HETATM   16  H3  UNL     1      26.259   2.856  52.587  1.00  0.00     0.187 HD
BRANCH  15  17
HETATM   17  C4  UNL     1      27.077   1.215  52.623  1.00  0.00     0.050 A 
HETATM   18  C3  UNL     1      28.122   1.844  53.296  1.00  0.00     0.034 A 
HETATM   19  C2  UNL     1      29.166   1.115  53.842  1.00  0.00     0.046 A 
HETATM   20  C1  UNL     1      29.053  -0.259  53.647  1.00  0.00     0.138 A 
HETATM   21  F1  UNL     1      30.055  -1.023  54.165  1.00  0.00    -0.204 F 
HETATM   22  C14 UNL     1      28.051  -0.943  52.994  1.00  0.00     0.074 A 
HETATM   23  C13 UNL     1      27.032  -0.152  52.466  1.00  0.00     0.057 A 
HETATM   24 CL1  UNL     1      28.086  -2.679  52.855  1.00  0.00    -0.081 Cl
ENDBRANCH  15  17
ENDBRANCH  13  15
ENDBRANCH   1  13
TORSDOF 3
ENDMDL
MODEL 5
REMARK VINA RESULT:      -8.2      5.381      7.014
REMARK  3 active torsions:
REMARK  status: ('A' for Active; 'I' for Inactive)
REMARK    1  A    between atoms: C4_5  and  N1_6 
REMARK    2  A    between atoms: N1_6  and  N2_7 
REMARK    3  A    between atoms: N2_7  and  C5_8 
ROOT
HETATM    1  C5  UNL     1      25.010   1.941  51.907  1.00  0.00     0.046 A 
HETATM    2  C6  UNL     1      24.175   1.039  52.448  1.00  0.00     0.033 A 
HETATM    3  C7  UNL     1      24.561   0.197  53.425  1.00  0.00     0.038 A 
HETATM    4  C8  UNL     1      25.815   0.269  53.864  1.00  0.00     0.087 A 
HETATM    5  C9  UNL     1      26.941   1.324  53.294  1.00  0.00     0.114 A 
HETATM    6  C10 UNL     1      26.289   2.124  52.247  1.00  0.00     0.034 A 
HETATM    7  C11 UNL     1      28.326   1.987  53.206  1.00  0.00     0.165 A 
HETATM    8  N3  UNL     1      29.610   1.678  53.977  1.00  0.00    -0.282 NA
HETATM    9  C12 UNL     1      28.885   1.075  54.282  1.00  0.00     0.054 A 
HETATM   10  S1  UNL     1      28.025   0.387  54.619  1.00  0.00    -0.018 SA
HETATM   11  O1  UNL     1      26.737  -0.598  55.079  1.00  0.00    -0.286 OA
HETATM   12  H10 UNL     1      30.137   2.402  53.484  1.00  0.00     0.128 HD
ENDROOT
BRANCH   1  13
HETATM   13  N2  UNL     1      24.353   2.684  50.908  1.00  0.00    -0.301 N 
HETATM   14  H4  UNL     1      23.342   2.685  51.123  1.00  0.00     0.187 HD
BRANCH  13  15
HETATM   15  N1  UNL     1      25.102   3.245  49.883  1.00  0.00    -0.300 N 
HETATM   16  H3  UNL     1      25.409   2.596  49.104  1.00  0.00     0.187 HD
BRANCH  15  17
HETATM   17  C4  UNL     1      25.729   4.388  49.324  1.00  0.00     0.050 A 
HETATM   18  C3  UNL     1      25.006   5.551  49.069  1.00  0.00     0.034 A 
HETATM   19  C2  UNL     1      25.617   6.672  48.531  1.00  0.00     0.046 A 
HETATM   20  C1  UNL     1      26.977   6.507  48.285  1.00  0.00     0.138 A 
HETATM   21  F1  UNL     1      27.626   7.581  47.756  1.00  0.00    -0.204 F 
HETATM   22  C14 UNL     1      27.750   5.389  48.513  1.00  0.00     0.074 A 
HETATM   23  C13 UNL     1      27.076   4.295  49.054  1.00  0.00     0.057 A 
HETATM   24 CL1  UNL     1      29.451   5.377  48.140  1.00  0.00    -0.081 Cl
ENDBRANCH  15  17
ENDBRANCH  13  15
ENDBRANCH   1  13
TORSDOF 3
ENDMDL
MODEL 6
REMARK VINA RESULT:      -8.2      5.181      6.816
REMARK  3 active torsions:
REMARK  status: ('A' for Active; 'I' for Inactive)
REMARK    1  A    between atoms: C4_5  and  N1_6 
REMARK    2  A    between atoms: N1_6  and  N2_7 
REMARK    3  A    between atoms: N2_7  and  C5_8 
ROOT
HETATM    1  C5  UNL     1      25.187   2.471  52.525  1.00  0.00     0.046 A 
HETATM    2  C6  UNL     1      24.269   1.497  52.620  1.00  0.00     0.033 A 
HETATM    3  C7  UNL     1      24.591   0.237  52.969  1.00  0.00     0.038 A 
HETATM    4  C8  UNL     1      25.867  -0.042  53.227  1.00  0.00     0.087 A 
HETATM    5  C9  UNL     1      27.091   1.053  53.150  1.00  0.00     0.114 A 
HETATM    6  C10 UNL     1      26.496   2.337  52.753  1.00  0.00     0.034 A 
HETATM    7  C11 UNL     1      28.547   1.541  53.250  1.00  0.00     0.165 A 
HETATM    8  N3  UNL     1      29.819   0.764  53.590  1.00  0.00    -0.282 NA
HETATM    9  C12 UNL     1      29.037   0.155  53.626  1.00  0.00     0.054 A 
HETATM   10  S1  UNL     1      28.112  -0.530  53.661  1.00  0.00    -0.018 SA
HETATM   11  O1  UNL     1      26.731  -1.494  53.699  1.00  0.00    -0.286 OA
HETATM   12  H10 UNL     1      30.411   1.590  53.480  1.00  0.00     0.128 HD
ENDROOT
BRANCH   1  13
HETATM   13  N2  UNL     1      24.580   3.683  52.139  1.00  0.00    -0.301 N 
HETATM   14  H4  UNL     1      23.982   4.003  52.918  1.00  0.00     0.187 HD
BRANCH  13  15
HETATM   15  N1  UNL     1      24.859   4.206  50.884  1.00  0.00    -0.300 N 
HETATM   16  H3  UNL     1      24.094   4.132  50.155  1.00  0.00     0.187 HD
BRANCH  15  17
HETATM   17  C4  UNL     1      25.776   4.849  50.013  1.00  0.00     0.050 A 
HETATM   18  C3  UNL     1      26.842   4.150  49.450  1.00  0.00     0.034 A 
HETATM   19  C2  UNL     1      27.734   4.773  48.593  1.00  0.00     0.046 A 
HETATM   20  C1  UNL     1      27.455   6.118  48.372  1.00  0.00     0.138 A 
HETATM   21  F1  UNL     1      28.304   6.778  47.535  1.00  0.00    -0.204 F 
HETATM   22  C14 UNL     1      26.422   6.867  48.894  1.00  0.00     0.074 A 
HETATM   23  C13 UNL     1      25.560   6.183  49.749  1.00  0.00     0.057 A 
HETATM   24 CL1  UNL     1      26.236   8.551  48.492  1.00  0.00    -0.081 Cl
ENDBRANCH  15  17
ENDBRANCH  13  15
ENDBRANCH   1  13
TORSDOF 3
ENDMDL
MODEL 7
REMARK VINA RESULT:      -8.2      3.429      4.352
REMARK  3 active torsions:
REMARK  status: ('A' for Active; 'I' for Inactive)
REMARK    1  A    between atoms: C4_5  and  N1_6 
REMARK    2  A    between atoms: N1_6  and  N2_7 
REMARK    3  A    between atoms: N2_7  and  C5_8 
ROOT
HETATM    1  C5  UNL     1      25.712   1.670  53.527  1.00  0.00     0.046 A 
HETATM    2  C6  UNL     1      24.860   0.642  53.387  1.00  0.00     0.033 A 
HETATM    3  C7  UNL     1      25.283  -0.631  53.277  1.00  0.00     0.038 A 
HETATM    4  C8  UNL     1      26.592  -0.870  53.310  1.00  0.00     0.087 A 
HETATM    5  C9  UNL     1      27.744   0.292  53.478  1.00  0.00     0.114 A 
HETATM    6  C10 UNL     1      27.044   1.581  53.576  1.00  0.00     0.034 A 
HETATM    7  C11 UNL     1      29.175   0.844  53.594  1.00  0.00     0.165 A 
HETATM    8  N3  UNL     1      30.515   0.108  53.543  1.00  0.00    -0.282 NA
HETATM    9  C12 UNL     1      29.773  -0.544  53.453  1.00  0.00     0.054 A 
HETATM   10  S1  UNL     1      28.894  -1.280  53.351  1.00  0.00    -0.018 SA
HETATM   11  O1  UNL     1      27.575  -2.319  53.204  1.00  0.00    -0.286 OA
HETATM   12  H10 UNL     1      31.049   0.973  53.652  1.00  0.00     0.128 HD
ENDROOT
BRANCH   1  13
HETATM   13  N2  UNL     1      25.006   2.886  53.612  1.00  0.00    -0.301 N 
HETATM   14  H4  UNL     1      24.929   3.142  54.611  1.00  0.00     0.187 HD
BRANCH  13  15
HETATM   15  N1  UNL     1      24.564   3.493  52.445  1.00  0.00    -0.300 N 
HETATM   16  H3  UNL     1      24.574   4.552  52.422  1.00  0.00     0.187 HD
BRANCH  15  17
HETATM   17  C4  UNL     1      24.040   3.362  51.133  1.00  0.00     0.050 A 
HETATM   18  C3  UNL     1      24.428   4.231  50.115  1.00  0.00     0.034 A 
HETATM   19  C2  UNL     1      23.924   4.101  48.831  1.00  0.00     0.046 A 
HETATM   20  C1  UNL     1      23.025   3.050  48.684  1.00  0.00     0.138 A 
HETATM   21  F1  UNL     1      22.499   2.878  47.439  1.00  0.00    -0.204 F 
HETATM   22  C14 UNL     1      22.599   2.157  49.645  1.00  0.00     0.074 A 
HETATM   23  C13 UNL     1      23.142   2.341  50.915  1.00  0.00     0.057 A 
HETATM   24 CL1  UNL     1      21.461   0.896  49.263  1.00  0.00    -0.081 Cl
ENDBRANCH  15  17
ENDBRANCH  13  15
ENDBRANCH   1  13
TORSDOF 3
ENDMDL
MODEL 8
REMARK VINA RESULT:      -8.0      2.337      3.036
REMARK  3 active torsions:
REMARK  status: ('A' for Active; 'I' for Inactive)
REMARK    1  A    between atoms: C4_5  and  N1_6 
REMARK    2  A    between atoms: N1_6  and  N2_7 
REMARK    3  A    between atoms: N2_7  and  C5_8 
ROOT
HETATM    1  C5  UNL     1      24.406   0.999  52.943  1.00  0.00     0.046 A 
HETATM    2  C6  UNL     1      24.224  -0.117  53.665  1.00  0.00     0.033 A 
HETATM    3  C7  UNL     1      25.218  -0.683  54.377  1.00  0.00     0.038 A 
HETATM    4  C8  UNL     1      26.418  -0.108  54.357  1.00  0.00     0.087 A 
HETATM    5  C9  UNL     1      26.780   1.260  53.518  1.00  0.00     0.114 A 
HETATM    6  C10 UNL     1      25.550   1.681  52.831  1.00  0.00     0.034 A 
HETATM    7  C11 UNL     1      27.681   2.397  53.008  1.00  0.00     0.165 A 
HETATM    8  N3  UNL     1      29.168   2.654  53.257  1.00  0.00    -0.282 NA
HETATM    9  C12 UNL     1      28.884   1.839  53.747  1.00  0.00     0.054 A 
HETATM   10  S1  UNL     1      28.529   0.897  54.305  1.00  0.00    -0.018 SA
HETATM   11  O1  UNL     1      27.963  -0.476  55.102  1.00  0.00    -0.286 OA
HETATM   12  H10 UNL     1      29.171   3.491  52.672  1.00  0.00     0.128 HD
ENDROOT
BRANCH   1  13
HETATM   13  N2  UNL     1      23.210   1.368  52.297  1.00  0.00    -0.301 N 
HETATM   14  H4  UNL     1      23.286   2.364  52.029  1.00  0.00     0.187 HD
BRANCH  13  15
HETATM   15  N1  UNL     1      22.210   0.420  52.138  1.00  0.00    -0.300 N 
HETATM   16  H3  UNL     1      22.508  -0.538  51.797  1.00  0.00     0.187 HD
BRANCH  15  17
HETATM   17  C4  UNL     1      20.833   0.085  52.211  1.00  0.00     0.050 A 
HETATM   18  C3  UNL     1      20.317  -0.595  53.312  1.00  0.00     0.034 A 
HETATM   19  C2  UNL     1      18.971  -0.917  53.389  1.00  0.00     0.046 A 
HETATM   20  C1  UNL     1      18.230  -0.500  52.287  1.00  0.00     0.138 A 
HETATM   21  F1  UNL     1      16.899  -0.792  52.314  1.00  0.00    -0.204 F 
HETATM   22  C14 UNL     1      18.676   0.173  51.171  1.00  0.00     0.074 A 
HETATM   23  C13 UNL     1      20.038   0.466  51.153  1.00  0.00     0.057 A 
HETATM   24 CL1  UNL     1      17.584   0.614  49.887  1.00  0.00    -0.081 Cl
ENDBRANCH  15  17
ENDBRANCH  13  15
ENDBRANCH   1  13
TORSDOF 3
ENDMDL
MODEL 9
REMARK VINA RESULT:      -8.0      5.174      7.823
REMARK  3 active torsions:
REMARK  status: ('A' for Active; 'I' for Inactive)
REMARK    1  A    between atoms: C4_5  and  N1_6 
REMARK    2  A    between atoms: N1_6  and  N2_7 
REMARK    3  A    between atoms: N2_7  and  C5_8 
ROOT
HETATM    1  C5  UNL     1      23.022  -0.210  53.506  1.00  0.00     0.046 A 
HETATM    2  C6  UNL     1      23.312   0.640  52.508  1.00  0.00     0.033 A 
HETATM    3  C7  UNL     1      22.369   1.112  51.670  1.00  0.00     0.038 A 
HETATM    4  C8  UNL     1      21.110   0.717  51.845  1.00  0.00     0.087 A 
HETATM    5  C9  UNL     1      20.617  -0.317  53.025  1.00  0.00     0.114 A 
HETATM    6  C10 UNL     1      21.810  -0.689  53.798  1.00  0.00     0.034 A 
HETATM    7  C11 UNL     1      19.604  -1.158  53.821  1.00  0.00     0.165 A 
HETATM    8  N3  UNL     1      18.101  -1.341  53.608  1.00  0.00    -0.282 NA
HETATM    9  C12 UNL     1      18.460  -0.717  52.927  1.00  0.00     0.054 A 
HETATM   10  S1  UNL     1      18.904   0.005  52.146  1.00  0.00    -0.018 SA
HETATM   11  O1  UNL     1      19.597   1.054  51.025  1.00  0.00    -0.286 OA
HETATM   12  H10 UNL     1      18.018  -1.985  54.397  1.00  0.00     0.128 HD
ENDROOT
BRANCH   1  13
HETATM   13  N2  UNL     1      24.189  -0.546  54.220  1.00  0.00    -0.301 N 
HETATM   14  H4  UNL     1      23.932  -0.662  55.215  1.00  0.00     0.187 HD
BRANCH  13  15
HETATM   15  N1  UNL     1      25.391  -0.656  53.535  1.00  0.00    -0.300 N 
HETATM   16  H3  UNL     1      25.335  -0.916  52.510  1.00  0.00     0.187 HD
BRANCH  15  17
HETATM   17  C4  UNL     1      26.808  -0.592  53.553  1.00  0.00     0.050 A 
HETATM   18  C3  UNL     1      27.580  -1.671  53.127  1.00  0.00     0.034 A 
HETATM   19  C2  UNL     1      28.964  -1.609  53.136  1.00  0.00     0.046 A 
HETATM   20  C1  UNL     1      29.469  -0.397  53.599  1.00  0.00     0.138 A 
HETATM   21  F1  UNL     1      30.827  -0.284  53.627  1.00  0.00    -0.204 F 
HETATM   22  C14 UNL     1      28.765   0.705  54.033  1.00  0.00     0.074 A 
HETATM   23  C13 UNL     1      27.377   0.579  54.001  1.00  0.00     0.057 A 
HETATM   24 CL1  UNL     1      29.584   2.142  54.576  1.00  0.00    -0.081 Cl
ENDBRANCH  15  17
ENDBRANCH  13  15
ENDBRANCH   1  13
TORSDOF 3
ENDMDL
