MODEL 1
REMARK VINA RESULT:      -7.1      0.000      0.000
REMARK  7 active torsions:
REMARK  status: ('A' for Active; 'I' for Inactive)
REMARK    1  A    between atoms: O1_2  and  C2_3 
REMARK    2  A    between atoms: C5_6  and  O2_7 
REMARK    3  A    between atoms: C7_9  and  C8_10 
REMARK    4  A    between atoms: C11_13  and  C12_14 
REMARK    5  A    between atoms: C13_16  and  C14_17 
REMARK    6  A    between atoms: C18_23  and  N2_24 
REMARK    7  A    between atoms: N2_24  and  N3_25 
ROOT
HETATM    1  C8  UNL     1      22.824   3.098  51.098  1.00  0.00    -0.022 C 
HETATM    2  C9  UNL     1      23.250   2.352  52.248  1.00  0.00    -0.023 C 
HETATM    3  C10 UNL     1      24.385   2.981  53.049  1.00  0.00     0.051 C 
HETATM    4  C11 UNL     1      22.384   1.020  52.444  1.00  0.00     0.086 C 
HETATM    5  N1  UNL     1      21.210   1.279  51.523  1.00  0.00    -0.242 N 
HETATM    6  C15 UNL     1      20.216   2.136  52.194  1.00  0.00     0.116 C 
HETATM    7  C16 UNL     1      20.288   2.750  50.944  1.00  0.00     0.010 C 
HETATM    8  C17 UNL     1      21.596   3.087  50.188  1.00  0.00     0.116 C 
HETATM    9  C18 UNL     1      21.690   1.820  49.346  1.00  0.00     0.147 C 
HETATM   10  N4  UNL     1      21.986   0.957  50.297  1.00  0.00    -0.152 NA
ENDROOT
BRANCH   1  11
HETATM   11  C7  UNL     1      23.850   4.091  50.669  1.00  0.00     0.008 A 
HETATM   12  C5  UNL     1      23.665   5.440  50.882  1.00  0.00     0.079 A 
HETATM   13  C4  UNL     1      24.633   6.317  50.426  1.00  0.00     0.040 A 
HETATM   14  C3  UNL     1      25.790   5.904  49.760  1.00  0.00     0.039 A 
HETATM   15  C2  UNL     1      25.960   4.547  49.554  1.00  0.00     0.069 A 
HETATM   16  C19 UNL     1      24.988   3.688  50.012  1.00  0.00     0.051 A 
BRANCH  12  17
HETATM   17  O2  UNL     1      22.544   5.925  51.536  1.00  0.00    -0.355 OA
HETATM   18  C6  UNL     1      21.689   6.831  50.870  1.00  0.00     0.210 C 
ENDBRANCH  12  17
BRANCH  15  19
HETATM   19  O1  UNL     1      27.112   4.163  48.891  1.00  0.00    -0.356 OA
HETATM   20  C1  UNL     1      28.030   5.162  48.496  1.00  0.00     0.210 C 
ENDBRANCH  15  19
ENDBRANCH   1  11
BRANCH   4  21
HETATM   21  C12 UNL     1      22.877   0.120  53.319  1.00  0.00     0.062 C 
HETATM   22 CL1  UNL     1      24.538  -0.410  53.148  1.00  0.00    -0.082 Cl
HETATM   23  C13 UNL     1      21.908  -0.277  54.257  1.00  0.00     0.038 C 
BRANCH  23  24
HETATM   24  C14 UNL     1      22.437  -1.137  55.110  1.00  0.00     0.443 C 
HETATM   25  F1  UNL     1      23.213  -1.941  55.880  1.00  0.00    -0.452 F 
ENDBRANCH  23  24
ENDBRANCH   4  21
BRANCH   9  26
HETATM   26  N2  UNL     1      21.495   1.744  47.938  1.00  0.00    -0.309 N 
HETATM   27  H17 UNL     1      20.523   1.556  47.613  1.00  0.00     0.182 HD
BRANCH  26  28
HETATM   28  N3  UNL     1      22.728   1.953  47.289  1.00  0.00    -0.248 NA
HETATM   29  H18 UNL     1      23.150   2.875  47.565  1.00  0.00     0.143 HD
HETATM   30  H19 UNL     1      22.612   1.996  46.256  1.00  0.00     0.143 HD
ENDBRANCH  26  28
ENDBRANCH   9  26
TORSDOF 7
ENDMDL
MODEL 2
REMARK VINA RESULT:      -7.1      2.976      4.266
REMARK  7 active torsions:
REMARK  status: ('A' for Active; 'I' for Inactive)
REMARK    1  A    between atoms: O1_2  and  C2_3 
REMARK    2  A    between atoms: C5_6  and  O2_7 
REMARK    3  A    between atoms: C7_9  and  C8_10 
REMARK    4  A    between atoms: C11_13  and  C12_14 
REMARK    5  A    between atoms: C13_16  and  C14_17 
REMARK    6  A    between atoms: C18_23  and  N2_24 
REMARK    7  A    between atoms: N2_24  and  N3_25 
ROOT
HETATM    1  C8  UNL     1      23.338   3.320  50.094  1.00  0.00    -0.022 C 
HETATM    2  C9  UNL     1      22.957   2.069  50.683  1.00  0.00    -0.023 C 
HETATM    3  C10 UNL     1      21.976   1.235  49.865  1.00  0.00     0.051 C 
HETATM    4  C11 UNL     1      23.700   1.819  52.080  1.00  0.00     0.086 C 
HETATM    5  N1  UNL     1      24.797   2.863  52.033  1.00  0.00    -0.242 N 
HETATM    6  C15 UNL     1      25.933   2.372  51.233  1.00  0.00     0.116 C 
HETATM    7  C16 UNL     1      25.799   3.666  50.728  1.00  0.00     0.010 C 
HETATM    8  C17 UNL     1      24.462   4.331  50.320  1.00  0.00     0.116 C 
HETATM    9  C18 UNL     1      24.159   5.032  51.639  1.00  0.00     0.147 C 
HETATM   10  N4  UNL     1      23.874   3.977  52.376  1.00  0.00    -0.152 NA
ENDROOT
BRANCH   1  11
HETATM   11  C7  UNL     1      22.380   3.752  49.037  1.00  0.00     0.008 A 
HETATM   12  C5  UNL     1      21.213   4.410  49.361  1.00  0.00     0.079 A 
HETATM   13  C4  UNL     1      20.345   4.751  48.340  1.00  0.00     0.040 A 
HETATM   14  C3  UNL     1      20.590   4.462  46.995  1.00  0.00     0.039 A 
HETATM   15  C2  UNL     1      21.765   3.802  46.687  1.00  0.00     0.069 A 
HETATM   16  C19 UNL     1      22.619   3.469  47.713  1.00  0.00     0.051 A 
BRANCH  12  17
HETATM   17  O2  UNL     1      20.900   4.731  50.672  1.00  0.00    -0.355 OA
HETATM   18  C6  UNL     1      19.877   4.019  51.336  1.00  0.00     0.210 C 
ENDBRANCH  12  17
BRANCH  15  19
HETATM   19  O1  UNL     1      21.986   3.527  45.348  1.00  0.00    -0.356 OA
HETATM   20  C1  UNL     1      21.011   3.925  44.406  1.00  0.00     0.210 C 
ENDBRANCH  15  19
ENDBRANCH   1  11
BRANCH   4  21
HETATM   21  C12 UNL     1      23.209   0.819  52.838  1.00  0.00     0.062 C 
HETATM   22 CL1  UNL     1      24.215  -0.579  53.157  1.00  0.00    -0.082 Cl
HETATM   23  C13 UNL     1      21.889   1.077  53.247  1.00  0.00     0.038 C 
BRANCH  23  24
HETATM   24  C14 UNL     1      21.454   0.089  54.008  1.00  0.00     0.443 C 
HETATM   25  F1  UNL     1      21.192  -0.839  54.964  1.00  0.00    -0.452 F 
ENDBRANCH  23  24
ENDBRANCH   4  21
BRANCH   9  26
HETATM   26  N2  UNL     1      24.204   6.436  51.861  1.00  0.00    -0.309 N 
HETATM   27  H17 UNL     1      25.033   6.799  52.377  1.00  0.00     0.182 HD
BRANCH  26  28
HETATM   28  N3  UNL     1      23.056   7.031  51.299  1.00  0.00    -0.248 NA
HETATM   29  H18 UNL     1      22.201   6.447  51.479  1.00  0.00     0.143 HD
HETATM   30  H19 UNL     1      23.133   7.105  50.264  1.00  0.00     0.143 HD
ENDBRANCH  26  28
ENDBRANCH   9  26
TORSDOF 7
ENDMDL
MODEL 3
REMARK VINA RESULT:      -7.0      4.116      5.986
REMARK  7 active torsions:
REMARK  status: ('A' for Active; 'I' for Inactive)
REMARK    1  A    between atoms: O1_2  and  C2_3 
REMARK    2  A    between atoms: C5_6  and  O2_7 
REMARK    3  A    between atoms: C7_9  and  C8_10 
REMARK    4  A    between atoms: C11_13  and  C12_14 
REMARK    5  A    between atoms: C13_16  and  C14_17 
REMARK    6  A    between atoms: C18_23  and  N2_24 
REMARK    7  A    between atoms: N2_24  and  N3_25 
ROOT
HETATM    1  C8  UNL     1      22.384   2.694  51.450  1.00  0.00    -0.022 C 
HETATM    2  C9  UNL     1      21.886   2.351  50.149  1.00  0.00    -0.023 C 
HETATM    3  C10 UNL     1      21.904   0.862  49.816  1.00  0.00     0.051 C 
HETATM    4  C11 UNL     1      21.382   3.642  49.348  1.00  0.00     0.086 C 
HETATM    5  N1  UNL     1      21.301   4.675  50.452  1.00  0.00    -0.242 N 
HETATM    6  C15 UNL     1      20.038   4.528  51.197  1.00  0.00     0.116 C 
HETATM    7  C16 UNL     1      20.946   4.662  52.248  1.00  0.00     0.010 C 
HETATM    8  C17 UNL     1      22.300   3.921  52.358  1.00  0.00     0.116 C 
HETATM    9  C18 UNL     1      23.183   4.990  51.726  1.00  0.00     0.147 C 
HETATM   10  N4  UNL     1      22.771   4.892  50.478  1.00  0.00    -0.152 NA
ENDROOT
BRANCH   1  11
HETATM   11  C7  UNL     1      23.215   1.602  52.034  1.00  0.00     0.008 A 
HETATM   12  C5  UNL     1      22.681   0.703  52.930  1.00  0.00     0.079 A 
HETATM   13  C4  UNL     1      23.512  -0.263  53.467  1.00  0.00     0.040 A 
HETATM   14  C3  UNL     1      24.867  -0.375  53.147  1.00  0.00     0.039 A 
HETATM   15  C2  UNL     1      25.388   0.535  52.245  1.00  0.00     0.069 A 
HETATM   16  C19 UNL     1      24.549   1.491  51.720  1.00  0.00     0.051 A 
BRANCH  12  17
HETATM   17  O2  UNL     1      21.345   0.749  53.296  1.00  0.00    -0.355 OA
HETATM   18  C6  UNL     1      20.925   0.090  54.472  1.00  0.00     0.210 C 
ENDBRANCH  12  17
BRANCH  15  19
HETATM   19  O1  UNL     1      26.733   0.406  51.944  1.00  0.00    -0.356 OA
HETATM   20  C1  UNL     1      27.678   0.579  52.981  1.00  0.00     0.210 C 
ENDBRANCH  15  19
ENDBRANCH   1  11
BRANCH   4  21
HETATM   21  C12 UNL     1      21.159   3.467  48.030  1.00  0.00     0.062 C 
HETATM   22 CL1  UNL     1      19.603   2.857  47.503  1.00  0.00    -0.082 Cl
HETATM   23  C13 UNL     1      22.288   3.804  47.263  1.00  0.00     0.038 C 
BRANCH  23  24
HETATM   24  C14 UNL     1      22.021   3.645  45.979  1.00  0.00     0.443 C 
HETATM   25  F1  UNL     1      21.491   3.486  44.739  1.00  0.00    -0.452 F 
ENDBRANCH  23  24
ENDBRANCH   4  21
BRANCH   9  26
HETATM   26  N2  UNL     1      24.142   5.786  52.414  1.00  0.00    -0.309 N 
HETATM   27  H17 UNL     1      24.534   5.386  53.293  1.00  0.00     0.182 HD
BRANCH  26  28
HETATM   28  N3  UNL     1      24.342   6.986  51.703  1.00  0.00    -0.248 NA
HETATM   29  H18 UNL     1      25.365   7.160  51.535  1.00  0.00     0.143 HD
HETATM   30  H19 UNL     1      24.001   7.809  52.241  1.00  0.00     0.143 HD
ENDBRANCH  26  28
ENDBRANCH   9  26
TORSDOF 7
ENDMDL
MODEL 4
REMARK VINA RESULT:      -7.0      4.371      6.092
REMARK  7 active torsions:
REMARK  status: ('A' for Active; 'I' for Inactive)
REMARK    1  A    between atoms: O1_2  and  C2_3 
REMARK    2  A    between atoms: C5_6  and  O2_7 
REMARK    3  A    between atoms: C7_9  and  C8_10 
REMARK    4  A    between atoms: C11_13  and  C12_14 
REMARK    5  A    between atoms: C13_16  and  C14_17 
REMARK    6  A    between atoms: C18_23  and  N2_24 
REMARK    7  A    between atoms: N2_24  and  N3_25 
ROOT
HETATM    1  C8  UNL     1      23.206   3.604  50.879  1.00  0.00    -0.022 C 
HETATM    2  C9  UNL     1      22.587   3.199  49.650  1.00  0.00    -0.023 C 
HETATM    3  C10 UNL     1      22.882   1.768  49.211  1.00  0.00     0.051 C 
HETATM    4  C11 UNL     1      21.676   4.362  49.032  1.00  0.00     0.086 C 
HETATM    5  N1  UNL     1      21.553   5.310  50.207  1.00  0.00    -0.242 N 
HETATM    6  C15 UNL     1      20.499   4.846  51.127  1.00  0.00     0.116 C 
HETATM    7  C16 UNL     1      21.517   5.153  52.030  1.00  0.00     0.010 C 
HETATM    8  C17 UNL     1      23.002   4.746  51.874  1.00  0.00     0.116 C 
HETATM    9  C18 UNL     1      23.502   6.013  51.192  1.00  0.00     0.147 C 
HETATM   10  N4  UNL     1      22.919   5.863  50.019  1.00  0.00    -0.152 NA
ENDROOT
BRANCH   1  11
HETATM   11  C7  UNL     1      24.348   2.718  51.245  1.00  0.00     0.008 A 
HETATM   12  C5  UNL     1      25.627   2.994  50.814  1.00  0.00     0.079 A 
HETATM   13  C4  UNL     1      26.639   2.114  51.153  1.00  0.00     0.040 A 
HETATM   14  C3  UNL     1      26.430   0.959  51.911  1.00  0.00     0.039 A 
HETATM   15  C2  UNL     1      25.141   0.697  52.336  1.00  0.00     0.069 A 
HETATM   16  C19 UNL     1      24.145   1.581  51.990  1.00  0.00     0.051 A 
BRANCH  12  17
HETATM   17  O2  UNL     1      25.913   4.120  50.059  1.00  0.00    -0.355 OA
HETATM   18  C6  UNL     1      27.035   4.115  49.202  1.00  0.00     0.210 C 
ENDBRANCH  12  17
BRANCH  15  19
HETATM   19  O1  UNL     1      24.959  -0.453  53.084  1.00  0.00    -0.356 OA
HETATM   20  C1  UNL     1      25.462  -0.487  54.405  1.00  0.00     0.210 C 
ENDBRANCH  15  19
ENDBRANCH   1  11
BRANCH   4  21
HETATM   21  C12 UNL     1      21.280   4.186  47.756  1.00  0.00     0.062 C 
HETATM   22 CL1  UNL     1      19.722   3.448  47.443  1.00  0.00    -0.082 Cl
HETATM   23  C13 UNL     1      22.253   4.629  46.843  1.00  0.00     0.038 C 
BRANCH  23  24
HETATM   24  C14 UNL     1      21.817   4.464  45.608  1.00  0.00     0.443 C 
HETATM   25  F1  UNL     1      21.298   4.050  44.423  1.00  0.00    -0.452 F 
ENDBRANCH  23  24
ENDBRANCH   4  21
BRANCH   9  26
HETATM   26  N2  UNL     1      24.358   6.987  51.777  1.00  0.00    -0.309 N 
HETATM   27  H17 UNL     1      24.013   7.448  52.646  1.00  0.00     0.182 HD
BRANCH  26  28
HETATM   28  N3  UNL     1      25.529   7.101  51.001  1.00  0.00    -0.248 NA
HETATM   29  H18 UNL     1      25.305   7.092  49.974  1.00  0.00     0.143 HD
HETATM   30  H19 UNL     1      26.169   6.295  51.156  1.00  0.00     0.143 HD
ENDBRANCH  26  28
ENDBRANCH   9  26
TORSDOF 7
ENDMDL
MODEL 5
REMARK VINA RESULT:      -6.8      3.175      5.551
REMARK  7 active torsions:
REMARK  status: ('A' for Active; 'I' for Inactive)
REMARK    1  A    between atoms: O1_2  and  C2_3 
REMARK    2  A    between atoms: C5_6  and  O2_7 
REMARK    3  A    between atoms: C7_9  and  C8_10 
REMARK    4  A    between atoms: C11_13  and  C12_14 
REMARK    5  A    between atoms: C13_16  and  C14_17 
REMARK    6  A    between atoms: C18_23  and  N2_24 
REMARK    7  A    between atoms: N2_24  and  N3_25 
ROOT
HETATM    1  C8  UNL     1      22.357   3.310  50.258  1.00  0.00    -0.022 C 
HETATM    2  C9  UNL     1      22.872   2.069  50.762  1.00  0.00    -0.023 C 
HETATM    3  C10 UNL     1      21.956   0.862  50.583  1.00  0.00     0.051 C 
HETATM    4  C11 UNL     1      24.341   2.242  51.375  1.00  0.00     0.086 C 
HETATM    5  N1  UNL     1      24.739   3.601  50.837  1.00  0.00    -0.242 N 
HETATM    6  C15 UNL     1      25.229   3.476  49.453  1.00  0.00     0.116 C 
HETATM    7  C16 UNL     1      24.383   4.579  49.332  1.00  0.00     0.010 C 
HETATM    8  C17 UNL     1      22.952   4.674  49.913  1.00  0.00     0.116 C 
HETATM    9  C18 UNL     1      23.302   5.344  51.237  1.00  0.00     0.147 C 
HETATM   10  N4  UNL     1      23.909   4.335  51.828  1.00  0.00    -0.152 NA
ENDROOT
BRANCH   1  11
HETATM   11  C7  UNL     1      20.878   3.262  50.068  1.00  0.00     0.008 A 
HETATM   12  C5  UNL     1      20.329   3.005  48.830  1.00  0.00     0.079 A 
HETATM   13  C4  UNL     1      18.952   3.012  48.707  1.00  0.00     0.040 A 
HETATM   14  C3  UNL     1      18.087   3.268  49.775  1.00  0.00     0.039 A 
HETATM   15  C2  UNL     1      18.654   3.523  51.010  1.00  0.00     0.069 A 
HETATM   16  C19 UNL     1      20.026   3.513  51.116  1.00  0.00     0.051 A 
BRANCH  12  17
HETATM   17  O2  UNL     1      21.122   2.742  47.724  1.00  0.00    -0.355 OA
HETATM   18  C6  UNL     1      21.218   3.705  46.695  1.00  0.00     0.210 C 
ENDBRANCH  12  17
BRANCH  15  19
HETATM   19  O1  UNL     1      17.778   3.774  52.052  1.00  0.00    -0.356 OA
HETATM   20  C1  UNL     1      16.474   4.225  51.746  1.00  0.00     0.210 C 
ENDBRANCH  15  19
ENDBRANCH   1  11
BRANCH   4  21
HETATM   21  C12 UNL     1      24.795   1.211  52.116  1.00  0.00     0.062 C 
HETATM   22 CL1  UNL     1      23.765   0.542  53.365  1.00  0.00    -0.082 Cl
HETATM   23  C13 UNL     1      26.103   0.847  51.751  1.00  0.00     0.038 C 
BRANCH  23  24
HETATM   24  C14 UNL     1      26.501  -0.181  52.480  1.00  0.00     0.443 C 
HETATM   25  F1  UNL     1      26.674  -1.207  53.351  1.00  0.00    -0.452 F 
ENDBRANCH  23  24
ENDBRANCH   4  21
BRANCH   9  26
HETATM   26  N2  UNL     1      22.989   6.685  51.595  1.00  0.00    -0.309 N 
HETATM   27  H17 UNL     1      21.985   6.896  51.778  1.00  0.00     0.182 HD
BRANCH  26  28
HETATM   28  N3  UNL     1      24.174   7.447  51.618  1.00  0.00    -0.248 NA
HETATM   29  H18 UNL     1      24.826   7.157  50.845  1.00  0.00     0.143 HD
HETATM   30  H19 UNL     1      24.704   7.301  52.501  1.00  0.00     0.143 HD
ENDBRANCH  26  28
ENDBRANCH   9  26
TORSDOF 7
ENDMDL
MODEL 6
REMARK VINA RESULT:      -6.7     10.580     12.693
REMARK  7 active torsions:
REMARK  status: ('A' for Active; 'I' for Inactive)
REMARK    1  A    between atoms: O1_2  and  C2_3 
REMARK    2  A    between atoms: C5_6  and  O2_7 
REMARK    3  A    between atoms: C7_9  and  C8_10 
REMARK    4  A    between atoms: C11_13  and  C12_14 
REMARK    5  A    between atoms: C13_16  and  C14_17 
REMARK    6  A    between atoms: C18_23  and  N2_24 
REMARK    7  A    between atoms: N2_24  and  N3_25 
ROOT
HETATM    1  C8  UNL     1      31.909   6.073  46.731  1.00  0.00    -0.022 C 
HETATM    2  C9  UNL     1      32.541   6.680  45.595  1.00  0.00    -0.023 C 
HETATM    3  C10 UNL     1      33.273   5.719  44.665  1.00  0.00     0.051 C 
HETATM    4  C11 UNL     1      32.289   8.261  45.551  1.00  0.00     0.086 C 
HETATM    5  N1  UNL     1      31.163   8.420  46.551  1.00  0.00    -0.242 N 
HETATM    6  C15 UNL     1      29.871   8.101  45.918  1.00  0.00     0.116 C 
HETATM    7  C16 UNL     1      29.751   7.403  47.120  1.00  0.00     0.010 C 
HETATM    8  C17 UNL     1      30.844   6.501  47.741  1.00  0.00     0.116 C 
HETATM    9  C18 UNL     1      31.494   7.541  48.645  1.00  0.00     0.147 C 
HETATM   10  N4  UNL     1      32.067   8.291  47.724  1.00  0.00    -0.152 NA
ENDROOT
BRANCH   1  11
HETATM   11  C7  UNL     1      32.458   4.716  47.014  1.00  0.00     0.008 A 
HETATM   12  C5  UNL     1      33.657   4.557  47.674  1.00  0.00     0.079 A 
HETATM   13  C4  UNL     1      34.134   3.275  47.872  1.00  0.00     0.040 A 
HETATM   14  C3  UNL     1      33.462   2.130  47.437  1.00  0.00     0.039 A 
HETATM   15  C2  UNL     1      32.260   2.306  46.776  1.00  0.00     0.069 A 
HETATM   16  C19 UNL     1      31.799   3.588  46.586  1.00  0.00     0.051 A 
BRANCH  12  17
HETATM   17  O2  UNL     1      34.381   5.645  48.136  1.00  0.00    -0.355 OA
HETATM   18  C6  UNL     1      35.355   5.454  49.140  1.00  0.00     0.210 C 
ENDBRANCH  12  17
BRANCH  15  19
HETATM   19  O1  UNL     1      31.613   1.157  46.354  1.00  0.00    -0.356 OA
HETATM   20  C1  UNL     1      32.055  -0.089  46.851  1.00  0.00     0.210 C 
ENDBRANCH  15  19
ENDBRANCH   1  11
BRANCH   4  21
HETATM   21  C12 UNL     1      33.060   8.957  44.692  1.00  0.00     0.062 C 
HETATM   22 CL1  UNL     1      32.431   9.338  43.101  1.00  0.00    -0.082 Cl
HETATM   23  C13 UNL     1      34.317   9.254  45.246  1.00  0.00     0.038 C 
BRANCH  23  24
HETATM   24  C14 UNL     1      35.031   9.957  44.385  1.00  0.00     0.443 C 
HETATM   25  F1  UNL     1      35.892  10.769  43.720  1.00  0.00    -0.452 F 
ENDBRANCH  23  24
ENDBRANCH   4  21
BRANCH   9  26
HETATM   26  N2  UNL     1      31.424   7.566  50.066  1.00  0.00    -0.309 N 
HETATM   27  H17 UNL     1      31.247   8.493  50.507  1.00  0.00     0.182 HD
BRANCH  26  28
HETATM   28  N3  UNL     1      31.618   6.261  50.562  1.00  0.00    -0.248 NA
HETATM   29  H18 UNL     1      32.641   6.023  50.610  1.00  0.00     0.143 HD
HETATM   30  H19 UNL     1      31.193   5.548  49.935  1.00  0.00     0.143 HD
ENDBRANCH  26  28
ENDBRANCH   9  26
TORSDOF 7
ENDMDL
MODEL 7
REMARK VINA RESULT:      -6.7      9.534     11.471
REMARK  7 active torsions:
REMARK  status: ('A' for Active; 'I' for Inactive)
REMARK    1  A    between atoms: O1_2  and  C2_3 
REMARK    2  A    between atoms: C5_6  and  O2_7 
REMARK    3  A    between atoms: C7_9  and  C8_10 
REMARK    4  A    between atoms: C11_13  and  C12_14 
REMARK    5  A    between atoms: C13_16  and  C14_17 
REMARK    6  A    between atoms: C18_23  and  N2_24 
REMARK    7  A    between atoms: N2_24  and  N3_25 
ROOT
HETATM    1  C8  UNL     1      32.324   6.430  46.961  1.00  0.00    -0.022 C 
HETATM    2  C9  UNL     1      31.353   6.724  47.974  1.00  0.00    -0.023 C 
HETATM    3  C10 UNL     1      31.349   5.776  49.169  1.00  0.00     0.051 C 
HETATM    4  C11 UNL     1      30.504   8.036  47.621  1.00  0.00     0.086 C 
HETATM    5  N1  UNL     1      31.335   8.647  46.512  1.00  0.00    -0.242 N 
HETATM    6  C15 UNL     1      32.459   9.413  47.080  1.00  0.00     0.116 C 
HETATM    7  C16 UNL     1      33.111   8.703  46.071  1.00  0.00     0.010 C 
HETATM    8  C17 UNL     1      32.934   7.192  45.785  1.00  0.00     0.116 C 
HETATM    9  C18 UNL     1      31.845   7.301  44.724  1.00  0.00     0.147 C 
HETATM   10  N4  UNL     1      30.844   7.685  45.491  1.00  0.00    -0.152 NA
ENDROOT
BRANCH   1  11
HETATM   11  C7  UNL     1      32.824   5.029  47.059  1.00  0.00     0.008 A 
HETATM   12  C5  UNL     1      34.109   4.760  47.478  1.00  0.00     0.079 A 
HETATM   13  C4  UNL     1      34.528   3.443  47.511  1.00  0.00     0.040 A 
HETATM   14  C3  UNL     1      33.714   2.369  47.142  1.00  0.00     0.039 A 
HETATM   15  C2  UNL     1      32.428   2.655  46.724  1.00  0.00     0.069 A 
HETATM   16  C19 UNL     1      32.026   3.970  46.696  1.00  0.00     0.051 A 
BRANCH  12  17
HETATM   17  O2  UNL     1      34.975   5.773  47.861  1.00  0.00    -0.355 OA
HETATM   18  C6  UNL     1      35.514   5.767  49.166  1.00  0.00     0.210 C 
ENDBRANCH  12  17
BRANCH  15  19
HETATM   19  O1  UNL     1      31.641   1.575  46.363  1.00  0.00    -0.356 OA
HETATM   20  C1  UNL     1      32.063   0.277  46.730  1.00  0.00     0.210 C 
ENDBRANCH  15  19
ENDBRANCH   1  11
BRANCH   4  21
HETATM   21  C12 UNL     1      29.394   8.237  48.358  1.00  0.00     0.062 C 
HETATM   22 CL1  UNL     1      28.070   7.097  48.230  1.00  0.00    -0.082 Cl
HETATM   23  C13 UNL     1      29.489   9.408  49.130  1.00  0.00     0.038 C 
BRANCH  23  24
HETATM   24  C14 UNL     1      28.395   9.554  49.857  1.00  0.00     0.443 C 
HETATM   25  F1  UNL     1      27.318   9.452  50.677  1.00  0.00    -0.452 F 
ENDBRANCH  23  24
ENDBRANCH   4  21
BRANCH   9  26
HETATM   26  N2  UNL     1      32.007   7.026  43.338  1.00  0.00    -0.309 N 
HETATM   27  H17 UNL     1      32.344   6.072  43.089  1.00  0.00     0.182 HD
BRANCH  26  28
HETATM   28  N3  UNL     1      31.654   8.170  42.595  1.00  0.00    -0.248 NA
HETATM   29  H18 UNL     1      32.011   9.046  43.055  1.00  0.00     0.143 HD
HETATM   30  H19 UNL     1      30.621   8.284  42.538  1.00  0.00     0.143 HD
ENDBRANCH  26  28
ENDBRANCH   9  26
TORSDOF 7
ENDMDL
MODEL 8
REMARK VINA RESULT:      -6.7      3.262      4.912
REMARK  7 active torsions:
REMARK  status: ('A' for Active; 'I' for Inactive)
REMARK    1  A    between atoms: O1_2  and  C2_3 
REMARK    2  A    between atoms: C5_6  and  O2_7 
REMARK    3  A    between atoms: C7_9  and  C8_10 
REMARK    4  A    between atoms: C11_13  and  C12_14 
REMARK    5  A    between atoms: C13_16  and  C14_17 
REMARK    6  A    between atoms: C18_23  and  N2_24 
REMARK    7  A    between atoms: N2_24  and  N3_25 
ROOT
HETATM    1  C8  UNL     1      22.975   3.849  49.594  1.00  0.00    -0.022 C 
HETATM    2  C9  UNL     1      23.226   2.541  50.125  1.00  0.00    -0.023 C 
HETATM    3  C10 UNL     1      22.317   1.436  49.595  1.00  0.00     0.051 C 
HETATM    4  C11 UNL     1      24.458   2.541  51.148  1.00  0.00     0.086 C 
HETATM    5  N1  UNL     1      25.096   3.883  50.857  1.00  0.00    -0.242 N 
HETATM    6  C15 UNL     1      25.962   3.788  49.668  1.00  0.00     0.116 C 
HETATM    7  C16 UNL     1      25.273   4.971  49.395  1.00  0.00     0.010 C 
HETATM    8  C17 UNL     1      23.746   5.169  49.544  1.00  0.00     0.116 C 
HETATM    9  C18 UNL     1      23.739   5.731  50.961  1.00  0.00     0.147 C 
HETATM   10  N4  UNL     1      24.069   4.638  51.621  1.00  0.00    -0.152 NA
ENDROOT
BRANCH   1  11
HETATM   11  C7  UNL     1      21.620   3.951  48.982  1.00  0.00     0.008 A 
HETATM   12  C5  UNL     1      20.511   4.226  49.752  1.00  0.00     0.079 A 
HETATM   13  C4  UNL     1      19.274   4.270  49.134  1.00  0.00     0.040 A 
HETATM   14  C3  UNL     1      19.092   4.048  47.766  1.00  0.00     0.039 A 
HETATM   15  C2  UNL     1      20.214   3.773  47.008  1.00  0.00     0.069 A 
HETATM   16  C19 UNL     1      21.437   3.733  47.637  1.00  0.00     0.051 A 
BRANCH  12  17
HETATM   17  O2  UNL     1      20.612   4.458  51.115  1.00  0.00    -0.355 OA
HETATM   18  C6  UNL     1      20.189   3.462  52.021  1.00  0.00     0.210 C 
ENDBRANCH  12  17
BRANCH  15  19
HETATM   19  O1  UNL     1      20.008   3.556  45.656  1.00  0.00    -0.356 OA
HETATM   20  C1  UNL     1      21.042   3.890  44.752  1.00  0.00     0.210 C 
ENDBRANCH  15  19
ENDBRANCH   1  11
BRANCH   4  21
HETATM   21  C12 UNL     1      24.597   1.434  51.905  1.00  0.00     0.062 C 
HETATM   22 CL1  UNL     1      23.235   0.878  52.857  1.00  0.00    -0.082 Cl
HETATM   23  C13 UNL     1      25.893   0.900  51.811  1.00  0.00     0.038 C 
BRANCH  23  24
HETATM   24  C14 UNL     1      25.981  -0.195  52.544  1.00  0.00     0.443 C 
HETATM   25  F1  UNL     1      26.025  -1.448  53.065  1.00  0.00    -0.452 F 
ENDBRANCH  23  24
ENDBRANCH   4  21
BRANCH   9  26
HETATM   26  N2  UNL     1      23.435   7.074  51.318  1.00  0.00    -0.309 N 
HETATM   27  H17 UNL     1      24.233   7.661  51.641  1.00  0.00     0.182 HD
BRANCH  26  28
HETATM   28  N3  UNL     1      22.056   7.300  51.140  1.00  0.00    -0.248 NA
HETATM   29  H18 UNL     1      21.487   6.531  51.576  1.00  0.00     0.143 HD
HETATM   30  H19 UNL     1      21.797   7.305  50.133  1.00  0.00     0.143 HD
ENDBRANCH  26  28
ENDBRANCH   9  26
TORSDOF 7
ENDMDL
MODEL 9
REMARK VINA RESULT:      -6.6      9.262     11.648
REMARK  7 active torsions:
REMARK  status: ('A' for Active; 'I' for Inactive)
REMARK    1  A    between atoms: O1_2  and  C2_3 
REMARK    2  A    between atoms: C5_6  and  O2_7 
REMARK    3  A    between atoms: C7_9  and  C8_10 
REMARK    4  A    between atoms: C11_13  and  C12_14 
REMARK    5  A    between atoms: C13_16  and  C14_17 
REMARK    6  A    between atoms: C18_23  and  N2_24 
REMARK    7  A    between atoms: N2_24  and  N3_25 
ROOT
HETATM    1  C8  UNL     1      32.651   7.410  46.788  1.00  0.00    -0.022 C 
HETATM    2  C9  UNL     1      32.962   6.129  46.225  1.00  0.00    -0.023 C 
HETATM    3  C10 UNL     1      32.691   5.990  44.730  1.00  0.00     0.051 C 
HETATM    4  C11 UNL     1      33.572   5.131  47.319  1.00  0.00     0.086 C 
HETATM    5  N1  UNL     1      33.912   6.085  48.446  1.00  0.00    -0.242 N 
HETATM    6  C15 UNL     1      35.206   6.741  48.185  1.00  0.00     0.116 C 
HETATM    7  C16 UNL     1      34.435   7.834  48.580  1.00  0.00     0.010 C 
HETATM    8  C17 UNL     1      33.004   8.145  48.081  1.00  0.00     0.116 C 
HETATM    9  C18 UNL     1      32.232   7.454  49.199  1.00  0.00     0.147 C 
HETATM   10  N4  UNL     1      32.500   6.200  48.895  1.00  0.00    -0.152 NA
ENDROOT
BRANCH   1  11
HETATM   11  C7  UNL     1      31.727   8.192  45.917  1.00  0.00     0.008 A 
HETATM   12  C5  UNL     1      30.362   8.021  45.994  1.00  0.00     0.079 A 
HETATM   13  C4  UNL     1      29.558   8.745  45.133  1.00  0.00     0.040 A 
HETATM   14  C3  UNL     1      30.061   9.643  44.187  1.00  0.00     0.039 A 
HETATM   15  C2  UNL     1      31.432   9.803  44.122  1.00  0.00     0.069 A 
HETATM   16  C19 UNL     1      32.219   9.075  44.985  1.00  0.00     0.051 A 
BRANCH  12  17
HETATM   17  O2  UNL     1      29.790   7.150  46.908  1.00  0.00    -0.355 OA
HETATM   18  C6  UNL     1      28.410   7.250  47.192  1.00  0.00     0.210 C 
ENDBRANCH  12  17
BRANCH  15  19
HETATM   19  O1  UNL     1      31.906  10.696  43.176  1.00  0.00    -0.356 OA
HETATM   20  C1  UNL     1      32.947  11.579  43.542  1.00  0.00     0.210 C 
ENDBRANCH  15  19
ENDBRANCH   1  11
BRANCH   4  21
HETATM   21  C12 UNL     1      33.637   3.833  46.963  1.00  0.00     0.062 C 
HETATM   22 CL1  UNL     1      35.115   3.219  46.252  1.00  0.00    -0.082 Cl
HETATM   23  C13 UNL     1      32.427   3.164  47.218  1.00  0.00     0.038 C 
BRANCH  23  24
HETATM   24  C14 UNL     1      32.539   1.892  46.881  1.00  0.00     0.443 C 
HETATM   25  F1  UNL     1      32.518   0.539  46.760  1.00  0.00    -0.452 F 
ENDBRANCH  23  24
ENDBRANCH   4  21
BRANCH   9  26
HETATM   26  N2  UNL     1      31.474   8.108  50.210  1.00  0.00    -0.309 N 
HETATM   27  H17 UNL     1      31.836   8.032  51.185  1.00  0.00     0.182 HD
BRANCH  26  28
HETATM   28  N3  UNL     1      30.359   8.735  49.621  1.00  0.00    -0.248 NA
HETATM   29  H18 UNL     1      29.485   8.554  50.176  1.00  0.00     0.143 HD
HETATM   30  H19 UNL     1      30.169   8.360  48.669  1.00  0.00     0.143 HD
ENDBRANCH  26  28
ENDBRANCH   9  26
TORSDOF 7
ENDMDL
