MODEL 1
REMARK VINA RESULT:      -7.9      0.000      0.000
REMARK  4 active torsions:
REMARK  status: ('A' for Active; 'I' for Inactive)
REMARK    1  A    between atoms: O1_2  and  C2_3 
REMARK    2  A    between atoms: C6_9  and  N3_10 
REMARK    3  A    between atoms: N3_10  and  C7_11 
REMARK    4  A    between atoms: C15_20  and  O2_21 
ROOT
HETATM    1  C2  UNL     1      20.058  -0.131  52.530  1.00  0.00     0.103 A 
HETATM    2  C3  UNL     1      20.443  -0.750  53.688  1.00  0.00     0.072 A 
HETATM    3  C4  UNL     1      21.725  -0.873  54.160  1.00  0.00     0.075 A 
HETATM    4  N1  UNL     1      22.062  -1.489  55.289  1.00  0.00    -0.241 NA
HETATM    5  C5  UNL     1      23.331  -1.591  55.710  1.00  0.00     0.236 A 
HETATM    6  N2  UNL     1      24.338  -1.047  54.960  1.00  0.00    -0.224 NA
HETATM    7  C6  UNL     1      24.067  -0.402  53.795  1.00  0.00     0.142 A 
HETATM    8  C13 UNL     1      22.753  -0.316  53.394  1.00  0.00     0.042 A 
HETATM    9  C14 UNL     1      22.405   0.318  52.217  1.00  0.00     0.057 A 
HETATM   10  C15 UNL     1      21.084   0.428  51.761  1.00  0.00     0.102 A 
ENDROOT
BRANCH   7  11
HETATM   11  N3  UNL     1      25.110   0.143  53.024  1.00  0.00    -0.340 N 
HETATM   12  H6  UNL     1      24.614   0.179  52.118  1.00  0.00     0.167 HD
BRANCH  11  13
HETATM   13  C7  UNL     1      26.450   0.567  53.232  1.00  0.00     0.035 A 
HETATM   14  C8  UNL     1      26.734   1.911  53.323  1.00  0.00     0.029 A 
HETATM   15  C9  UNL     1      28.059   2.299  53.530  1.00  0.00     0.004 A 
HETATM   16  C10 UNL     1      29.030   1.312  53.635  1.00  0.00     0.024 A 
HETATM   17  C11 UNL     1      28.690  -0.032  53.535  1.00  0.00     0.036 A 
HETATM   18 CL1  UNL     1      29.942  -1.263  53.671  1.00  0.00    -0.084 Cl
HETATM   19  C12 UNL     1      27.386  -0.437  53.331  1.00  0.00     0.053 A 
ENDBRANCH  11  13
ENDBRANCH   7  11
BRANCH  10  20
HETATM   20  O2  UNL     1      20.773   1.070  50.576  1.00  0.00    -0.353 OA
HETATM   21  C16 UNL     1      21.585   1.127  49.440  1.00  0.00     0.210 C 
ENDBRANCH  10  20
BRANCH   1  22
HETATM   22  O1  UNL     1      18.788   0.009  52.030  1.00  0.00    -0.353 OA
HETATM   23  C1  UNL     1      17.691  -0.793  52.384  1.00  0.00     0.210 C 
ENDBRANCH   1  22
TORSDOF 4
ENDMDL
MODEL 2
REMARK VINA RESULT:      -7.8      1.765      1.844
REMARK  4 active torsions:
REMARK  status: ('A' for Active; 'I' for Inactive)
REMARK    1  A    between atoms: O1_2  and  C2_3 
REMARK    2  A    between atoms: C6_9  and  N3_10 
REMARK    3  A    between atoms: N3_10  and  C7_11 
REMARK    4  A    between atoms: C15_20  and  O2_21 
ROOT
HETATM    1  C2  UNL     1      20.561   2.373  52.608  1.00  0.00     0.103 A 
HETATM    2  C3  UNL     1      20.569   1.349  53.516  1.00  0.00     0.072 A 
HETATM    3  C4  UNL     1      21.635   0.543  53.826  1.00  0.00     0.075 A 
HETATM    4  N1  UNL     1      21.603  -0.448  54.712  1.00  0.00    -0.241 NA
HETATM    5  C5  UNL     1      22.667  -1.217  54.980  1.00  0.00     0.236 A 
HETATM    6  N2  UNL     1      23.848  -0.989  54.326  1.00  0.00    -0.224 NA
HETATM    7  C6  UNL     1      23.953   0.007  53.408  1.00  0.00     0.142 A 
HETATM    8  C13 UNL     1      22.839   0.777  53.158  1.00  0.00     0.042 A 
HETATM    9  C14 UNL     1      22.872   1.802  52.233  1.00  0.00     0.057 A 
HETATM   10  C15 UNL     1      21.765   2.610  51.937  1.00  0.00     0.102 A 
ENDROOT
BRANCH   7  11
HETATM   11  N3  UNL     1      25.166   0.226  52.731  1.00  0.00    -0.340 N 
HETATM   12  H6  UNL     1      24.838   0.010  51.774  1.00  0.00     0.167 HD
BRANCH  11  13
HETATM   13  C7  UNL     1      26.493   0.613  53.062  1.00  0.00     0.035 A 
HETATM   14  C8  UNL     1      26.794   1.947  53.225  1.00  0.00     0.029 A 
HETATM   15  C9  UNL     1      28.104   2.299  53.553  1.00  0.00     0.004 A 
HETATM   16  C10 UNL     1      29.044   1.288  53.703  1.00  0.00     0.024 A 
HETATM   17  C11 UNL     1      28.688  -0.044  53.528  1.00  0.00     0.036 A 
HETATM   18 CL1  UNL     1      29.901  -1.307  53.722  1.00  0.00    -0.084 Cl
HETATM   19  C12 UNL     1      27.398  -0.414  53.202  1.00  0.00     0.053 A 
ENDBRANCH  11  13
ENDBRANCH   7  11
BRANCH  10  20
HETATM   20  O2  UNL     1      21.834   3.628  51.003  1.00  0.00    -0.353 OA
HETATM   21  C16 UNL     1      22.795   4.643  50.970  1.00  0.00     0.210 C 
ENDBRANCH  10  20
BRANCH   1  22
HETATM   22  O1  UNL     1      19.515   3.196  52.273  1.00  0.00    -0.353 OA
HETATM   23  C1  UNL     1      18.384   2.803  51.540  1.00  0.00     0.210 C 
ENDBRANCH   1  22
TORSDOF 4
ENDMDL
MODEL 3
REMARK VINA RESULT:      -7.5      4.434      6.547
REMARK  4 active torsions:
REMARK  status: ('A' for Active; 'I' for Inactive)
REMARK    1  A    between atoms: O1_2  and  C2_3 
REMARK    2  A    between atoms: C6_9  and  N3_10 
REMARK    3  A    between atoms: N3_10  and  C7_11 
REMARK    4  A    between atoms: C15_20  and  O2_21 
ROOT
HETATM    1  C2  UNL     1      26.632   0.122  54.309  1.00  0.00     0.103 A 
HETATM    2  C3  UNL     1      25.507  -0.604  54.029  1.00  0.00     0.072 A 
HETATM    3  C4  UNL     1      24.339  -0.124  53.492  1.00  0.00     0.075 A 
HETATM    4  N1  UNL     1      23.262  -0.861  53.240  1.00  0.00    -0.241 NA
HETATM    5  C5  UNL     1      22.137  -0.349  52.720  1.00  0.00     0.236 A 
HETATM    6  N2  UNL     1      22.075   0.987  52.429  1.00  0.00    -0.224 NA
HETATM    7  C6  UNL     1      23.138   1.800  52.661  1.00  0.00     0.142 A 
HETATM    8  C13 UNL     1      24.276   1.240  53.196  1.00  0.00     0.042 A 
HETATM    9  C14 UNL     1      25.393   2.008  53.464  1.00  0.00     0.057 A 
HETATM   10  C15 UNL     1      26.573   1.488  54.013  1.00  0.00     0.102 A 
ENDROOT
BRANCH   7  11
HETATM   11  N3  UNL     1      23.059   3.174  52.371  1.00  0.00    -0.340 N 
HETATM   12  H6  UNL     1      22.619   3.482  53.255  1.00  0.00     0.167 HD
BRANCH  11  13
HETATM   13  C7  UNL     1      23.410   4.037  51.299  1.00  0.00     0.035 A 
HETATM   14  C8  UNL     1      23.670   3.509  50.054  1.00  0.00     0.029 A 
HETATM   15  C9  UNL     1      24.009   4.380  49.018  1.00  0.00     0.004 A 
HETATM   16  C10 UNL     1      24.067   5.741  49.288  1.00  0.00     0.024 A 
HETATM   17  C11 UNL     1      23.795   6.223  50.563  1.00  0.00     0.036 A 
HETATM   18 CL1  UNL     1      23.878   7.955  50.879  1.00  0.00    -0.084 Cl
HETATM   19  C12 UNL     1      23.459   5.379  51.602  1.00  0.00     0.053 A 
ENDBRANCH  11  13
ENDBRANCH   7  11
BRANCH  10  20
HETATM   20  O2  UNL     1      27.672   2.288  54.269  1.00  0.00    -0.353 OA
HETATM   21  C16 UNL     1      28.674   2.617  53.352  1.00  0.00     0.210 C 
ENDBRANCH  10  20
BRANCH   1  22
HETATM   22  O1  UNL     1      27.814  -0.325  54.845  1.00  0.00    -0.353 OA
HETATM   23  C1  UNL     1      28.896  -0.825  54.102  1.00  0.00     0.210 C 
ENDBRANCH   1  22
TORSDOF 4
ENDMDL
MODEL 4
REMARK VINA RESULT:      -7.5      2.231      3.773
REMARK  4 active torsions:
REMARK  status: ('A' for Active; 'I' for Inactive)
REMARK    1  A    between atoms: O1_2  and  C2_3 
REMARK    2  A    between atoms: C6_9  and  N3_10 
REMARK    3  A    between atoms: N3_10  and  C7_11 
REMARK    4  A    between atoms: C15_20  and  O2_21 
ROOT
HETATM    1  C2  UNL     1      21.389   0.739  51.326  1.00  0.00     0.103 A 
HETATM    2  C3  UNL     1      21.901   1.566  50.364  1.00  0.00     0.072 A 
HETATM    3  C4  UNL     1      23.134   2.169  50.379  1.00  0.00     0.075 A 
HETATM    4  N1  UNL     1      23.596   2.973  49.427  1.00  0.00    -0.241 NA
HETATM    5  C5  UNL     1      24.806   3.548  49.485  1.00  0.00     0.236 A 
HETATM    6  N2  UNL     1      25.615   3.311  50.563  1.00  0.00    -0.224 NA
HETATM    7  C6  UNL     1      25.208   2.499  51.574  1.00  0.00     0.142 A 
HETATM    8  C13 UNL     1      23.960   1.926  51.480  1.00  0.00     0.042 A 
HETATM    9  C14 UNL     1      23.477   1.095  52.473  1.00  0.00     0.057 A 
HETATM   10  C15 UNL     1      22.213   0.493  52.429  1.00  0.00     0.102 A 
ENDROOT
BRANCH   7  11
HETATM   11  N3  UNL     1      26.041   2.271  52.684  1.00  0.00    -0.340 N 
HETATM   12  H6  UNL     1      25.650   2.997  53.308  1.00  0.00     0.167 HD
BRANCH  11  13
HETATM   13  C7  UNL     1      27.107   1.397  53.028  1.00  0.00     0.035 A 
HETATM   14  C8  UNL     1      28.242   1.904  53.620  1.00  0.00     0.029 A 
HETATM   15  C9  UNL     1      29.272   1.022  53.950  1.00  0.00     0.004 A 
HETATM   16  C10 UNL     1      29.106  -0.327  53.667  1.00  0.00     0.024 A 
HETATM   17  C11 UNL     1      27.939  -0.787  53.067  1.00  0.00     0.036 A 
HETATM   18 CL1  UNL     1      27.755  -2.505  52.718  1.00  0.00    -0.084 Cl
HETATM   19  C12 UNL     1      26.909   0.068  52.732  1.00  0.00     0.053 A 
ENDBRANCH  11  13
ENDBRANCH   7  11
BRANCH  10  20
HETATM   20  O2  UNL     1      21.762  -0.333  53.443  1.00  0.00    -0.353 OA
HETATM   21  C16 UNL     1      21.145   0.087  54.625  1.00  0.00     0.210 C 
ENDBRANCH  10  20
BRANCH   1  22
HETATM   22  O1  UNL     1      20.163   0.121  51.342  1.00  0.00    -0.353 OA
HETATM   23  C1  UNL     1      19.031   0.562  50.638  1.00  0.00     0.210 C 
ENDBRANCH   1  22
TORSDOF 4
ENDMDL
MODEL 5
REMARK VINA RESULT:      -7.4      3.804      7.308
REMARK  4 active torsions:
REMARK  status: ('A' for Active; 'I' for Inactive)
REMARK    1  A    between atoms: O1_2  and  C2_3 
REMARK    2  A    between atoms: C6_9  and  N3_10 
REMARK    3  A    between atoms: N3_10  and  C7_11 
REMARK    4  A    between atoms: C15_20  and  O2_21 
ROOT
HETATM    1  C2  UNL     1      27.293  -0.029  53.570  1.00  0.00     0.103 A 
HETATM    2  C3  UNL     1      27.535   0.903  52.598  1.00  0.00     0.072 A 
HETATM    3  C4  UNL     1      26.606   1.717  52.000  1.00  0.00     0.075 A 
HETATM    4  N1  UNL     1      26.878   2.608  51.051  1.00  0.00    -0.241 NA
HETATM    5  C5  UNL     1      25.937   3.380  50.489  1.00  0.00     0.236 A 
HETATM    6  N2  UNL     1      24.635   3.261  50.894  1.00  0.00    -0.224 NA
HETATM    7  C6  UNL     1      24.285   2.372  51.859  1.00  0.00     0.142 A 
HETATM    8  C13 UNL     1      25.277   1.596  52.414  1.00  0.00     0.042 A 
HETATM    9  C14 UNL     1      24.993   0.665  53.395  1.00  0.00     0.057 A 
HETATM   10  C15 UNL     1      25.964  -0.153  53.987  1.00  0.00     0.102 A 
ENDROOT
BRANCH   7  11
HETATM   11  N3  UNL     1      22.942   2.247  52.258  1.00  0.00    -0.340 N 
HETATM   12  H6  UNL     1      22.998   2.804  53.128  1.00  0.00     0.167 HD
BRANCH  11  13
HETATM   13  C7  UNL     1      21.762   1.621  51.774  1.00  0.00     0.035 A 
HETATM   14  C8  UNL     1      21.367   1.823  50.470  1.00  0.00     0.029 A 
HETATM   15  C9  UNL     1      20.206   1.193  50.021  1.00  0.00     0.004 A 
HETATM   16  C10 UNL     1      19.502   0.390  50.908  1.00  0.00     0.024 A 
HETATM   17  C11 UNL     1      19.944   0.219  52.215  1.00  0.00     0.036 A 
HETATM   18 CL1  UNL     1      19.029  -0.805  53.320  1.00  0.00    -0.084 Cl
HETATM   19  C12 UNL     1      21.089   0.833  52.680  1.00  0.00     0.053 A 
ENDBRANCH  11  13
ENDBRANCH   7  11
BRANCH  10  20
HETATM   20  O2  UNL     1      25.642  -1.075  54.967  1.00  0.00    -0.353 OA
HETATM   21  C16 UNL     1      24.374  -1.267  55.524  1.00  0.00     0.210 C 
ENDBRANCH  10  20
BRANCH   1  22
HETATM   22  O1  UNL     1      28.196  -0.858  54.188  1.00  0.00    -0.353 OA
HETATM   23  C1  UNL     1      29.553  -0.969  53.842  1.00  0.00     0.210 C 
ENDBRANCH   1  22
TORSDOF 4
ENDMDL
MODEL 6
REMARK VINA RESULT:      -7.4      4.233      5.405
REMARK  4 active torsions:
REMARK  status: ('A' for Active; 'I' for Inactive)
REMARK    1  A    between atoms: O1_2  and  C2_3 
REMARK    2  A    between atoms: C6_9  and  N3_10 
REMARK    3  A    between atoms: N3_10  and  C7_11 
REMARK    4  A    between atoms: C15_20  and  O2_21 
ROOT
HETATM    1  C2  UNL     1      23.028   0.398  52.889  1.00  0.00     0.103 A 
HETATM    2  C3  UNL     1      24.258   0.436  53.487  1.00  0.00     0.072 A 
HETATM    3  C4  UNL     1      25.373   1.083  53.017  1.00  0.00     0.075 A 
HETATM    4  N1  UNL     1      26.556   1.091  53.624  1.00  0.00    -0.241 NA
HETATM    5  C5  UNL     1      27.624   1.732  53.126  1.00  0.00     0.236 A 
HETATM    6  N2  UNL     1      27.512   2.411  51.943  1.00  0.00    -0.224 NA
HETATM    7  C6  UNL     1      26.334   2.445  51.268  1.00  0.00     0.142 A 
HETATM    8  C13 UNL     1      25.259   1.776  51.809  1.00  0.00     0.042 A 
HETATM    9  C14 UNL     1      24.032   1.762  51.175  1.00  0.00     0.057 A 
HETATM   10  C15 UNL     1      22.910   1.092  51.680  1.00  0.00     0.102 A 
ENDROOT
BRANCH   7  11
HETATM   11  N3  UNL     1      26.233   3.134  50.046  1.00  0.00    -0.340 N 
HETATM   12  H6  UNL     1      25.938   2.338  49.456  1.00  0.00     0.167 HD
BRANCH  11  13
HETATM   13  C7  UNL     1      26.424   4.462  49.577  1.00  0.00     0.035 A 
HETATM   14  C8  UNL     1      27.479   4.745  48.738  1.00  0.00     0.029 A 
HETATM   15  C9  UNL     1      27.640   6.056  48.291  1.00  0.00     0.004 A 
HETATM   16  C10 UNL     1      26.729   7.017  48.710  1.00  0.00     0.024 A 
HETATM   17  C11 UNL     1      25.681   6.679  49.558  1.00  0.00     0.036 A 
HETATM   18 CL1  UNL     1      24.541   7.918  50.076  1.00  0.00    -0.084 Cl
HETATM   19  C12 UNL     1      25.504   5.388  50.013  1.00  0.00     0.053 A 
ENDBRANCH  11  13
ENDBRANCH   7  11
BRANCH  10  20
HETATM   20  O2  UNL     1      21.696   1.099  51.016  1.00  0.00    -0.353 OA
HETATM   21  C16 UNL     1      21.516   0.926  49.640  1.00  0.00     0.210 C 
ENDBRANCH  10  20
BRANCH   1  22
HETATM   22  O1  UNL     1      21.894  -0.237  53.330  1.00  0.00    -0.353 OA
HETATM   23  C1  UNL     1      21.733  -0.801  54.606  1.00  0.00     0.210 C 
ENDBRANCH   1  22
TORSDOF 4
ENDMDL
MODEL 7
REMARK VINA RESULT:      -7.4      3.582      6.177
REMARK  4 active torsions:
REMARK  status: ('A' for Active; 'I' for Inactive)
REMARK    1  A    between atoms: O1_2  and  C2_3 
REMARK    2  A    between atoms: C6_9  and  N3_10 
REMARK    3  A    between atoms: N3_10  and  C7_11 
REMARK    4  A    between atoms: C15_20  and  O2_21 
ROOT
HETATM    1  C2  UNL     1      26.207  -0.322  53.867  1.00  0.00     0.103 A 
HETATM    2  C3  UNL     1      25.155  -0.911  54.515  1.00  0.00     0.072 A 
HETATM    3  C4  UNL     1      23.824  -0.637  54.325  1.00  0.00     0.075 A 
HETATM    4  N1  UNL     1      22.828  -1.226  54.980  1.00  0.00    -0.241 NA
HETATM    5  C5  UNL     1      21.540  -0.923  54.768  1.00  0.00     0.236 A 
HETATM    6  N2  UNL     1      21.214   0.031  53.843  1.00  0.00    -0.224 NA
HETATM    7  C6  UNL     1      22.180   0.674  53.136  1.00  0.00     0.142 A 
HETATM    8  C13 UNL     1      23.492   0.337  53.380  1.00  0.00     0.042 A 
HETATM    9  C14 UNL     1      24.527   0.954  52.704  1.00  0.00     0.057 A 
HETATM   10  C15 UNL     1      25.878   0.653  52.919  1.00  0.00     0.102 A 
ENDROOT
BRANCH   7  11
HETATM   11  N3  UNL     1      21.836   1.663  52.197  1.00  0.00    -0.340 N 
HETATM   12  H6  UNL     1      21.413   2.342  52.852  1.00  0.00     0.167 HD
BRANCH  11  13
HETATM   13  C7  UNL     1      21.946   1.853  50.793  1.00  0.00     0.035 A 
HETATM   14  C8  UNL     1      21.472   0.887  49.933  1.00  0.00     0.029 A 
HETATM   15  C9  UNL     1      21.591   1.102  48.560  1.00  0.00     0.004 A 
HETATM   16  C10 UNL     1      22.180   2.281  48.121  1.00  0.00     0.024 A 
HETATM   17  C11 UNL     1      22.642   3.224  49.032  1.00  0.00     0.036 A 
HETATM   18 CL1  UNL     1      23.388   4.710  48.448  1.00  0.00    -0.084 Cl
HETATM   19  C12 UNL     1      22.535   3.031  50.394  1.00  0.00     0.053 A 
ENDBRANCH  11  13
ENDBRANCH   7  11
BRANCH  10  20
HETATM   20  O2  UNL     1      26.888   1.293  52.224  1.00  0.00    -0.353 OA
HETATM   21  C16 UNL     1      26.710   2.260  51.230  1.00  0.00     0.210 C 
ENDBRANCH  10  20
BRANCH   1  22
HETATM   22  O1  UNL     1      27.546  -0.572  54.032  1.00  0.00    -0.353 OA
HETATM   23  C1  UNL     1      28.383   0.099  54.939  1.00  0.00     0.210 C 
ENDBRANCH   1  22
TORSDOF 4
ENDMDL
MODEL 8
REMARK VINA RESULT:      -7.3      3.843      6.805
REMARK  4 active torsions:
REMARK  status: ('A' for Active; 'I' for Inactive)
REMARK    1  A    between atoms: O1_2  and  C2_3 
REMARK    2  A    between atoms: C6_9  and  N3_10 
REMARK    3  A    between atoms: N3_10  and  C7_11 
REMARK    4  A    between atoms: C15_20  and  O2_21 
ROOT
HETATM    1  C2  UNL     1      27.347   0.729  53.460  1.00  0.00     0.103 A 
HETATM    2  C3  UNL     1      26.763  -0.005  54.456  1.00  0.00     0.072 A 
HETATM    3  C4  UNL     1      25.452  -0.406  54.511  1.00  0.00     0.075 A 
HETATM    4  N1  UNL     1      24.917  -1.115  55.500  1.00  0.00    -0.241 NA
HETATM    5  C5  UNL     1      23.627  -1.481  55.517  1.00  0.00     0.236 A 
HETATM    6  N2  UNL     1      22.809  -1.119  54.481  1.00  0.00    -0.224 NA
HETATM    7  C6  UNL     1      23.288  -0.395  53.436  1.00  0.00     0.142 A 
HETATM    8  C13 UNL     1      24.617  -0.037  53.453  1.00  0.00     0.042 A 
HETATM    9  C14 UNL     1      25.171   0.705  52.427  1.00  0.00     0.057 A 
HETATM   10  C15 UNL     1      26.515   1.101  52.399  1.00  0.00     0.102 A 
ENDROOT
BRANCH   7  11
HETATM   11  N3  UNL     1      22.436  -0.016  52.383  1.00  0.00    -0.340 N 
HETATM   12  H6  UNL     1      22.842  -0.619  51.646  1.00  0.00     0.167 HD
BRANCH  11  13
HETATM   13  C7  UNL     1      21.339   0.866  52.193  1.00  0.00     0.035 A 
HETATM   14  C8  UNL     1      21.482   2.205  52.483  1.00  0.00     0.029 A 
HETATM   15  C9  UNL     1      20.389   3.050  52.284  1.00  0.00     0.004 A 
HETATM   16  C10 UNL     1      19.207   2.502  51.802  1.00  0.00     0.024 A 
HETATM   17  C11 UNL     1      19.116   1.143  51.525  1.00  0.00     0.036 A 
HETATM   18 CL1  UNL     1      17.604   0.475  50.915  1.00  0.00    -0.084 Cl
HETATM   19  C12 UNL     1      20.184   0.291  51.715  1.00  0.00     0.053 A 
ENDBRANCH  11  13
ENDBRANCH   7  11
BRANCH  10  20
HETATM   20  O2  UNL     1      27.034   1.845  51.356  1.00  0.00    -0.353 OA
HETATM   21  C16 UNL     1      26.445   2.978  50.787  1.00  0.00     0.210 C 
ENDBRANCH  10  20
BRANCH   1  22
HETATM   22  O1  UNL     1      28.652   1.147  53.374  1.00  0.00    -0.353 OA
HETATM   23  C1  UNL     1      29.236   2.132  54.188  1.00  0.00     0.210 C 
ENDBRANCH   1  22
TORSDOF 4
ENDMDL
MODEL 9
REMARK VINA RESULT:      -7.0      4.350      5.419
REMARK  4 active torsions:
REMARK  status: ('A' for Active; 'I' for Inactive)
REMARK    1  A    between atoms: O1_2  and  C2_3 
REMARK    2  A    between atoms: C6_9  and  N3_10 
REMARK    3  A    between atoms: N3_10  and  C7_11 
REMARK    4  A    between atoms: C15_20  and  O2_21 
ROOT
HETATM    1  C2  UNL     1      22.618   1.505  52.448  1.00  0.00     0.103 A 
HETATM    2  C3  UNL     1      23.767   1.391  53.183  1.00  0.00     0.072 A 
HETATM    3  C4  UNL     1      25.027   1.765  52.789  1.00  0.00     0.075 A 
HETATM    4  N1  UNL     1      26.123   1.632  53.529  1.00  0.00    -0.241 NA
HETATM    5  C5  UNL     1      27.338   2.005  53.102  1.00  0.00     0.236 A 
HETATM    6  N2  UNL     1      27.478   2.547  51.853  1.00  0.00    -0.224 NA
HETATM    7  C6  UNL     1      26.401   2.712  51.041  1.00  0.00     0.142 A 
HETATM    8  C13 UNL     1      25.169   2.318  51.513  1.00  0.00     0.042 A 
HETATM    9  C14 UNL     1      24.031   2.450  50.740  1.00  0.00     0.057 A 
HETATM   10  C15 UNL     1      22.756   2.059  51.171  1.00  0.00     0.102 A 
ENDROOT
BRANCH   7  11
HETATM   11  N3  UNL     1      26.557   3.257  49.754  1.00  0.00    -0.340 N 
HETATM   12  H6  UNL     1      26.637   2.369  49.231  1.00  0.00     0.167 HD
BRANCH  11  13
HETATM   13  C7  UNL     1      26.610   4.549  49.167  1.00  0.00     0.035 A 
HETATM   14  C8  UNL     1      25.477   5.332  49.134  1.00  0.00     0.029 A 
HETATM   15  C9  UNL     1      25.559   6.598  48.554  1.00  0.00     0.004 A 
HETATM   16  C10 UNL     1      26.779   7.013  48.036  1.00  0.00     0.024 A 
HETATM   17  C11 UNL     1      27.893   6.184  48.094  1.00  0.00     0.036 A 
HETATM   18 CL1  UNL     1      29.428   6.734  47.428  1.00  0.00    -0.084 Cl
HETATM   19  C12 UNL     1      27.834   4.928  48.663  1.00  0.00     0.053 A 
ENDBRANCH  11  13
ENDBRANCH   7  11
BRANCH  10  20
HETATM   20  O2  UNL     1      21.639   2.205  50.368  1.00  0.00    -0.353 OA
HETATM   21  C16 UNL     1      21.637   2.253  48.972  1.00  0.00     0.210 C 
ENDBRANCH  10  20
BRANCH   1  22
HETATM   22  O1  UNL     1      21.345   1.143  52.810  1.00  0.00    -0.353 OA
HETATM   23  C1  UNL     1      20.838  -0.166  52.764  1.00  0.00     0.210 C 
ENDBRANCH   1  22
TORSDOF 4
ENDMDL
