MODEL 1
REMARK VINA RESULT:      -8.2      0.000      0.000
REMARK  7 active torsions:
REMARK  status: ('A' for Active; 'I' for Inactive)
REMARK    1  A    between atoms: C2_2  and  C3_4 
REMARK    2  A    between atoms: C4_6  and  C5_7 
REMARK    3  A    between atoms: C5_7  and  N1_8 
REMARK    4  A    between atoms: N1_8  and  C6_9 
REMARK    5  A    between atoms: C11_16  and  O1_17 
REMARK    6  A    between atoms: C13_19  and  O2_20 
REMARK    7  A    between atoms: O2_20  and  C14_21 
ROOT
HETATM    1  C6  UNL     1      26.661   1.893  52.217  1.00  0.00     0.165 A 
HETATM    2  N2  UNL     1      27.871   2.440  52.409  1.00  0.00    -0.222 NA
HETATM    3  C7  UNL     1      28.587   2.137  53.531  1.00  0.00     0.236 A 
HETATM    4  N3  UNL     1      28.050   1.294  54.410  1.00  0.00    -0.241 NA
HETATM    5  C8  UNL     1      26.842   0.725  54.254  1.00  0.00     0.075 A 
HETATM    6  C9  UNL     1      26.265  -0.152  55.146  1.00  0.00     0.035 A 
HETATM    7  C10 UNL     1      25.000  -0.679  54.865  1.00  0.00     0.042 A 
HETATM    8  C11 UNL     1      24.315  -0.329  53.696  1.00  0.00     0.102 A 
HETATM    9  C13 UNL     1      24.873   0.564  52.764  1.00  0.00     0.119 A 
HETATM   10  C20 UNL     1      26.114   1.024  53.129  1.00  0.00     0.077 A 
ENDROOT
BRANCH   1  11
HETATM   11  N1  UNL     1      26.050   2.305  51.006  1.00  0.00    -0.244 NA
BRANCH  11  12
HETATM   12  C5  UNL     1      26.631   3.203  50.242  1.00  0.00     0.104 C 
BRANCH  12  13
HETATM   13  C4  UNL     1      26.964   4.338  49.410  1.00  0.00     0.105 C 
HETATM   14  C3  UNL     1      27.673   5.056  48.599  1.00  0.00     0.121 C 
HETATM   15  F1  UNL     1      28.780   5.230  47.869  1.00  0.00    -0.208 F 
BRANCH  14  16
HETATM   16  C2  UNL     1      26.723   6.150  48.523  1.00  0.00     0.044 A 
HETATM   17  C1  UNL     1      26.093   6.893  49.406  1.00  0.00     0.155 A 
HETATM   18 CL1  UNL     1      25.691   7.326  47.779  1.00  0.00    -0.179 Cl
ENDBRANCH  14  16
ENDBRANCH  12  13
ENDBRANCH  11  12
ENDBRANCH   1  11
BRANCH   9  19
HETATM   19  O2  UNL     1      24.069   0.790  51.692  1.00  0.00    -0.342 OA
BRANCH  19  20
HETATM   20  C14 UNL     1      22.900   1.519  51.573  1.00  0.00     0.132 C 
HETATM   21  C15 UNL     1      22.791   2.690  52.479  1.00  0.00     0.062 C 
HETATM   22  C16 UNL     1      23.045   4.018  51.770  1.00  0.00     0.274 C 
HETATM   23  N4  UNL     1      21.964   4.253  50.840  1.00  0.00     0.084 N 
HETATM   24  C17 UNL     1      22.354   5.173  49.786  1.00  0.00     0.309 C 
HETATM   25  C18 UNL     1      21.484   3.011  50.286  1.00  0.00     0.274 C 
HETATM   26  C19 UNL     1      22.686   2.062  50.157  1.00  0.00     0.062 C 
ENDBRANCH  19  20
ENDBRANCH   9  19
BRANCH   8  27
HETATM   27  O1  UNL     1      23.073  -0.920  53.533  1.00  0.00    -0.353 OA
HETATM   28  C12 UNL     1      22.197  -0.972  54.633  1.00  0.00     0.210 C 
ENDBRANCH   8  27
TORSDOF 7
ENDMDL
MODEL 2
REMARK VINA RESULT:      -8.1      3.766      5.721
REMARK  7 active torsions:
REMARK  status: ('A' for Active; 'I' for Inactive)
REMARK    1  A    between atoms: C2_2  and  C3_4 
REMARK    2  A    between atoms: C4_6  and  C5_7 
REMARK    3  A    between atoms: C5_7  and  N1_8 
REMARK    4  A    between atoms: N1_8  and  C6_9 
REMARK    5  A    between atoms: C11_16  and  O1_17 
REMARK    6  A    between atoms: C13_19  and  O2_20 
REMARK    7  A    between atoms: O2_20  and  C14_21 
ROOT
HETATM    1  C6  UNL     1      23.103  -0.097  53.226  1.00  0.00     0.165 A 
HETATM    2  N2  UNL     1      23.560  -0.688  54.341  1.00  0.00    -0.222 NA
HETATM    3  C7  UNL     1      22.692  -1.324  55.180  1.00  0.00     0.236 A 
HETATM    4  N3  UNL     1      21.401  -1.336  54.857  1.00  0.00    -0.241 NA
HETATM    5  C8  UNL     1      20.904  -0.757  53.751  1.00  0.00     0.075 A 
HETATM    6  C9  UNL     1      19.574  -0.757  53.392  1.00  0.00     0.035 A 
HETATM    7  C10 UNL     1      19.185  -0.119  52.209  1.00  0.00     0.042 A 
HETATM    8  C11 UNL     1      20.124   0.517  51.389  1.00  0.00     0.102 A 
HETATM    9  C13 UNL     1      21.489   0.538  51.724  1.00  0.00     0.119 A 
HETATM   10  C20 UNL     1      21.769  -0.114  52.900  1.00  0.00     0.077 A 
ENDROOT
BRANCH   1  11
HETATM   11  N1  UNL     1      24.128   0.515  52.460  1.00  0.00    -0.244 NA
BRANCH  11  12
HETATM   12  C5  UNL     1      25.378   0.129  52.597  1.00  0.00     0.104 C 
BRANCH  12  13
HETATM   13  C4  UNL     1      26.609  -0.598  52.814  1.00  0.00     0.105 C 
HETATM   14  C3  UNL     1      27.411  -1.614  52.812  1.00  0.00     0.121 C 
HETATM   15  F1  UNL     1      27.648  -2.904  52.552  1.00  0.00    -0.208 F 
BRANCH  14  16
HETATM   16  C2  UNL     1      28.540  -0.896  53.374  1.00  0.00     0.044 A 
HETATM   17  C1  UNL     1      28.730  -0.166  54.451  1.00  0.00     0.155 A 
HETATM   18 CL1  UNL     1      30.161  -0.294  53.485  1.00  0.00    -0.179 Cl
ENDBRANCH  14  16
ENDBRANCH  12  13
ENDBRANCH  11  12
ENDBRANCH   1  11
BRANCH   9  19
HETATM   19  O2  UNL     1      22.253   1.200  50.817  1.00  0.00    -0.342 OA
BRANCH  19  20
HETATM   20  C14 UNL     1      22.265   2.530  50.439  1.00  0.00     0.132 C 
HETATM   21  C15 UNL     1      22.507   3.497  51.540  1.00  0.00     0.062 C 
HETATM   22  C16 UNL     1      23.929   4.053  51.542  1.00  0.00     0.274 C 
HETATM   23  N4  UNL     1      24.097   4.881  50.369  1.00  0.00     0.084 N 
HETATM   24  C17 UNL     1      25.498   5.023  50.010  1.00  0.00     0.309 C 
HETATM   25  C18 UNL     1      23.332   4.365  49.262  1.00  0.00     0.274 C 
HETATM   26  C19 UNL     1      23.324   2.832  49.374  1.00  0.00     0.062 C 
ENDBRANCH  19  20
ENDBRANCH   9  19
BRANCH   8  27
HETATM   27  O1  UNL     1      19.613   1.109  50.245  1.00  0.00    -0.353 OA
HETATM   28  C12 UNL     1      18.520   1.987  50.367  1.00  0.00     0.210 C 
ENDBRANCH   8  27
TORSDOF 7
ENDMDL
MODEL 3
REMARK VINA RESULT:      -7.7      1.389      4.732
REMARK  7 active torsions:
REMARK  status: ('A' for Active; 'I' for Inactive)
REMARK    1  A    between atoms: C2_2  and  C3_4 
REMARK    2  A    between atoms: C4_6  and  C5_7 
REMARK    3  A    between atoms: C5_7  and  N1_8 
REMARK    4  A    between atoms: N1_8  and  C6_9 
REMARK    5  A    between atoms: C11_16  and  O1_17 
REMARK    6  A    between atoms: C13_19  and  O2_20 
REMARK    7  A    between atoms: O2_20  and  C14_21 
ROOT
HETATM    1  C6  UNL     1      23.837   2.597  50.276  1.00  0.00     0.165 A 
HETATM    2  N2  UNL     1      23.638   3.184  49.086  1.00  0.00    -0.222 NA
HETATM    3  C7  UNL     1      22.518   2.894  48.361  1.00  0.00     0.236 A 
HETATM    4  N3  UNL     1      21.650   2.023  48.869  1.00  0.00    -0.241 NA
HETATM    5  C8  UNL     1      21.813   1.414  50.057  1.00  0.00     0.075 A 
HETATM    6  C9  UNL     1      20.929   0.512  50.607  1.00  0.00     0.035 A 
HETATM    7  C10 UNL     1      21.214  -0.050  51.855  1.00  0.00     0.042 A 
HETATM    8  C11 UNL     1      22.381   0.289  52.551  1.00  0.00     0.102 A 
HETATM    9  C13 UNL     1      23.306   1.205  52.020  1.00  0.00     0.119 A 
HETATM   10  C20 UNL     1      22.936   1.699  50.794  1.00  0.00     0.077 A 
ENDROOT
BRANCH   1  11
HETATM   11  N1  UNL     1      25.041   3.007  50.904  1.00  0.00    -0.244 NA
BRANCH  11  12
HETATM   12  C5  UNL     1      25.970   3.631  50.213  1.00  0.00     0.104 C 
BRANCH  12  13
HETATM   13  C4  UNL     1      26.735   4.527  49.375  1.00  0.00     0.105 C 
HETATM   14  C3  UNL     1      27.718   4.912  48.626  1.00  0.00     0.121 C 
HETATM   15  F1  UNL     1      28.892   4.666  48.035  1.00  0.00    -0.208 F 
BRANCH  14  16
HETATM   16  C2  UNL     1      27.185   6.238  48.375  1.00  0.00     0.044 A 
HETATM   17  C1  UNL     1      26.500   7.110  49.083  1.00  0.00     0.155 A 
HETATM   18 CL1  UNL     1      26.838   7.683  47.484  1.00  0.00    -0.179 Cl
ENDBRANCH  14  16
ENDBRANCH  12  13
ENDBRANCH  11  12
ENDBRANCH   1  11
BRANCH   9  19
HETATM   19  O2  UNL     1      24.378   1.412  52.828  1.00  0.00    -0.342 OA
BRANCH  19  20
HETATM   20  C14 UNL     1      25.346   0.541  53.291  1.00  0.00     0.132 C 
HETATM   21  C15 UNL     1      26.373   0.150  52.292  1.00  0.00     0.062 C 
HETATM   22  C16 UNL     1      27.704   0.870  52.494  1.00  0.00     0.274 C 
HETATM   23  N4  UNL     1      28.292   0.406  53.730  1.00  0.00     0.084 N 
HETATM   24  C17 UNL     1      29.250   1.362  54.259  1.00  0.00     0.309 C 
HETATM   25  C18 UNL     1      27.272   0.108  54.703  1.00  0.00     0.274 C 
HETATM   26  C19 UNL     1      26.118   1.101  54.490  1.00  0.00     0.062 C 
ENDBRANCH  19  20
ENDBRANCH   9  19
BRANCH   8  27
HETATM   27  O1  UNL     1      22.545  -0.334  53.777  1.00  0.00    -0.353 OA
HETATM   28  C12 UNL     1      21.611  -1.309  54.174  1.00  0.00     0.210 C 
ENDBRANCH   8  27
TORSDOF 7
ENDMDL
MODEL 4
REMARK VINA RESULT:      -7.2      3.465      6.232
REMARK  7 active torsions:
REMARK  status: ('A' for Active; 'I' for Inactive)
REMARK    1  A    between atoms: C2_2  and  C3_4 
REMARK    2  A    between atoms: C4_6  and  C5_7 
REMARK    3  A    between atoms: C5_7  and  N1_8 
REMARK    4  A    between atoms: N1_8  and  C6_9 
REMARK    5  A    between atoms: C11_16  and  O1_17 
REMARK    6  A    between atoms: C13_19  and  O2_20 
REMARK    7  A    between atoms: O2_20  and  C14_21 
ROOT
HETATM    1  C6  UNL     1      25.462   3.421  50.460  1.00  0.00     0.165 A 
HETATM    2  N2  UNL     1      26.744   3.386  50.065  1.00  0.00    -0.222 NA
HETATM    3  C7  UNL     1      27.205   4.300  49.162  1.00  0.00     0.236 A 
HETATM    4  N3  UNL     1      26.351   5.208  48.697  1.00  0.00    -0.241 NA
HETATM    5  C8  UNL     1      25.061   5.276  49.066  1.00  0.00     0.075 A 
HETATM    6  C9  UNL     1      24.157   6.207  48.603  1.00  0.00     0.035 A 
HETATM    7  C10 UNL     1      22.839   6.172  49.070  1.00  0.00     0.042 A 
HETATM    8  C11 UNL     1      22.427   5.209  49.998  1.00  0.00     0.102 A 
HETATM    9  C13 UNL     1      23.321   4.243  50.492  1.00  0.00     0.119 A 
HETATM   10  C20 UNL     1      24.587   4.361  49.974  1.00  0.00     0.077 A 
ENDROOT
BRANCH   1  11
HETATM   11  N1  UNL     1      25.143   2.410  51.402  1.00  0.00    -0.244 NA
BRANCH  11  12
HETATM   12  C5  UNL     1      26.022   1.479  51.700  1.00  0.00     0.104 C 
BRANCH  12  13
HETATM   13  C4  UNL     1      26.747   0.351  52.242  1.00  0.00     0.105 C 
HETATM   14  C3  UNL     1      26.999  -0.892  52.501  1.00  0.00     0.121 C 
HETATM   15  F1  UNL     1      26.674  -2.185  52.408  1.00  0.00    -0.208 F 
BRANCH  14  16
HETATM   16  C2  UNL     1      28.223  -0.630  53.236  1.00  0.00     0.044 A 
HETATM   17  C1  UNL     1      28.504  -0.118  54.414  1.00  0.00     0.155 A 
HETATM   18 CL1  UNL     1      29.927  -0.585  53.545  1.00  0.00    -0.179 Cl
ENDBRANCH  14  16
ENDBRANCH  12  13
ENDBRANCH  11  12
ENDBRANCH   1  11
BRANCH   9  19
HETATM   19  O2  UNL     1      22.749   3.389  51.381  1.00  0.00    -0.342 OA
BRANCH  19  20
HETATM   20  C14 UNL     1      21.682   2.521  51.246  1.00  0.00     0.132 C 
HETATM   21  C15 UNL     1      22.045   1.127  50.884  1.00  0.00     0.062 C 
HETATM   22  C16 UNL     1      21.969   0.166  52.068  1.00  0.00     0.274 C 
HETATM   23  N4  UNL     1      20.584   0.027  52.457  1.00  0.00     0.084 N 
HETATM   24  C17 UNL     1      20.456  -0.421  53.833  1.00  0.00     0.309 C 
HETATM   25  C18 UNL     1      19.867   1.260  52.249  1.00  0.00     0.274 C 
HETATM   26  C19 UNL     1      20.840   2.418  52.521  1.00  0.00     0.062 C 
ENDBRANCH  19  20
ENDBRANCH   9  19
BRANCH   8  27
HETATM   27  O1  UNL     1      21.098   5.283  50.384  1.00  0.00    -0.353 OA
HETATM   28  C12 UNL     1      20.167   5.861  49.501  1.00  0.00     0.210 C 
ENDBRANCH   8  27
TORSDOF 7
ENDMDL
MODEL 5
REMARK VINA RESULT:      -7.1      2.576      3.528
REMARK  7 active torsions:
REMARK  status: ('A' for Active; 'I' for Inactive)
REMARK    1  A    between atoms: C2_2  and  C3_4 
REMARK    2  A    between atoms: C4_6  and  C5_7 
REMARK    3  A    between atoms: C5_7  and  N1_8 
REMARK    4  A    between atoms: N1_8  and  C6_9 
REMARK    5  A    between atoms: C11_16  and  O1_17 
REMARK    6  A    between atoms: C13_19  and  O2_20 
REMARK    7  A    between atoms: O2_20  and  C14_21 
ROOT
HETATM    1  C6  UNL     1      23.260   0.879  51.908  1.00  0.00     0.165 A 
HETATM    2  N2  UNL     1      24.579   0.926  52.147  1.00  0.00    -0.222 NA
HETATM    3  C7  UNL     1      25.102   0.272  53.225  1.00  0.00     0.236 A 
HETATM    4  N3  UNL     1      24.268  -0.400  54.015  1.00  0.00    -0.241 NA
HETATM    5  C8  UNL     1      22.942  -0.472  53.810  1.00  0.00     0.075 A 
HETATM    6  C9  UNL     1      22.058  -1.163  54.610  1.00  0.00     0.035 A 
HETATM    7  C10 UNL     1      20.698  -1.162  54.285  1.00  0.00     0.042 A 
HETATM    8  C11 UNL     1      20.223  -0.471  53.164  1.00  0.00     0.102 A 
HETATM    9  C13 UNL     1      21.095   0.246  52.327  1.00  0.00     0.119 A 
HETATM   10  C20 UNL     1      22.407   0.183  52.729  1.00  0.00     0.077 A 
ENDROOT
BRANCH   1  11
HETATM   11  N1  UNL     1      22.877   1.605  50.751  1.00  0.00    -0.244 NA
BRANCH  11  12
HETATM   12  C5  UNL     1      23.697   2.484  50.219  1.00  0.00     0.104 C 
BRANCH  12  13
HETATM   13  C4  UNL     1      24.360   3.674  49.733  1.00  0.00     0.105 C 
HETATM   14  C3  UNL     1      24.469   4.899  49.328  1.00  0.00     0.121 C 
HETATM   15  F1  UNL     1      23.911   6.081  49.048  1.00  0.00    -0.208 F 
BRANCH  14  16
HETATM   16  C2  UNL     1      25.902   4.841  49.107  1.00  0.00     0.044 A 
HETATM   17  C1  UNL     1      26.847   3.970  49.382  1.00  0.00     0.155 A 
HETATM   18 CL1  UNL     1      27.462   5.370  48.568  1.00  0.00    -0.179 Cl
ENDBRANCH  14  16
ENDBRANCH  12  13
ENDBRANCH  11  12
ENDBRANCH   1  11
BRANCH   9  19
HETATM   19  O2  UNL     1      20.462   0.855  51.291  1.00  0.00    -0.342 OA
BRANCH  19  20
HETATM   20  C14 UNL     1      19.608   1.942  51.263  1.00  0.00     0.132 C 
HETATM   21  C15 UNL     1      19.996   3.073  52.144  1.00  0.00     0.062 C 
HETATM   22  C16 UNL     1      20.618   4.237  51.378  1.00  0.00     0.274 C 
HETATM   23  N4  UNL     1      19.598   4.837  50.549  1.00  0.00     0.084 N 
HETATM   24  C17 UNL     1      20.175   5.575  49.438  1.00  0.00     0.309 C 
HETATM   25  C18 UNL     1      18.670   3.840  50.076  1.00  0.00     0.274 C 
HETATM   26  C19 UNL     1      19.455   2.536  49.859  1.00  0.00     0.062 C 
ENDBRANCH  19  20
ENDBRANCH   9  19
BRANCH   8  27
HETATM   27  O1  UNL     1      18.857  -0.550  52.950  1.00  0.00    -0.353 OA
HETATM   28  C12 UNL     1      18.155  -1.663  53.450  1.00  0.00     0.210 C 
ENDBRANCH   8  27
TORSDOF 7
ENDMDL
MODEL 6
REMARK VINA RESULT:      -6.7      5.812      9.091
REMARK  7 active torsions:
REMARK  status: ('A' for Active; 'I' for Inactive)
REMARK    1  A    between atoms: C2_2  and  C3_4 
REMARK    2  A    between atoms: C4_6  and  C5_7 
REMARK    3  A    between atoms: C5_7  and  N1_8 
REMARK    4  A    between atoms: N1_8  and  C6_9 
REMARK    5  A    between atoms: C11_16  and  O1_17 
REMARK    6  A    between atoms: C13_19  and  O2_20 
REMARK    7  A    between atoms: O2_20  and  C14_21 
ROOT
HETATM    1  C6  UNL     1      27.902   6.079  48.420  1.00  0.00     0.165 A 
HETATM    2  N2  UNL     1      27.835   4.746  48.558  1.00  0.00    -0.222 NA
HETATM    3  C7  UNL     1      26.811   4.184  49.263  1.00  0.00     0.236 A 
HETATM    4  N3  UNL     1      25.899   4.992  49.798  1.00  0.00    -0.241 NA
HETATM    5  C8  UNL     1      25.930   6.331  49.682  1.00  0.00     0.075 A 
HETATM    6  C9  UNL     1      24.998   7.189  50.223  1.00  0.00     0.035 A 
HETATM    7  C10 UNL     1      25.143   8.567  50.027  1.00  0.00     0.042 A 
HETATM    8  C11 UNL     1      26.217   9.083  49.293  1.00  0.00     0.102 A 
HETATM    9  C13 UNL     1      27.188   8.237  48.728  1.00  0.00     0.119 A 
HETATM   10  C20 UNL     1      26.957   6.907  48.975  1.00  0.00     0.077 A 
ENDROOT
BRANCH   1  11
HETATM   11  N1  UNL     1      29.021   6.505  47.659  1.00  0.00    -0.244 NA
BRANCH  11  12
HETATM   12  C5  UNL     1      30.208   5.984  47.878  1.00  0.00     0.104 C 
BRANCH  12  13
HETATM   13  C4  UNL     1      31.407   5.175  47.897  1.00  0.00     0.105 C 
HETATM   14  C3  UNL     1      32.640   4.876  48.153  1.00  0.00     0.121 C 
HETATM   15  F1  UNL     1      33.829   5.201  48.670  1.00  0.00    -0.208 F 
BRANCH  14  16
HETATM   16  C2  UNL     1      32.585   3.556  47.553  1.00  0.00     0.044 A 
HETATM   17  C1  UNL     1      32.002   3.045  46.490  1.00  0.00     0.155 A 
HETATM   18 CL1  UNL     1      32.911   1.863  47.372  1.00  0.00    -0.179 Cl
ENDBRANCH  14  16
ENDBRANCH  12  13
ENDBRANCH  11  12
ENDBRANCH   1  11
BRANCH   9  19
HETATM   19  O2  UNL     1      28.156   8.910  48.054  1.00  0.00    -0.342 OA
BRANCH  19  20
HETATM   20  C14 UNL     1      29.010   9.919  48.459  1.00  0.00     0.132 C 
HETATM   21  C15 UNL     1      30.259   9.461  49.120  1.00  0.00     0.062 C 
HETATM   22  C16 UNL     1      31.480   9.544  48.207  1.00  0.00     0.274 C 
HETATM   23  N4  UNL     1      31.765  10.938  47.951  1.00  0.00     0.084 N 
HETATM   24  C17 UNL     1      32.537  11.111  46.733  1.00  0.00     0.309 C 
HETATM   25  C18 UNL     1      30.549  11.711  47.903  1.00  0.00     0.274 C 
HETATM   26  C19 UNL     1      29.452  10.818  47.301  1.00  0.00     0.062 C 
ENDBRANCH  19  20
ENDBRANCH   9  19
BRANCH   8  27
HETATM   27  O1  UNL     1      26.246  10.463  49.169  1.00  0.00    -0.353 OA
HETATM   28  C12 UNL     1      25.500  11.066  48.139  1.00  0.00     0.210 C 
ENDBRANCH   8  27
TORSDOF 7
ENDMDL
MODEL 7
REMARK VINA RESULT:      -6.5      4.456      7.150
REMARK  7 active torsions:
REMARK  status: ('A' for Active; 'I' for Inactive)
REMARK    1  A    between atoms: C2_2  and  C3_4 
REMARK    2  A    between atoms: C4_6  and  C5_7 
REMARK    3  A    between atoms: C5_7  and  N1_8 
REMARK    4  A    between atoms: N1_8  and  C6_9 
REMARK    5  A    between atoms: C11_16  and  O1_17 
REMARK    6  A    between atoms: C13_19  and  O2_20 
REMARK    7  A    between atoms: O2_20  and  C14_21 
ROOT
HETATM    1  C6  UNL     1      20.375   0.062  53.081  1.00  0.00     0.165 A 
HETATM    2  N2  UNL     1      20.307  -1.014  53.880  1.00  0.00    -0.222 NA
HETATM    3  C7  UNL     1      19.212  -1.827  53.838  1.00  0.00     0.236 A 
HETATM    4  N3  UNL     1      18.233  -1.518  52.990  1.00  0.00    -0.241 NA
HETATM    5  C8  UNL     1      18.263  -0.450  52.175  1.00  0.00     0.075 A 
HETATM    6  C9  UNL     1      17.266  -0.109  51.287  1.00  0.00     0.035 A 
HETATM    7  C10 UNL     1      17.421   1.029  50.490  1.00  0.00     0.042 A 
HETATM    8  C11 UNL     1      18.569   1.824  50.579  1.00  0.00     0.102 A 
HETATM    9  C13 UNL     1      19.606   1.508  51.474  1.00  0.00     0.119 A 
HETATM   10  C20 UNL     1      19.360   0.375  52.210  1.00  0.00     0.077 A 
ENDROOT
BRANCH   1  11
HETATM   11  N1  UNL     1      21.576   0.800  53.243  1.00  0.00    -0.244 NA
BRANCH  11  12
HETATM   12  C5  UNL     1      22.729   0.176  53.340  1.00  0.00     0.104 C 
BRANCH  12  13
HETATM   13  C4  UNL     1      24.081  -0.242  53.639  1.00  0.00     0.105 C 
HETATM   14  C3  UNL     1      25.121  -0.483  54.370  1.00  0.00     0.121 C 
HETATM   15  F1  UNL     1      25.720  -0.498  55.566  1.00  0.00    -0.208 F 
BRANCH  14  16
HETATM   16  C2  UNL     1      25.953  -0.945  53.275  1.00  0.00     0.044 A 
HETATM   17  C1  UNL     1      26.535  -0.367  52.247  1.00  0.00     0.155 A 
HETATM   18 CL1  UNL     1      26.833  -2.072  52.297  1.00  0.00    -0.179 Cl
ENDBRANCH  14  16
ENDBRANCH  12  13
ENDBRANCH  11  12
ENDBRANCH   1  11
BRANCH   9  19
HETATM   19  O2  UNL     1      20.640   2.388  51.428  1.00  0.00    -0.342 OA
BRANCH  19  20
HETATM   20  C14 UNL     1      21.755   2.435  50.613  1.00  0.00     0.132 C 
HETATM   21  C15 UNL     1      21.907   1.287  49.683  1.00  0.00     0.062 C 
HETATM   22  C16 UNL     1      21.519   1.629  48.247  1.00  0.00     0.274 C 
HETATM   23  N4  UNL     1      22.484   2.571  47.725  1.00  0.00     0.084 N 
HETATM   24  C17 UNL     1      21.942   3.331  46.611  1.00  0.00     0.309 C 
HETATM   25  C18 UNL     1      22.957   3.450  48.765  1.00  0.00     0.274 C 
HETATM   26  C19 UNL     1      21.793   3.692  49.738  1.00  0.00     0.062 C 
ENDBRANCH  19  20
ENDBRANCH   9  19
BRANCH   8  27
HETATM   27  O1  UNL     1      18.603   2.921  49.734  1.00  0.00    -0.353 OA
HETATM   28  C12 UNL     1      18.010   2.815  48.462  1.00  0.00     0.210 C 
ENDBRANCH   8  27
TORSDOF 7
ENDMDL
MODEL 8
REMARK VINA RESULT:      -6.5      6.918     10.404
REMARK  7 active torsions:
REMARK  status: ('A' for Active; 'I' for Inactive)
REMARK    1  A    between atoms: C2_2  and  C3_4 
REMARK    2  A    between atoms: C4_6  and  C5_7 
REMARK    3  A    between atoms: C5_7  and  N1_8 
REMARK    4  A    between atoms: N1_8  and  C6_9 
REMARK    5  A    between atoms: C11_16  and  O1_17 
REMARK    6  A    between atoms: C13_19  and  O2_20 
REMARK    7  A    between atoms: O2_20  and  C14_21 
ROOT
HETATM    1  C6  UNL     1      29.788   6.080  48.454  1.00  0.00     0.165 A 
HETATM    2  N2  UNL     1      29.091   4.933  48.468  1.00  0.00    -0.222 NA
HETATM    3  C7  UNL     1      27.728   4.964  48.520  1.00  0.00     0.236 A 
HETATM    4  N3  UNL     1      27.128   6.152  48.557  1.00  0.00    -0.241 NA
HETATM    5  C8  UNL     1      27.790   7.322  48.545  1.00  0.00     0.075 A 
HETATM    6  C9  UNL     1      27.194   8.563  48.578  1.00  0.00     0.035 A 
HETATM    7  C10 UNL     1      27.998   9.708  48.557  1.00  0.00     0.042 A 
HETATM    8  C11 UNL     1      29.393   9.611  48.503  1.00  0.00     0.102 A 
HETATM    9  C13 UNL     1      30.035   8.361  48.468  1.00  0.00     0.119 A 
HETATM   10  C20 UNL     1      29.162   7.301  48.492  1.00  0.00     0.077 A 
ENDROOT
BRANCH   1  11
HETATM   11  N1  UNL     1      31.191   5.878  48.394  1.00  0.00    -0.244 NA
BRANCH  11  12
HETATM   12  C5  UNL     1      31.689   4.895  47.676  1.00  0.00     0.104 C 
BRANCH  12  13
HETATM   13  C4  UNL     1      32.303   3.679  47.192  1.00  0.00     0.105 C 
HETATM   14  C3  UNL     1      33.234   2.926  46.700  1.00  0.00     0.121 C 
HETATM   15  F1  UNL     1      34.478   2.776  46.232  1.00  0.00    -0.208 F 
BRANCH  14  16
HETATM   16  C2  UNL     1      32.443   1.710  46.707  1.00  0.00     0.044 A 
HETATM   17  C1  UNL     1      31.202   1.411  46.388  1.00  0.00     0.155 A 
HETATM   18 CL1  UNL     1      32.089   0.030  46.943  1.00  0.00    -0.179 Cl
ENDBRANCH  14  16
ENDBRANCH  12  13
ENDBRANCH  11  12
ENDBRANCH   1  11
BRANCH   9  19
HETATM   19  O2  UNL     1      31.389   8.456  48.419  1.00  0.00    -0.342 OA
BRANCH  19  20
HETATM   20  C14 UNL     1      32.230   8.924  47.427  1.00  0.00     0.132 C 
HETATM   21  C15 UNL     1      33.659   8.553  47.582  1.00  0.00     0.062 C 
HETATM   22  C16 UNL     1      34.085   7.423  46.649  1.00  0.00     0.274 C 
HETATM   23  N4  UNL     1      34.046   7.913  45.290  1.00  0.00     0.084 N 
HETATM   24  C17 UNL     1      33.925   6.828  44.332  1.00  0.00     0.309 C 
HETATM   25  C18 UNL     1      32.982   8.871  45.120  1.00  0.00     0.274 C 
HETATM   26  C19 UNL     1      31.820   8.444  46.031  1.00  0.00     0.062 C 
ENDBRANCH  19  20
ENDBRANCH   9  19
BRANCH   8  27
HETATM   27  O1  UNL     1      30.074  10.816  48.484  1.00  0.00    -0.353 OA
HETATM   28  C12 UNL     1      29.346  12.004  48.280  1.00  0.00     0.210 C 
ENDBRANCH   8  27
TORSDOF 7
ENDMDL
MODEL 9
REMARK VINA RESULT:      -6.5      3.551      5.181
REMARK  7 active torsions:
REMARK  status: ('A' for Active; 'I' for Inactive)
REMARK    1  A    between atoms: C2_2  and  C3_4 
REMARK    2  A    between atoms: C4_6  and  C5_7 
REMARK    3  A    between atoms: C5_7  and  N1_8 
REMARK    4  A    between atoms: N1_8  and  C6_9 
REMARK    5  A    between atoms: C11_16  and  O1_17 
REMARK    6  A    between atoms: C13_19  and  O2_20 
REMARK    7  A    between atoms: O2_20  and  C14_21 
ROOT
HETATM    1  C6  UNL     1      21.622   0.485  53.484  1.00  0.00     0.165 A 
HETATM    2  N2  UNL     1      22.590  -0.058  54.238  1.00  0.00    -0.222 NA
HETATM    3  C7  UNL     1      22.384  -1.259  54.853  1.00  0.00     0.236 A 
HETATM    4  N3  UNL     1      21.209  -1.859  54.680  1.00  0.00    -0.241 NA
HETATM    5  C8  UNL     1      20.214  -1.349  53.933  1.00  0.00     0.075 A 
HETATM    6  C9  UNL     1      18.991  -1.950  53.735  1.00  0.00     0.035 A 
HETATM    7  C10 UNL     1      18.039  -1.315  52.931  1.00  0.00     0.042 A 
HETATM    8  C11 UNL     1      18.311  -0.082  52.326  1.00  0.00     0.102 A 
HETATM    9  C13 UNL     1      19.548   0.561  52.507  1.00  0.00     0.119 A 
HETATM   10  C20 UNL     1      20.412  -0.141  53.311  1.00  0.00     0.077 A 
ENDROOT
BRANCH   1  11
HETATM   11  N1  UNL     1      21.993   1.729  52.912  1.00  0.00    -0.244 NA
BRANCH  11  12
HETATM   12  C5  UNL     1      23.237   1.945  52.547  1.00  0.00     0.104 C 
BRANCH  12  13
HETATM   13  C4  UNL     1      24.478   2.143  51.831  1.00  0.00     0.105 C 
HETATM   14  C3  UNL     1      25.673   1.867  51.415  1.00  0.00     0.121 C 
HETATM   15  F1  UNL     1      26.729   1.048  51.383  1.00  0.00    -0.208 F 
BRANCH  14  16
HETATM   16  C2  UNL     1      25.826   3.079  50.633  1.00  0.00     0.044 A 
HETATM   17  C1  UNL     1      26.576   3.434  49.612  1.00  0.00     0.155 A 
HETATM   18 CL1  UNL     1      25.536   4.715  50.140  1.00  0.00    -0.179 Cl
ENDBRANCH  14  16
ENDBRANCH  12  13
ENDBRANCH  11  12
ENDBRANCH   1  11
BRANCH   9  19
HETATM   19  O2  UNL     1      19.635   1.746  51.849  1.00  0.00    -0.342 OA
BRANCH  19  20
HETATM   20  C14 UNL     1      19.705   2.031  50.498  1.00  0.00     0.132 C 
HETATM   21  C15 UNL     1      19.977   3.453  50.166  1.00  0.00     0.062 C 
HETATM   22  C16 UNL     1      21.420   3.697  49.733  1.00  0.00     0.274 C 
HETATM   23  N4  UNL     1      21.633   3.043  48.462  1.00  0.00     0.084 N 
HETATM   24  C17 UNL     1      23.042   2.775  48.226  1.00  0.00     0.309 C 
HETATM   25  C18 UNL     1      20.858   1.831  48.372  1.00  0.00     0.274 C 
HETATM   26  C19 UNL     1      20.785   1.217  49.779  1.00  0.00     0.062 C 
ENDBRANCH  19  20
ENDBRANCH   9  19
BRANCH   8  27
HETATM   27  O1  UNL     1      17.288   0.440  51.552  1.00  0.00    -0.353 OA
HETATM   28  C12 UNL     1      16.254  -0.416  51.127  1.00  0.00     0.210 C 
ENDBRANCH   8  27
TORSDOF 7
ENDMDL
