MODEL 1
REMARK VINA RESULT:      -7.1      0.000      0.000
REMARK  4 active torsions:
REMARK  status: ('A' for Active; 'I' for Inactive)
REMARK    1  A    between atoms: N1_3  and  C3_4 
REMARK    2  A    between atoms: C3_4  and  C4_5 
REMARK    3  A    between atoms: C6_9  and  C7_10 
REMARK    4  A    between atoms: C9_12  and  N4_13 
ROOT
HETATM    1  C4  UNL     1      25.336   1.282  51.906  1.00  0.00     0.093 A 
HETATM    2  N2  UNL     1      24.080   1.677  51.643  1.00  0.00    -0.242 NA
HETATM    3  C5  UNL     1      23.043   1.257  52.356  1.00  0.00     0.233 A 
HETATM    4  N3  UNL     1      23.198   0.421  53.373  1.00  0.00    -0.244 NA
HETATM    5  C6  UNL     1      24.381  -0.042  53.736  1.00  0.00     0.073 A 
HETATM    6  C9  UNL     1      25.488   0.394  52.985  1.00  0.00     0.203 A 
ENDROOT
BRANCH   6   7
HETATM    7  N4  UNL     1      26.904  -0.124  53.321  1.00  0.00     0.079 N 
HETATM    8  C10 UNL     1      26.812  -1.441  52.472  1.00  0.00     0.263 A 
HETATM    9  C11 UNL     1      27.904  -2.399  52.548  1.00  0.00     0.041 A 
HETATM   10  C12 UNL     1      29.317  -2.239  53.383  1.00  0.00     0.089 A 
HETATM   11  C13 UNL     1      28.753  -1.027  53.769  1.00  0.00    -0.112 A 
HETATM   12  C14 UNL     1      28.321  -0.146  54.038  1.00  0.00     0.269 A 
HETATM   13  C15 UNL     1      27.770   0.927  54.351  1.00  0.00     0.397 A 
HETATM   14  O1  UNL     1      26.905   1.810  54.397  1.00  0.00    -0.256 OA
ENDBRANCH   6   7
BRANCH   1  15
HETATM   15  C3  UNL     1      26.473   1.791  51.129  1.00  0.00     0.209 C 
BRANCH  15  16
HETATM   16  N1  UNL     1      26.163   3.162  50.729  1.00  0.00    -0.300 NA
HETATM   17  C2  UNL     1      26.553   3.530  49.567  1.00  0.00     0.079 C 
HETATM   18  C1  UNL     1      26.223   4.923  49.192  1.00  0.00     0.056 C 
ENDBRANCH  15  16
ENDBRANCH   1  15
BRANCH   5  19
HETATM   19  C7  UNL     1      24.472  -0.930  54.913  1.00  0.00     0.057 C 
HETATM   20  C8  UNL     1      23.056  -1.320  55.305  1.00  0.00     0.011 C 
ENDBRANCH   5  19
TORSDOF 4
ENDMDL
MODEL 2
REMARK VINA RESULT:      -6.4      1.135      4.286
REMARK  4 active torsions:
REMARK  status: ('A' for Active; 'I' for Inactive)
REMARK    1  A    between atoms: N1_3  and  C3_4 
REMARK    2  A    between atoms: C3_4  and  C4_5 
REMARK    3  A    between atoms: C6_9  and  C7_10 
REMARK    4  A    between atoms: C9_12  and  N4_13 
ROOT
HETATM    1  C4  UNL     1      24.058   0.779  52.814  1.00  0.00     0.093 A 
HETATM    2  N2  UNL     1      22.980   1.348  52.249  1.00  0.00    -0.242 NA
HETATM    3  C5  UNL     1      23.083   2.253  51.285  1.00  0.00     0.233 A 
HETATM    4  N3  UNL     1      24.263   2.644  50.827  1.00  0.00    -0.244 NA
HETATM    5  C6  UNL     1      25.401   2.161  51.297  1.00  0.00     0.073 A 
HETATM    6  C9  UNL     1      25.305   1.201  52.322  1.00  0.00     0.203 A 
ENDROOT
BRANCH   6   7
HETATM    7  N4  UNL     1      26.585   0.610  52.951  1.00  0.00     0.079 N 
HETATM    8  C10 UNL     1      26.657  -0.663  52.035  1.00  0.00     0.263 A 
HETATM    9  C11 UNL     1      27.670  -1.668  52.312  1.00  0.00     0.041 A 
HETATM   10  C12 UNL     1      28.850  -1.605  53.463  1.00  0.00     0.089 A 
HETATM   11  C13 UNL     1      28.248  -0.389  53.771  1.00  0.00    -0.112 A 
HETATM   12  C14 UNL     1      27.791   0.495  53.978  1.00  0.00     0.269 A 
HETATM   13  C15 UNL     1      27.214   1.576  54.211  1.00  0.00     0.397 A 
HETATM   14  O1  UNL     1      26.389   2.490  54.100  1.00  0.00    -0.256 OA
ENDBRANCH   6   7
BRANCH   1  15
HETATM   15  C3  UNL     1      23.919  -0.250  53.851  1.00  0.00     0.209 C 
BRANCH  15  16
HETATM   16  N1  UNL     1      22.666  -0.962  53.610  1.00  0.00    -0.300 NA
HETATM   17  C2  UNL     1      21.849  -1.048  54.591  1.00  0.00     0.079 C 
HETATM   18  C1  UNL     1      20.589  -1.775  54.314  1.00  0.00     0.056 C 
ENDBRANCH  15  16
ENDBRANCH   1  15
BRANCH   5  19
HETATM   19  C7  UNL     1      26.673   2.611  50.696  1.00  0.00     0.057 C 
HETATM   20  C8  UNL     1      26.335   3.613  49.603  1.00  0.00     0.011 C 
ENDBRANCH   5  19
TORSDOF 4
ENDMDL
MODEL 3
REMARK VINA RESULT:      -6.3      2.177      5.308
REMARK  4 active torsions:
REMARK  status: ('A' for Active; 'I' for Inactive)
REMARK    1  A    between atoms: N1_3  and  C3_4 
REMARK    2  A    between atoms: C3_4  and  C4_5 
REMARK    3  A    between atoms: C6_9  and  C7_10 
REMARK    4  A    between atoms: C9_12  and  N4_13 
ROOT
HETATM    1  C4  UNL     1      24.738   1.795  52.966  1.00  0.00     0.093 A 
HETATM    2  N2  UNL     1      24.241   0.699  53.563  1.00  0.00    -0.242 NA
HETATM    3  C5  UNL     1      23.208   0.031  53.068  1.00  0.00     0.233 A 
HETATM    4  N3  UNL     1      22.611   0.414  51.948  1.00  0.00    -0.244 NA
HETATM    5  C6  UNL     1      23.002   1.474  51.263  1.00  0.00     0.073 A 
HETATM    6  C9  UNL     1      24.095   2.193  51.781  1.00  0.00     0.203 A 
ENDROOT
BRANCH   6   7
HETATM    7  N4  UNL     1      24.597   3.465  51.061  1.00  0.00     0.079 N 
HETATM    8  C10 UNL     1      25.693   2.752  50.193  1.00  0.00     0.263 A 
HETATM    9  C11 UNL     1      26.581   3.568  49.382  1.00  0.00     0.041 A 
HETATM   10  C12 UNL     1      26.535   5.205  49.188  1.00  0.00     0.089 A 
HETATM   11  C13 UNL     1      25.474   5.110  50.083  1.00  0.00    -0.112 A 
HETATM   12  C14 UNL     1      24.701   5.016  50.737  1.00  0.00     0.269 A 
HETATM   13  C15 UNL     1      23.757   4.873  51.540  1.00  0.00     0.397 A 
HETATM   14  O1  UNL     1      22.957   4.302  52.289  1.00  0.00    -0.256 OA
ENDBRANCH   6   7
BRANCH   1  15
HETATM   15  C3  UNL     1      25.906   2.495  53.511  1.00  0.00     0.209 C 
BRANCH  15  16
HETATM   16  N1  UNL     1      26.640   1.553  54.352  1.00  0.00    -0.300 NA
HETATM   17  C2  UNL     1      27.780   1.157  53.924  1.00  0.00     0.079 C 
HETATM   18  C1  UNL     1      28.498   0.203  54.799  1.00  0.00     0.056 C 
ENDBRANCH  15  16
ENDBRANCH   1  15
BRANCH   5  19
HETATM   19  C7  UNL     1      22.314   1.803  49.998  1.00  0.00     0.057 C 
HETATM   20  C8  UNL     1      21.189   0.798  49.812  1.00  0.00     0.011 C 
ENDBRANCH   5  19
TORSDOF 4
ENDMDL
MODEL 4
REMARK VINA RESULT:      -6.1      3.410      6.318
REMARK  4 active torsions:
REMARK  status: ('A' for Active; 'I' for Inactive)
REMARK    1  A    between atoms: N1_3  and  C3_4 
REMARK    2  A    between atoms: C3_4  and  C4_5 
REMARK    3  A    between atoms: C6_9  and  C7_10 
REMARK    4  A    between atoms: C9_12  and  N4_13 
ROOT
HETATM    1  C4  UNL     1      22.385   0.605  53.109  1.00  0.00     0.093 A 
HETATM    2  N2  UNL     1      22.529  -0.230  54.151  1.00  0.00    -0.242 NA
HETATM    3  C5  UNL     1      21.536  -0.997  54.583  1.00  0.00     0.233 A 
HETATM    4  N3  UNL     1      20.345  -0.977  54.003  1.00  0.00    -0.244 NA
HETATM    5  C6  UNL     1      20.073  -0.201  52.969  1.00  0.00     0.073 A 
HETATM    6  C9  UNL     1      21.117   0.619  52.502  1.00  0.00     0.203 A 
ENDROOT
BRANCH   6   7
HETATM    7  N4  UNL     1      20.876   1.582  51.319  1.00  0.00     0.079 N 
HETATM    8  C10 UNL     1      21.346   0.595  50.193  1.00  0.00     0.263 A 
HETATM    9  C11 UNL     1      21.431   1.083  48.826  1.00  0.00     0.041 A 
HETATM   10  C12 UNL     1      21.008   2.577  48.271  1.00  0.00     0.089 A 
HETATM   11  C13 UNL     1      20.716   2.805  49.612  1.00  0.00    -0.112 A 
HETATM   12  C14 UNL     1      20.510   2.949  50.597  1.00  0.00     0.269 A 
HETATM   13  C15 UNL     1      20.263   3.099  51.810  1.00  0.00     0.397 A 
HETATM   14  O1  UNL     1      20.170   2.821  53.011  1.00  0.00    -0.256 OA
ENDBRANCH   6   7
BRANCH   1  15
HETATM   15  C3  UNL     1      23.509   1.415  52.622  1.00  0.00     0.209 C 
BRANCH  15  16
HETATM   16  N1  UNL     1      24.745   0.777  53.068  1.00  0.00    -0.300 NA
HETATM   17  C2  UNL     1      25.606   0.485  52.167  1.00  0.00     0.079 C 
HETATM   18  C1  UNL     1      26.847  -0.159  52.650  1.00  0.00     0.056 C 
ENDBRANCH  15  16
ENDBRANCH   1  15
BRANCH   5  19
HETATM   19  C7  UNL     1      18.735  -0.276  52.348  1.00  0.00     0.057 C 
HETATM   20  C8  UNL     1      17.923  -1.296  53.131  1.00  0.00     0.011 C 
ENDBRANCH   5  19
TORSDOF 4
ENDMDL
MODEL 5
REMARK VINA RESULT:      -6.1      2.570      5.358
REMARK  4 active torsions:
REMARK  status: ('A' for Active; 'I' for Inactive)
REMARK    1  A    between atoms: N1_3  and  C3_4 
REMARK    2  A    between atoms: C3_4  and  C4_5 
REMARK    3  A    between atoms: C6_9  and  C7_10 
REMARK    4  A    between atoms: C9_12  and  N4_13 
ROOT
HETATM    1  C4  UNL     1      25.784   2.988  50.772  1.00  0.00     0.093 A 
HETATM    2  N2  UNL     1      26.917   2.407  51.201  1.00  0.00    -0.242 NA
HETATM    3  C5  UNL     1      26.915   1.441  52.110  1.00  0.00     0.233 A 
HETATM    4  N3  UNL     1      25.786   0.997  52.644  1.00  0.00    -0.244 NA
HETATM    5  C6  UNL     1      24.604   1.484  52.308  1.00  0.00     0.073 A 
HETATM    6  C9  UNL     1      24.593   2.511  51.346  1.00  0.00     0.203 A 
ENDROOT
BRANCH   6   7
HETATM    7  N4  UNL     1      23.257   3.159  50.921  1.00  0.00     0.079 N 
HETATM    8  C10 UNL     1      22.953   2.170  49.740  1.00  0.00     0.263 A 
HETATM    9  C11 UNL     1      21.803   2.430  48.890  1.00  0.00     0.041 A 
HETATM   10  C12 UNL     1      20.688   3.633  49.057  1.00  0.00     0.089 A 
HETATM   11  C13 UNL     1      21.487   3.989  50.140  1.00  0.00    -0.112 A 
HETATM   12  C14 UNL     1      22.085   4.230  50.926  1.00  0.00     0.269 A 
HETATM   13  C15 UNL     1      22.834   4.504  51.885  1.00  0.00     0.397 A 
HETATM   14  O1  UNL     1      23.789   4.412  52.665  1.00  0.00    -0.256 OA
ENDBRANCH   6   7
BRANCH   1  15
HETATM   15  C3  UNL     1      25.807   4.027  49.736  1.00  0.00     0.209 C 
BRANCH  15  16
HETATM   16  N1  UNL     1      27.194   4.208  49.315  1.00  0.00    -0.300 NA
HETATM   17  C2  UNL     1      27.460   5.252  48.624  1.00  0.00     0.079 C 
HETATM   18  C1  UNL     1      28.874   5.406  48.214  1.00  0.00     0.056 C 
ENDBRANCH  15  16
ENDBRANCH   1  15
BRANCH   5  19
HETATM   19  C7  UNL     1      23.390   0.898  52.913  1.00  0.00     0.057 C 
HETATM   20  C8  UNL     1      23.756  -0.484  53.430  1.00  0.00     0.011 C 
ENDBRANCH   5  19
TORSDOF 4
ENDMDL
MODEL 6
REMARK VINA RESULT:      -6.1      2.408      4.963
REMARK  4 active torsions:
REMARK  status: ('A' for Active; 'I' for Inactive)
REMARK    1  A    between atoms: N1_3  and  C3_4 
REMARK    2  A    between atoms: C3_4  and  C4_5 
REMARK    3  A    between atoms: C6_9  and  C7_10 
REMARK    4  A    between atoms: C9_12  and  N4_13 
ROOT
HETATM    1  C4  UNL     1      25.246   0.908  52.336  1.00  0.00     0.093 A 
HETATM    2  N2  UNL     1      25.488  -0.175  53.093  1.00  0.00    -0.242 NA
HETATM    3  C5  UNL     1      24.535  -0.771  53.798  1.00  0.00     0.233 A 
HETATM    4  N3  UNL     1      23.288  -0.324  53.789  1.00  0.00    -0.244 NA
HETATM    5  C6  UNL     1      22.918   0.733  53.085  1.00  0.00     0.073 A 
HETATM    6  C9  UNL     1      23.921   1.375  52.336  1.00  0.00     0.203 A 
ENDROOT
BRANCH   6   7
HETATM    7  N4  UNL     1      23.583   2.637  51.511  1.00  0.00     0.079 N 
HETATM    8  C10 UNL     1      23.159   1.881  50.203  1.00  0.00     0.263 A 
HETATM    9  C11 UNL     1      22.848   2.660  49.015  1.00  0.00     0.041 A 
HETATM   10  C12 UNL     1      22.807   4.303  48.881  1.00  0.00     0.089 A 
HETATM   11  C13 UNL     1      23.193   4.251  50.217  1.00  0.00    -0.112 A 
HETATM   12  C14 UNL     1      23.475   4.189  51.192  1.00  0.00     0.269 A 
HETATM   13  C15 UNL     1      23.819   4.085  52.386  1.00  0.00     0.397 A 
HETATM   14  O1  UNL     1      24.132   3.544  53.453  1.00  0.00    -0.256 OA
ENDBRANCH   6   7
BRANCH   1  15
HETATM   15  C3  UNL     1      26.308   1.527  51.533  1.00  0.00     0.209 C 
BRANCH  15  16
HETATM   16  N1  UNL     1      27.546   1.466  52.306  1.00  0.00    -0.300 NA
HETATM   17  C2  UNL     1      27.762   2.417  53.134  1.00  0.00     0.079 C 
HETATM   18  C1  UNL     1      29.024   2.325  53.901  1.00  0.00     0.056 C 
ENDBRANCH  15  16
ENDBRANCH   1  15
BRANCH   5  19
HETATM   19  C7  UNL     1      21.497   1.135  53.090  1.00  0.00     0.057 C 
HETATM   20  C8  UNL     1      20.810   0.381  54.218  1.00  0.00     0.011 C 
ENDBRANCH   5  19
TORSDOF 4
ENDMDL
MODEL 7
REMARK VINA RESULT:      -6.0      2.776      6.847
REMARK  4 active torsions:
REMARK  status: ('A' for Active; 'I' for Inactive)
REMARK    1  A    between atoms: N1_3  and  C3_4 
REMARK    2  A    between atoms: C3_4  and  C4_5 
REMARK    3  A    between atoms: C6_9  and  C7_10 
REMARK    4  A    between atoms: C9_12  and  N4_13 
ROOT
HETATM    1  C4  UNL     1      24.411   1.623  51.706  1.00  0.00     0.093 A 
HETATM    2  N2  UNL     1      25.576   1.057  52.062  1.00  0.00    -0.242 NA
HETATM    3  C5  UNL     1      26.748   1.577  51.718  1.00  0.00     0.233 A 
HETATM    4  N3  UNL     1      26.826   2.690  51.002  1.00  0.00    -0.244 NA
HETATM    5  C6  UNL     1      25.754   3.344  50.590  1.00  0.00     0.073 A 
HETATM    6  C9  UNL     1      24.506   2.801  50.946  1.00  0.00     0.203 A 
ENDROOT
BRANCH   6   7
HETATM    7  N4  UNL     1      23.202   3.484  50.477  1.00  0.00     0.079 N 
HETATM    8  C10 UNL     1      23.060   2.682  49.134  1.00  0.00     0.263 A 
HETATM    9  C11 UNL     1      22.000   3.050  48.210  1.00  0.00     0.041 A 
HETATM   10  C12 UNL     1      20.833   4.193  48.432  1.00  0.00     0.089 A 
HETATM   11  C13 UNL     1      21.498   4.392  49.638  1.00  0.00    -0.112 A 
HETATM   12  C14 UNL     1      21.999   4.520  50.513  1.00  0.00     0.269 A 
HETATM   13  C15 UNL     1      22.632   4.656  51.579  1.00  0.00     0.397 A 
HETATM   14  O1  UNL     1      23.500   4.463  52.438  1.00  0.00    -0.256 OA
ENDBRANCH   6   7
BRANCH   1  15
HETATM   15  C3  UNL     1      23.127   1.052  52.131  1.00  0.00     0.209 C 
BRANCH  15  16
HETATM   16  N1  UNL     1      23.363   0.279  53.349  1.00  0.00    -0.300 NA
HETATM   17  C2  UNL     1      22.385  -0.416  53.795  1.00  0.00     0.079 C 
HETATM   18  C1  UNL     1      22.657  -1.187  55.028  1.00  0.00     0.056 C 
ENDBRANCH  15  16
ENDBRANCH   1  15
BRANCH   5  19
HETATM   19  C7  UNL     1      25.929   4.605  49.840  1.00  0.00     0.057 C 
HETATM   20  C8  UNL     1      27.181   4.463  48.989  1.00  0.00     0.011 C 
ENDBRANCH   5  19
TORSDOF 4
ENDMDL
MODEL 8
REMARK VINA RESULT:      -6.0      6.835     11.066
REMARK  4 active torsions:
REMARK  status: ('A' for Active; 'I' for Inactive)
REMARK    1  A    between atoms: N1_3  and  C3_4 
REMARK    2  A    between atoms: C3_4  and  C4_5 
REMARK    3  A    between atoms: C6_9  and  C7_10 
REMARK    4  A    between atoms: C9_12  and  N4_13 
ROOT
HETATM    1  C4  UNL     1      30.816   5.845  47.849  1.00  0.00     0.093 A 
HETATM    2  N2  UNL     1      31.269   4.582  47.919  1.00  0.00    -0.242 NA
HETATM    3  C5  UNL     1      32.564   4.297  47.938  1.00  0.00     0.233 A 
HETATM    4  N3  UNL     1      33.483   5.251  47.891  1.00  0.00    -0.244 NA
HETATM    5  C6  UNL     1      33.169   6.534  47.822  1.00  0.00     0.073 A 
HETATM    6  C9  UNL     1      31.798   6.849  47.798  1.00  0.00     0.203 A 
ENDROOT
BRANCH   6   7
HETATM    7  N4  UNL     1      31.343   8.321  47.684  1.00  0.00     0.079 N 
HETATM    8  C10 UNL     1      31.270   8.599  49.227  1.00  0.00     0.263 A 
HETATM    9  C11 UNL     1      30.748   9.878  49.682  1.00  0.00     0.041 A 
HETATM   10  C12 UNL     1      30.276  11.153  48.750  1.00  0.00     0.089 A 
HETATM   11  C13 UNL     1      30.611  10.295  47.707  1.00  0.00    -0.112 A 
HETATM   12  C14 UNL     1      30.863   9.651  46.961  1.00  0.00     0.269 A 
HETATM   13  C15 UNL     1      31.179   8.842  46.066  1.00  0.00     0.397 A 
HETATM   14  O1  UNL     1      31.578   7.793  45.548  1.00  0.00    -0.256 OA
ENDBRANCH   6   7
BRANCH   1  15
HETATM   15  C3  UNL     1      29.378   6.139  47.869  1.00  0.00     0.209 C 
BRANCH  15  16
HETATM   16  N1  UNL     1      28.704   5.032  48.543  1.00  0.00    -0.300 NA
HETATM   17  C2  UNL     1      27.430   5.101  48.642  1.00  0.00     0.079 C 
HETATM   18  C1  UNL     1      26.778   3.964  49.329  1.00  0.00     0.056 C 
ENDBRANCH  15  16
ENDBRANCH   1  15
BRANCH   5  19
HETATM   19  C7  UNL     1      34.253   7.537  47.825  1.00  0.00     0.057 C 
HETATM   20  C8  UNL     1      35.444   6.925  48.545  1.00  0.00     0.011 C 
ENDBRANCH   5  19
TORSDOF 4
ENDMDL
MODEL 9
REMARK VINA RESULT:      -6.0      2.578      6.112
REMARK  4 active torsions:
REMARK  status: ('A' for Active; 'I' for Inactive)
REMARK    1  A    between atoms: N1_3  and  C3_4 
REMARK    2  A    between atoms: C3_4  and  C4_5 
REMARK    3  A    between atoms: C6_9  and  C7_10 
REMARK    4  A    between atoms: C9_12  and  N4_13 
ROOT
HETATM    1  C4  UNL     1      22.796   0.882  52.973  1.00  0.00     0.093 A 
HETATM    2  N2  UNL     1      23.129  -0.202  53.692  1.00  0.00    -0.242 NA
HETATM    3  C5  UNL     1      24.360  -0.697  53.696  1.00  0.00     0.233 A 
HETATM    4  N3  UNL     1      25.331  -0.140  52.987  1.00  0.00    -0.244 NA
HETATM    5  C6  UNL     1      25.135   0.932  52.238  1.00  0.00     0.073 A 
HETATM    6  C9  UNL     1      23.833   1.464  52.223  1.00  0.00     0.203 A 
ENDROOT
BRANCH   6   7
HETATM    7  N4  UNL     1      23.509   2.696  51.348  1.00  0.00     0.079 N 
HETATM    8  C10 UNL     1      23.071   1.893  50.073  1.00  0.00     0.263 A 
HETATM    9  C11 UNL     1      22.767   2.626  48.855  1.00  0.00     0.041 A 
HETATM   10  C12 UNL     1      22.747   4.263  48.654  1.00  0.00     0.089 A 
HETATM   11  C13 UNL     1      23.137   4.261  49.989  1.00  0.00    -0.112 A 
HETATM   12  C14 UNL     1      23.421   4.235  50.966  1.00  0.00     0.269 A 
HETATM   13  C15 UNL     1      23.767   4.175  52.162  1.00  0.00     0.397 A 
HETATM   14  O1  UNL     1      24.076   3.675  53.250  1.00  0.00    -0.256 OA
ENDBRANCH   6   7
BRANCH   1  15
HETATM   15  C3  UNL     1      21.437   1.435  53.014  1.00  0.00     0.209 C 
BRANCH  15  16
HETATM   16  N1  UNL     1      20.540   0.381  53.479  1.00  0.00    -0.300 NA
HETATM   17  C2  UNL     1      19.568   0.063  52.709  1.00  0.00     0.079 C 
HETATM   18  C1  UNL     1      18.678  -1.008  53.208  1.00  0.00     0.056 C 
ENDBRANCH  15  16
ENDBRANCH   1  15
BRANCH   5  19
HETATM   19  C7  UNL     1      26.283   1.522  51.518  1.00  0.00     0.057 C 
HETATM   20  C8  UNL     1      27.263   2.036  52.560  1.00  0.00     0.011 C 
ENDBRANCH   5  19
TORSDOF 4
ENDMDL
