MODEL 1
REMARK VINA RESULT:      -7.4      0.000      0.000
REMARK  8 active torsions:
REMARK  status: ('A' for Active; 'I' for Inactive)
REMARK    1  A    between atoms: O1_2  and  C2_3 
REMARK    2  A    between atoms: C2_3  and  C3_4 
REMARK    3  A    between atoms: C3_4  and  O2_5 
REMARK    4  A    between atoms: C3_4  and  C5_7 
REMARK    5  A    between atoms: C13_17  and  C14_18 
REMARK    6  A    between atoms: C15_19  and  N2_20 
REMARK    7  A    between atoms: N2_20  and  O3_21 
REMARK    8  A    between atoms: O3_21  and  N3_22 
ROOT
HETATM    1  C5  UNL     1      22.976   1.602  52.815  1.00  0.00     0.027 A 
HETATM    2  C6  UNL     1      22.630   0.047  52.978  1.00  0.00     0.056 C 
HETATM    3  C7  UNL     1      23.674  -0.620  53.600  1.00  0.00     0.002 C 
HETATM    4  C8  UNL     1      25.027  -0.568  54.243  1.00  0.00     0.064 C 
HETATM    5  C9  UNL     1      26.265  -0.947  53.482  1.00  0.00     0.031 C 
HETATM    6  N1  UNL     1      27.196  -1.603  52.972  1.00  0.00    -0.304 NA
HETATM    7  C10 UNL     1      26.322   0.568  53.183  1.00  0.00    -0.016 A 
HETATM    8  C11 UNL     1      25.798   1.773  52.999  1.00  0.00     0.127 A 
HETATM    9  C12 UNL     1      24.434   1.969  52.970  1.00  0.00     0.036 A 
HETATM   10 CL1  UNL     1      23.747   3.673  52.735  1.00  0.00    -0.203 Cl
HETATM   11  C13 UNL     1      23.826   3.033  52.818  1.00  0.00     0.056 A 
HETATM   12  C14 UNL     1      25.353   2.678  52.866  1.00  0.00     0.058 A 
HETATM   13  C15 UNL     1      26.680   1.988  52.965  1.00  0.00     0.094 A 
HETATM   14  H13 UNL     1      27.980  -1.253  52.387  1.00  0.00     0.186 HD
ENDROOT
BRANCH   1  15
HETATM   15  C3  UNL     1      21.814   2.022  52.217  1.00  0.00     0.054 C 
BRANCH  15  16
HETATM   16  C2  UNL     1      21.484   1.684  50.810  1.00  0.00     0.227 C 
BRANCH  16  17
HETATM   17  O1  UNL     1      22.650   1.611  50.026  1.00  0.00    -0.390 OA
HETATM   18  C1  UNL     1      22.739   2.686  49.150  1.00  0.00     0.201 C 
ENDBRANCH  16  17
ENDBRANCH  15  16
BRANCH  15  19
HETATM   19  O2  UNL     1      20.691   2.783  52.602  1.00  0.00    -0.362 OA
HETATM   20  C4  UNL     1      20.211   3.747  51.717  1.00  0.00     0.209 C 
ENDBRANCH  15  19
ENDBRANCH   1  15
BRANCH  13  21
HETATM   21  N2  UNL     1      27.941   2.568  52.867  1.00  0.00    -0.268 N 
HETATM   22  H16 UNL     1      28.184   2.704  51.854  1.00  0.00     0.190 HD
BRANCH  21  23
HETATM   23  O3  UNL     1      28.169   2.641  54.203  1.00  0.00    -0.191 OA
BRANCH  23  24
HETATM   24  N3  UNL     1      29.448   2.342  54.528  1.00  0.00    -0.189 NA
HETATM   25  H17 UNL     1      29.736   1.445  54.050  1.00  0.00     0.152 HD
HETATM   26  H18 UNL     1      29.465   2.180  55.553  1.00  0.00     0.152 HD
ENDBRANCH  23  24
ENDBRANCH  21  23
ENDBRANCH  13  21
TORSDOF 8
ENDMDL
MODEL 2
REMARK VINA RESULT:      -7.4      2.052      3.388
REMARK  8 active torsions:
REMARK  status: ('A' for Active; 'I' for Inactive)
REMARK    1  A    between atoms: O1_2  and  C2_3 
REMARK    2  A    between atoms: C2_3  and  C3_4 
REMARK    3  A    between atoms: C3_4  and  O2_5 
REMARK    4  A    between atoms: C3_4  and  C5_7 
REMARK    5  A    between atoms: C13_17  and  C14_18 
REMARK    6  A    between atoms: C15_19  and  N2_20 
REMARK    7  A    between atoms: N2_20  and  O3_21 
REMARK    8  A    between atoms: O3_21  and  N3_22 
ROOT
HETATM    1  C5  UNL     1      23.559   0.960  52.497  1.00  0.00     0.027 A 
HETATM    2  C6  UNL     1      23.748   2.463  51.978  1.00  0.00     0.056 C 
HETATM    3  C7  UNL     1      25.050   2.668  51.548  1.00  0.00     0.002 C 
HETATM    4  C8  UNL     1      26.423   2.116  51.307  1.00  0.00     0.064 C 
HETATM    5  C9  UNL     1      27.535   2.342  52.292  1.00  0.00     0.031 C 
HETATM    6  N1  UNL     1      28.498   2.842  52.907  1.00  0.00    -0.304 NA
HETATM    7  C10 UNL     1      27.062   0.983  52.856  1.00  0.00    -0.016 A 
HETATM    8  C11 UNL     1      26.167   0.035  53.102  1.00  0.00     0.127 A 
HETATM    9  C12 UNL     1      24.833   0.207  52.802  1.00  0.00     0.036 A 
HETATM   10 CL1  UNL     1      23.623  -1.154  53.141  1.00  0.00    -0.203 Cl
HETATM   11  C13 UNL     1      23.909  -0.596  52.972  1.00  0.00     0.056 A 
HETATM   12  C14 UNL     1      25.448  -0.666  53.269  1.00  0.00     0.058 A 
HETATM   13  C15 UNL     1      26.914  -0.383  53.408  1.00  0.00     0.094 A 
HETATM   14  H13 UNL     1      29.001   2.457  53.731  1.00  0.00     0.186 HD
ENDROOT
BRANCH   1  15
HETATM   15  C3  UNL     1      22.228   1.010  52.829  1.00  0.00     0.054 C 
BRANCH  15  16
HETATM   16  C2  UNL     1      21.165   1.169  51.805  1.00  0.00     0.227 C 
BRANCH  16  17
HETATM   17  O1  UNL     1      21.370   0.285  50.729  1.00  0.00    -0.390 OA
HETATM   18  C1  UNL     1      21.304   0.949  49.510  1.00  0.00     0.201 C 
ENDBRANCH  16  17
ENDBRANCH  15  16
BRANCH  15  19
HETATM   19  O2  UNL     1      21.474   0.944  54.019  1.00  0.00    -0.362 OA
HETATM   20  C4  UNL     1      20.401   0.056  54.073  1.00  0.00     0.209 C 
ENDBRANCH  15  19
ENDBRANCH   1  15
BRANCH  13  21
HETATM   21  N2  UNL     1      27.888  -1.224  53.937  1.00  0.00    -0.268 N 
HETATM   22  H16 UNL     1      28.365  -0.742  54.740  1.00  0.00     0.190 HD
BRANCH  21  23
HETATM   23  O3  UNL     1      27.670  -2.254  53.080  1.00  0.00    -0.191 OA
BRANCH  23  24
HETATM   24  N3  UNL     1      28.520  -3.287  53.284  1.00  0.00    -0.189 NA
HETATM   25  H17 UNL     1      28.711  -3.392  54.317  1.00  0.00     0.152 HD
HETATM   26  H18 UNL     1      29.411  -3.037  52.815  1.00  0.00     0.152 HD
ENDBRANCH  23  24
ENDBRANCH  21  23
ENDBRANCH  13  21
TORSDOF 8
ENDMDL
MODEL 3
REMARK VINA RESULT:      -7.4      3.115      5.355
REMARK  8 active torsions:
REMARK  status: ('A' for Active; 'I' for Inactive)
REMARK    1  A    between atoms: O1_2  and  C2_3 
REMARK    2  A    between atoms: C2_3  and  C3_4 
REMARK    3  A    between atoms: C3_4  and  O2_5 
REMARK    4  A    between atoms: C3_4  and  C5_7 
REMARK    5  A    between atoms: C13_17  and  C14_18 
REMARK    6  A    between atoms: C15_19  and  N2_20 
REMARK    7  A    between atoms: N2_20  and  O3_21 
REMARK    8  A    between atoms: O3_21  and  N3_22 
ROOT
HETATM    1  C5  UNL     1      24.981   0.179  52.947  1.00  0.00     0.027 A 
HETATM    2  C6  UNL     1      23.717  -0.580  53.569  1.00  0.00     0.056 C 
HETATM    3  C7  UNL     1      22.543  -0.130  52.984  1.00  0.00     0.002 C 
HETATM    4  C8  UNL     1      21.869   0.757  51.981  1.00  0.00     0.064 C 
HETATM    5  C9  UNL     1      21.255   2.066  52.389  1.00  0.00     0.031 C 
HETATM    6  N1  UNL     1      20.452   2.929  52.796  1.00  0.00    -0.304 NA
HETATM    7  C10 UNL     1      22.638   2.627  51.991  1.00  0.00    -0.016 A 
HETATM    8  C11 UNL     1      23.951   2.561  51.812  1.00  0.00     0.127 A 
HETATM    9  C12 UNL     1      24.676   1.453  52.193  1.00  0.00     0.036 A 
HETATM   10 CL1  UNL     1      26.504   1.394  51.901  1.00  0.00    -0.203 Cl
HETATM   11  C13 UNL     1      25.891   1.265  52.073  1.00  0.00     0.056 A 
HETATM   12  C14 UNL     1      24.957   2.465  51.690  1.00  0.00     0.058 A 
HETATM   13  C15 UNL     1      23.796   3.388  51.468  1.00  0.00     0.094 A 
HETATM   14  H13 UNL     1      20.607   3.952  52.895  1.00  0.00     0.186 HD
ENDROOT
BRANCH   1  15
HETATM   15  C3  UNL     1      25.979  -0.446  53.653  1.00  0.00     0.054 C 
BRANCH  15  16
HETATM   16  C2  UNL     1      26.537   0.126  54.904  1.00  0.00     0.227 C 
BRANCH  16  17
HETATM   17  O1  UNL     1      27.866  -0.296  55.098  1.00  0.00    -0.390 OA
HETATM   18  C1  UNL     1      28.769   0.692  54.725  1.00  0.00     0.201 C 
ENDBRANCH  16  17
ENDBRANCH  15  16
BRANCH  15  19
HETATM   19  O2  UNL     1      26.729  -1.632  53.518  1.00  0.00    -0.362 OA
HETATM   20  C4  UNL     1      26.833  -2.209  52.254  1.00  0.00     0.209 C 
ENDBRANCH  15  19
ENDBRANCH   1  15
BRANCH  13  21
HETATM   21  N2  UNL     1      23.826   4.659  50.903  1.00  0.00    -0.268 N 
HETATM   22  H16 UNL     1      23.940   4.575  49.862  1.00  0.00     0.190 HD
BRANCH  21  23
HETATM   23  O3  UNL     1      23.684   5.338  52.070  1.00  0.00    -0.191 OA
BRANCH  23  24
HETATM   24  N3  UNL     1      24.332   6.526  52.062  1.00  0.00    -0.189 NA
HETATM   25  H17 UNL     1      23.634   7.313  51.971  1.00  0.00     0.152 HD
HETATM   26  H18 UNL     1      24.934   6.531  51.217  1.00  0.00     0.152 HD
ENDBRANCH  23  24
ENDBRANCH  21  23
ENDBRANCH  13  21
TORSDOF 8
ENDMDL
MODEL 4
REMARK VINA RESULT:      -7.4      4.131      6.744
REMARK  8 active torsions:
REMARK  status: ('A' for Active; 'I' for Inactive)
REMARK    1  A    between atoms: O1_2  and  C2_3 
REMARK    2  A    between atoms: C2_3  and  C3_4 
REMARK    3  A    between atoms: C3_4  and  O2_5 
REMARK    4  A    between atoms: C3_4  and  C5_7 
REMARK    5  A    between atoms: C13_17  and  C14_18 
REMARK    6  A    between atoms: C15_19  and  N2_20 
REMARK    7  A    between atoms: N2_20  and  O3_21 
REMARK    8  A    between atoms: O3_21  and  N3_22 
ROOT
HETATM    1  C5  UNL     1      24.317  -0.053  53.779  1.00  0.00     0.027 A 
HETATM    2  C6  UNL     1      24.488   0.977  52.566  1.00  0.00     0.056 C 
HETATM    3  C7  UNL     1      23.267   1.548  52.238  1.00  0.00     0.002 C 
HETATM    4  C8  UNL     1      21.800   1.680  52.511  1.00  0.00     0.064 C 
HETATM    5  C9  UNL     1      20.787   0.926  51.698  1.00  0.00     0.031 C 
HETATM    6  N1  UNL     1      19.980   0.602  50.803  1.00  0.00    -0.304 NA
HETATM    7  C10 UNL     1      20.927  -0.116  52.830  1.00  0.00    -0.016 A 
HETATM    8  C11 UNL     1      21.571  -0.749  53.802  1.00  0.00     0.127 A 
HETATM    9  C12 UNL     1      22.903  -0.508  54.060  1.00  0.00     0.036 A 
HETATM   10 CL1  UNL     1      23.756  -1.397  55.443  1.00  0.00    -0.203 Cl
HETATM   11  C13 UNL     1      23.610  -1.020  54.935  1.00  0.00     0.056 A 
HETATM   12  C14 UNL     1      22.103  -1.206  54.540  1.00  0.00     0.058 A 
HETATM   13  C15 UNL     1      20.750  -1.125  53.899  1.00  0.00     0.094 A 
HETATM   14  H13 UNL     1      19.410  -0.266  50.738  1.00  0.00     0.186 HD
ENDROOT
BRANCH   1  15
HETATM   15  C3  UNL     1      25.626  -0.445  53.918  1.00  0.00     0.054 C 
BRANCH  15  16
HETATM   16  C2  UNL     1      26.670   0.467  54.449  1.00  0.00     0.227 C 
BRANCH  16  17
HETATM   17  O1  UNL     1      27.681  -0.259  55.106  1.00  0.00    -0.390 OA
HETATM   18  C1  UNL     1      28.943   0.221  54.777  1.00  0.00     0.201 C 
ENDBRANCH  16  17
ENDBRANCH  15  16
BRANCH  15  19
HETATM   19  O2  UNL     1      26.367  -1.620  53.673  1.00  0.00    -0.362 OA
HETATM   20  C4  UNL     1      26.723  -1.913  52.358  1.00  0.00     0.209 C 
ENDBRANCH  15  19
ENDBRANCH   1  15
BRANCH  13  21
HETATM   21  N2  UNL     1      19.610  -1.843  54.246  1.00  0.00    -0.268 N 
HETATM   22  H16 UNL     1      19.857  -2.559  54.974  1.00  0.00     0.190 HD
BRANCH  21  23
HETATM   23  O3  UNL     1      18.766  -1.187  53.408  1.00  0.00    -0.191 OA
BRANCH  23  24
HETATM   24  N3  UNL     1      17.480  -1.236  53.824  1.00  0.00    -0.189 NA
HETATM   25  H17 UNL     1      17.446  -1.488  54.849  1.00  0.00     0.152 HD
HETATM   26  H18 UNL     1      17.023  -1.999  53.289  1.00  0.00     0.152 HD
ENDBRANCH  23  24
ENDBRANCH  21  23
ENDBRANCH  13  21
TORSDOF 8
ENDMDL
MODEL 5
REMARK VINA RESULT:      -7.3      3.413      6.252
REMARK  8 active torsions:
REMARK  status: ('A' for Active; 'I' for Inactive)
REMARK    1  A    between atoms: O1_2  and  C2_3 
REMARK    2  A    between atoms: C2_3  and  C3_4 
REMARK    3  A    between atoms: C3_4  and  O2_5 
REMARK    4  A    between atoms: C3_4  and  C5_7 
REMARK    5  A    between atoms: C13_17  and  C14_18 
REMARK    6  A    between atoms: C15_19  and  N2_20 
REMARK    7  A    between atoms: N2_20  and  O3_21 
REMARK    8  A    between atoms: O3_21  and  N3_22 
ROOT
HETATM    1  C5  UNL     1      26.250  -0.006  53.016  1.00  0.00     0.027 A 
HETATM    2  C6  UNL     1      26.781   0.766  51.718  1.00  0.00     0.056 C 
HETATM    3  C7  UNL     1      25.881   1.748  51.334  1.00  0.00     0.002 C 
HETATM    4  C8  UNL     1      24.596   2.478  51.584  1.00  0.00     0.064 C 
HETATM    5  C9  UNL     1      23.343   2.127  50.833  1.00  0.00     0.031 C 
HETATM    6  N1  UNL     1      22.449   2.079  49.966  1.00  0.00    -0.304 NA
HETATM    7  C10 UNL     1      23.090   1.214  52.053  1.00  0.00    -0.016 A 
HETATM    8  C11 UNL     1      23.456   0.459  53.082  1.00  0.00     0.127 A 
HETATM    9  C12 UNL     1      24.780   0.168  53.326  1.00  0.00     0.036 A 
HETATM   10 CL1  UNL     1      25.247  -0.869  54.788  1.00  0.00    -0.203 Cl
HETATM   11  C13 UNL     1      25.249  -0.509  54.248  1.00  0.00     0.056 A 
HETATM   12  C14 UNL     1      23.782  -0.110  53.860  1.00  0.00     0.058 A 
HETATM   13  C15 UNL     1      22.556   0.452  53.206  1.00  0.00     0.094 A 
HETATM   14  H13 UNL     1      21.579   1.510  49.973  1.00  0.00     0.186 HD
ENDROOT
BRANCH   1  15
HETATM   15  C3  UNL     1      27.296  -0.875  53.198  1.00  0.00     0.054 C 
BRANCH  15  16
HETATM   16  C2  UNL     1      28.642  -0.411  53.620  1.00  0.00     0.227 C 
BRANCH  16  17
HETATM   17  O1  UNL     1      28.548   0.474  54.710  1.00  0.00    -0.390 OA
HETATM   18  C1  UNL     1      29.245   1.651  54.467  1.00  0.00     0.201 C 
ENDBRANCH  16  17
ENDBRANCH  15  16
BRANCH  15  19
HETATM   19  O2  UNL     1      27.493  -2.267  53.087  1.00  0.00    -0.362 OA
HETATM   20  C4  UNL     1      28.797  -2.755  53.125  1.00  0.00     0.209 C 
ENDBRANCH  15  19
ENDBRANCH   1  15
BRANCH  13  21
HETATM   21  N2  UNL     1      21.234   0.282  53.607  1.00  0.00    -0.268 N 
HETATM   22  H16 UNL     1      20.799   1.222  53.781  1.00  0.00     0.190 HD
BRANCH  21  23
HETATM   23  O3  UNL     1      21.240  -1.075  53.546  1.00  0.00    -0.191 OA
BRANCH  23  24
HETATM   24  N3  UNL     1      20.722  -1.646  54.659  1.00  0.00    -0.189 NA
HETATM   25  H17 UNL     1      19.806  -1.181  54.904  1.00  0.00     0.152 HD
HETATM   26  H18 UNL     1      21.393  -1.460  55.428  1.00  0.00     0.152 HD
ENDBRANCH  23  24
ENDBRANCH  21  23
ENDBRANCH  13  21
TORSDOF 8
ENDMDL
MODEL 6
REMARK VINA RESULT:      -7.3      3.255      5.732
REMARK  8 active torsions:
REMARK  status: ('A' for Active; 'I' for Inactive)
REMARK    1  A    between atoms: O1_2  and  C2_3 
REMARK    2  A    between atoms: C2_3  and  C3_4 
REMARK    3  A    between atoms: C3_4  and  O2_5 
REMARK    4  A    between atoms: C3_4  and  C5_7 
REMARK    5  A    between atoms: C13_17  and  C14_18 
REMARK    6  A    between atoms: C15_19  and  N2_20 
REMARK    7  A    between atoms: N2_20  and  O3_21 
REMARK    8  A    between atoms: O3_21  and  N3_22 
ROOT
HETATM    1  C5  UNL     1      25.556   0.342  53.373  1.00  0.00     0.027 A 
HETATM    2  C6  UNL     1      25.265  -0.550  54.670  1.00  0.00     0.056 C 
HETATM    3  C7  UNL     1      23.960  -1.018  54.655  1.00  0.00     0.002 C 
HETATM    4  C8  UNL     1      22.638  -1.107  53.954  1.00  0.00     0.064 C 
HETATM    5  C9  UNL     1      21.492  -0.215  54.339  1.00  0.00     0.031 C 
HETATM    6  N1  UNL     1      20.482   0.249  54.905  1.00  0.00    -0.304 NA
HETATM    7  C10 UNL     1      22.054   0.682  53.214  1.00  0.00    -0.016 A 
HETATM    8  C11 UNL     1      23.013   1.167  52.435  1.00  0.00     0.127 A 
HETATM    9  C12 UNL     1      24.336   0.832  52.627  1.00  0.00     0.036 A 
HETATM   10 CL1  UNL     1      25.637   1.513  51.499  1.00  0.00    -0.203 Cl
HETATM   11  C13 UNL     1      25.314   1.205  51.969  1.00  0.00     0.056 A 
HETATM   12  C14 UNL     1      23.779   1.510  51.860  1.00  0.00     0.058 A 
HETATM   13  C15 UNL     1      22.293   1.570  52.053  1.00  0.00     0.094 A 
HETATM   14  H13 UNL     1      19.993   1.145  54.709  1.00  0.00     0.186 HD
ENDROOT
BRANCH   1  15
HETATM   15  C3  UNL     1      26.872   0.650  53.610  1.00  0.00     0.054 C 
BRANCH  15  16
HETATM   16  C2  UNL     1      27.983  -0.198  53.110  1.00  0.00     0.227 C 
BRANCH  16  17
HETATM   17  O1  UNL     1      28.625  -0.861  54.173  1.00  0.00    -0.390 OA
HETATM   18  C1  UNL     1      29.945  -1.159  53.859  1.00  0.00     0.201 C 
ENDBRANCH  16  17
ENDBRANCH  15  16
BRANCH  15  19
HETATM   19  O2  UNL     1      27.572   1.675  54.280  1.00  0.00    -0.362 OA
HETATM   20  C4  UNL     1      28.517   2.407  53.564  1.00  0.00     0.209 C 
ENDBRANCH  15  19
ENDBRANCH   1  15
BRANCH  13  21
HETATM   21  N2  UNL     1      21.375   2.300  51.305  1.00  0.00    -0.268 N 
HETATM   22  H16 UNL     1      21.258   1.849  50.363  1.00  0.00     0.190 HD
BRANCH  21  23
HETATM   23  O3  UNL     1      21.127   3.237  52.256  1.00  0.00    -0.191 OA
BRANCH  23  24
HETATM   24  N3  UNL     1      19.809   3.355  52.536  1.00  0.00    -0.189 NA
HETATM   25  H17 UNL     1      19.303   3.766  51.705  1.00  0.00     0.152 HD
HETATM   26  H18 UNL     1      19.731   4.026  53.324  1.00  0.00     0.152 HD
ENDBRANCH  23  24
ENDBRANCH  21  23
ENDBRANCH  13  21
TORSDOF 8
ENDMDL
MODEL 7
REMARK VINA RESULT:      -7.0      2.459      3.819
REMARK  8 active torsions:
REMARK  status: ('A' for Active; 'I' for Inactive)
REMARK    1  A    between atoms: O1_2  and  C2_3 
REMARK    2  A    between atoms: C2_3  and  C3_4 
REMARK    3  A    between atoms: C3_4  and  O2_5 
REMARK    4  A    between atoms: C3_4  and  C5_7 
REMARK    5  A    between atoms: C13_17  and  C14_18 
REMARK    6  A    between atoms: C15_19  and  N2_20 
REMARK    7  A    between atoms: N2_20  and  O3_21 
REMARK    8  A    between atoms: O3_21  and  N3_22 
ROOT
HETATM    1  C5  UNL     1      24.371   2.044  51.344  1.00  0.00     0.027 A 
HETATM    2  C6  UNL     1      25.928   2.385  51.191  1.00  0.00     0.056 C 
HETATM    3  C7  UNL     1      26.703   1.357  51.708  1.00  0.00     0.002 C 
HETATM    4  C8  UNL     1      26.775   0.004  52.350  1.00  0.00     0.064 C 
HETATM    5  C9  UNL     1      26.976  -0.143  53.831  1.00  0.00     0.031 C 
HETATM    6  N1  UNL     1      27.503  -0.243  54.958  1.00  0.00    -0.304 NA
HETATM    7  C10 UNL     1      25.432  -0.191  53.849  1.00  0.00    -0.016 A 
HETATM    8  C11 UNL     1      24.220   0.091  53.389  1.00  0.00     0.127 A 
HETATM    9  C12 UNL     1      24.033   0.945  52.325  1.00  0.00     0.036 A 
HETATM   10 CL1  UNL     1      22.324   1.290  51.701  1.00  0.00    -0.203 Cl
HETATM   11  C13 UNL     1      22.965   1.279  51.800  1.00  0.00     0.056 A 
HETATM   12  C14 UNL     1      23.310   0.331  53.001  1.00  0.00     0.058 A 
HETATM   13  C15 UNL     1      23.995  -0.476  54.064  1.00  0.00     0.094 A 
HETATM   14  H13 UNL     1      27.031  -0.352  55.878  1.00  0.00     0.186 HD
ENDROOT
BRANCH   1  15
HETATM   15  C3  UNL     1      23.844   3.167  50.755  1.00  0.00     0.054 C 
BRANCH  15  16
HETATM   16  C2  UNL     1      23.815   3.346  49.281  1.00  0.00     0.227 C 
BRANCH  16  17
HETATM   17  O1  UNL     1      22.496   3.276  48.795  1.00  0.00    -0.390 OA
HETATM   18  C1  UNL     1      22.293   2.120  48.052  1.00  0.00     0.201 C 
ENDBRANCH  16  17
ENDBRANCH  15  16
BRANCH  15  19
HETATM   19  O2  UNL     1      23.240   4.360  51.202  1.00  0.00    -0.362 OA
HETATM   20  C4  UNL     1      23.417   4.733  52.533  1.00  0.00     0.209 C 
ENDBRANCH  15  19
ENDBRANCH   1  15
BRANCH  13  21
HETATM   21  N2  UNL     1      23.396  -1.291  55.019  1.00  0.00    -0.268 N 
HETATM   22  H16 UNL     1      24.103  -1.981  55.379  1.00  0.00     0.190 HD
BRANCH  21  23
HETATM   23  O3  UNL     1      22.169  -0.715  54.952  1.00  0.00    -0.191 OA
BRANCH  23  24
HETATM   24  N3  UNL     1      21.167  -1.624  54.957  1.00  0.00    -0.189 NA
HETATM   25  H17 UNL     1      20.565  -1.486  55.814  1.00  0.00     0.152 HD
HETATM   26  H18 UNL     1      21.614  -2.558  55.025  1.00  0.00     0.152 HD
ENDBRANCH  23  24
ENDBRANCH  21  23
ENDBRANCH  13  21
TORSDOF 8
ENDMDL
MODEL 8
REMARK VINA RESULT:      -6.9      1.889      3.085
REMARK  8 active torsions:
REMARK  status: ('A' for Active; 'I' for Inactive)
REMARK    1  A    between atoms: O1_2  and  C2_3 
REMARK    2  A    between atoms: C2_3  and  C3_4 
REMARK    3  A    between atoms: C3_4  and  O2_5 
REMARK    4  A    between atoms: C3_4  and  C5_7 
REMARK    5  A    between atoms: C13_17  and  C14_18 
REMARK    6  A    between atoms: C15_19  and  N2_20 
REMARK    7  A    between atoms: N2_20  and  O3_21 
REMARK    8  A    between atoms: O3_21  and  N3_22 
ROOT
HETATM    1  C5  UNL     1      23.329   2.111  51.613  1.00  0.00     0.027 A 
HETATM    2  C6  UNL     1      24.112   3.397  51.070  1.00  0.00     0.056 C 
HETATM    3  C7  UNL     1      25.473   3.140  50.993  1.00  0.00     0.002 C 
HETATM    4  C8  UNL     1      26.607   2.175  51.163  1.00  0.00     0.064 C 
HETATM    5  C9  UNL     1      27.470   2.198  52.393  1.00  0.00     0.031 C 
HETATM    6  N1  UNL     1      28.370   2.472  53.211  1.00  0.00    -0.304 NA
HETATM    7  C10 UNL     1      26.462   1.139  52.894  1.00  0.00    -0.016 A 
HETATM    8  C11 UNL     1      25.276   0.547  52.951  1.00  0.00     0.127 A 
HETATM    9  C12 UNL     1      24.180   1.063  52.295  1.00  0.00     0.036 A 
HETATM   10 CL1  UNL     1      22.550   0.189  52.382  1.00  0.00    -0.203 Cl
HETATM   11  C13 UNL     1      23.033   0.606  52.261  1.00  0.00     0.056 A 
HETATM   12  C14 UNL     1      24.350   0.124  52.963  1.00  0.00     0.058 A 
HETATM   13  C15 UNL     1      25.753  -0.026  53.471  1.00  0.00     0.094 A 
HETATM   14  H13 UNL     1      28.513   2.078  54.163  1.00  0.00     0.186 HD
ENDROOT
BRANCH   1  15
HETATM   15  C3  UNL     1      22.048   2.602  51.573  1.00  0.00     0.054 C 
BRANCH  15  16
HETATM   16  C2  UNL     1      21.356   2.897  50.293  1.00  0.00     0.227 C 
BRANCH  16  17
HETATM   17  O1  UNL     1      21.548   1.853  49.368  1.00  0.00    -0.390 OA
HETATM   18  C1  UNL     1      20.876   2.104  48.178  1.00  0.00     0.201 C 
ENDBRANCH  16  17
ENDBRANCH  15  16
BRANCH  15  19
HETATM   19  O2  UNL     1      21.065   2.955  52.520  1.00  0.00    -0.362 OA
HETATM   20  C4  UNL     1      19.741   2.604  52.260  1.00  0.00     0.209 C 
ENDBRANCH  15  19
ENDBRANCH   1  15
BRANCH  13  21
HETATM   21  N2  UNL     1      26.248  -1.033  54.293  1.00  0.00    -0.268 N 
HETATM   22  H16 UNL     1      26.669  -1.792  53.700  1.00  0.00     0.190 HD
BRANCH  21  23
HETATM   23  O3  UNL     1      25.895  -0.448  55.466  1.00  0.00    -0.191 OA
BRANCH  23  24
HETATM   24  N3  UNL     1      25.189  -1.277  56.268  1.00  0.00    -0.189 NA
HETATM   25  H17 UNL     1      25.802  -1.618  57.057  1.00  0.00     0.152 HD
HETATM   26  H18 UNL     1      24.924  -2.096  55.690  1.00  0.00     0.152 HD
ENDBRANCH  23  24
ENDBRANCH  21  23
ENDBRANCH  13  21
TORSDOF 8
ENDMDL
MODEL 9
REMARK VINA RESULT:      -6.8      2.425      3.528
REMARK  8 active torsions:
REMARK  status: ('A' for Active; 'I' for Inactive)
REMARK    1  A    between atoms: O1_2  and  C2_3 
REMARK    2  A    between atoms: C2_3  and  C3_4 
REMARK    3  A    between atoms: C3_4  and  O2_5 
REMARK    4  A    between atoms: C3_4  and  C5_7 
REMARK    5  A    between atoms: C13_17  and  C14_18 
REMARK    6  A    between atoms: C15_19  and  N2_20 
REMARK    7  A    between atoms: N2_20  and  O3_21 
REMARK    8  A    between atoms: O3_21  and  N3_22 
ROOT
HETATM    1  C5  UNL     1      22.496   1.809  51.666  1.00  0.00     0.027 A 
HETATM    2  C6  UNL     1      20.948   1.514  51.947  1.00  0.00     0.056 C 
HETATM    3  C7  UNL     1      20.786   0.899  53.179  1.00  0.00     0.002 C 
HETATM    4  C8  UNL     1      21.403   0.376  54.442  1.00  0.00     0.064 C 
HETATM    5  C9  UNL     1      21.690  -1.088  54.618  1.00  0.00     0.031 C 
HETATM    6  N1  UNL     1      21.573  -2.301  54.884  1.00  0.00    -0.304 NA
HETATM    7  C10 UNL     1      23.081  -0.691  54.076  1.00  0.00    -0.016 A 
HETATM    8  C11 UNL     1      23.923   0.049  53.366  1.00  0.00     0.127 A 
HETATM    9  C12 UNL     1      23.476   1.049  52.530  1.00  0.00     0.036 A 
HETATM   10 CL1  UNL     1      24.689   2.073  51.576  1.00  0.00    -0.203 Cl
HETATM   11  C13 UNL     1      24.153   1.809  51.829  1.00  0.00     0.056 A 
HETATM   12  C14 UNL     1      24.532   0.643  52.807  1.00  0.00     0.058 A 
HETATM   13  C15 UNL     1      24.520  -0.492  53.787  1.00  0.00     0.094 A 
HETATM   14  H13 UNL     1      22.286  -3.050  54.783  1.00  0.00     0.186 HD
ENDROOT
BRANCH   1  15
HETATM   15  C3  UNL     1      22.383   2.420  50.442  1.00  0.00     0.054 C 
BRANCH  15  16
HETATM   16  C2  UNL     1      21.909   3.820  50.299  1.00  0.00     0.227 C 
BRANCH  16  17
HETATM   17  O1  UNL     1      22.781   4.563  49.482  1.00  0.00    -0.390 OA
HETATM   18  C1  UNL     1      22.853   5.888  49.894  1.00  0.00     0.201 C 
ENDBRANCH  16  17
ENDBRANCH  15  16
BRANCH  15  19
HETATM   19  O2  UNL     1      22.619   2.057  49.100  1.00  0.00    -0.362 OA
HETATM   20  C4  UNL     1      21.631   1.342  48.425  1.00  0.00     0.209 C 
ENDBRANCH  15  19
ENDBRANCH   1  15
BRANCH  13  21
HETATM   21  N2  UNL     1      25.618  -1.182  54.291  1.00  0.00    -0.268 N 
HETATM   22  H16 UNL     1      25.950  -1.877  53.577  1.00  0.00     0.190 HD
BRANCH  21  23
HETATM   23  O3  UNL     1      25.653  -0.541  55.488  1.00  0.00    -0.191 OA
BRANCH  23  24
HETATM   24  N3  UNL     1      25.282  -1.340  56.515  1.00  0.00    -0.189 NA
HETATM   25  H17 UNL     1      26.141  -1.707  57.009  1.00  0.00     0.152 HD
HETATM   26  H18 UNL     1      24.781  -2.147  56.099  1.00  0.00     0.152 HD
ENDBRANCH  23  24
ENDBRANCH  21  23
ENDBRANCH  13  21
TORSDOF 8
ENDMDL
