MODEL 1
REMARK VINA RESULT:      -9.5      0.000      0.000
REMARK  3 active torsions:
REMARK  status: ('A' for Active; 'I' for Inactive)
REMARK    1  A    between atoms: C5_5  and  C6_6 
REMARK    2  A    between atoms: C6_6  and  C7_7 
REMARK    3  A    between atoms: C15_17  and  C16_18 
ROOT
HETATM    1  C1  UNL     1      23.116   4.946  52.002  1.00  0.00     0.072 C 
HETATM    2  C2  UNL     1      23.523   3.548  52.246  1.00  0.00     0.052 C 
HETATM    3  C3  UNL     1      24.550   2.726  52.328  1.00  0.00     0.031 C 
HETATM    4  C4  UNL     1      24.990   1.391  52.562  1.00  0.00     0.034 C 
HETATM    5  C5  UNL     1      24.476   0.207  52.858  1.00  0.00     0.050 C 
HETATM    6  O1  UNL     1      23.171  -0.300  53.110  1.00  0.00    -0.353 OA
HETATM    7  C13 UNL     1      22.667  -0.176  54.429  1.00  0.00     0.197 C 
HETATM    8  C14 UNL     1      21.600  -1.134  54.835  1.00  0.00     0.175 C 
HETATM    9  N1  UNL     1      20.390  -1.157  54.169  1.00  0.00    -0.291 NA
HETATM   10  C15 UNL     1      19.744  -0.452  53.364  1.00  0.00     0.047 C 
HETATM   11  C21 UNL     1      19.643   0.737  52.530  1.00  0.00     0.134 C 
HETATM   12  C22 UNL     1      20.365   1.778  52.198  1.00  0.00     0.121 C 
HETATM   13  N3  UNL     1      21.281   2.832  51.956  1.00  0.00    -0.192 NA
HETATM   14  N4  UNL     1      22.475   2.608  52.400  1.00  0.00    -0.161 NA
ENDROOT
BRANCH   5  15
HETATM   15  C6  UNL     1      25.399  -0.918  52.988  1.00  0.00     0.103 C 
BRANCH  15  16
HETATM   16  C7  UNL     1      26.736  -0.653  53.504  1.00  0.00    -0.052 A 
HETATM   17  C8  UNL     1      27.819  -1.247  52.847  1.00  0.00     0.007 A 
HETATM   18  C9  UNL     1      29.169  -1.150  53.171  1.00  0.00     0.001 A 
HETATM   19  C10 UNL     1      29.433  -0.355  54.292  1.00  0.00     0.000 A 
HETATM   20  C11 UNL     1      28.425   0.267  54.996  1.00  0.00     0.001 A 
HETATM   21  C12 UNL     1      27.084   0.122  54.611  1.00  0.00     0.007 A 
ENDBRANCH  15  16
ENDBRANCH   5  15
BRANCH  10  22
HETATM   22  C16 UNL     1      18.466  -1.106  53.057  1.00  0.00     0.006 A 
HETATM   23  C17 UNL     1      18.252  -2.386  53.589  1.00  0.00     0.016 A 
HETATM   24  C18 UNL     1      17.091  -3.148  53.395  1.00  0.00     0.020 A 
HETATM   25  C19 UNL     1      16.084  -2.615  52.632  1.00  0.00     0.116 A 
HETATM   26  N2  UNL     1      16.214  -1.399  52.090  1.00  0.00    -0.272 NA
HETATM   27  C20 UNL     1      17.349  -0.730  52.318  1.00  0.00     0.129 A 
ENDBRANCH  10  22
TORSDOF 3
ENDMDL
MODEL 2
REMARK VINA RESULT:      -8.9      2.838      7.160
REMARK  3 active torsions:
REMARK  status: ('A' for Active; 'I' for Inactive)
REMARK    1  A    between atoms: C5_5  and  C6_6 
REMARK    2  A    between atoms: C6_6  and  C7_7 
REMARK    3  A    between atoms: C15_17  and  C16_18 
ROOT
HETATM    1  C1  UNL     1      20.545   0.153  51.798  1.00  0.00     0.072 C 
HETATM    2  C2  UNL     1      21.913   0.410  52.289  1.00  0.00     0.052 C 
HETATM    3  C3  UNL     1      22.853   0.003  53.119  1.00  0.00     0.031 C 
HETATM    4  C4  UNL     1      24.171   0.210  53.619  1.00  0.00     0.034 C 
HETATM    5  C5  UNL     1      25.195   1.027  53.427  1.00  0.00     0.050 C 
HETATM    6  O1  UNL     1      25.471   2.128  52.570  1.00  0.00    -0.353 OA
HETATM    7  C13 UNL     1      25.950   1.835  51.268  1.00  0.00     0.197 C 
HETATM    8  C14 UNL     1      26.728   2.904  50.581  1.00  0.00     0.175 C 
HETATM    9  N1  UNL     1      26.145   4.125  50.300  1.00  0.00    -0.291 NA
HETATM   10  C15 UNL     1      25.005   4.638  50.264  1.00  0.00     0.047 C 
HETATM   11  C21 UNL     1      23.566   4.525  50.452  1.00  0.00     0.134 C 
HETATM   12  C22 UNL     1      22.685   3.638  50.842  1.00  0.00     0.121 C 
HETATM   13  N3  UNL     1      21.881   2.560  51.288  1.00  0.00    -0.192 NA
HETATM   14  N4  UNL     1      22.550   1.573  51.790  1.00  0.00    -0.161 NA
ENDROOT
BRANCH   5  15
HETATM   15  C6  UNL     1      26.387   0.821  54.246  1.00  0.00     0.103 C 
BRANCH  15  16
HETATM   16  C7  UNL     1      27.336  -0.205  53.833  1.00  0.00    -0.052 A 
HETATM   17  C8  UNL     1      28.681  -0.027  54.175  1.00  0.00     0.007 A 
HETATM   18  C9  UNL     1      29.754  -0.860  53.874  1.00  0.00     0.001 A 
HETATM   19  C10 UNL     1      29.405  -1.999  53.139  1.00  0.00     0.000 A 
HETATM   20  C11 UNL     1      28.104  -2.252  52.761  1.00  0.00     0.001 A 
HETATM   21  C12 UNL     1      27.072  -1.364  53.102  1.00  0.00     0.007 A 
ENDBRANCH  15  16
ENDBRANCH   5  15
BRANCH  10  22
HETATM   22  C16 UNL     1      25.116   6.046  49.866  1.00  0.00     0.006 A 
HETATM   23  C17 UNL     1      25.679   6.321  48.611  1.00  0.00     0.016 A 
HETATM   24  C18 UNL     1      25.857   7.606  48.080  1.00  0.00     0.020 A 
HETATM   25  C19 UNL     1      25.457   8.681  48.830  1.00  0.00     0.116 A 
HETATM   26  N2  UNL     1      24.911   8.501  50.038  1.00  0.00    -0.272 NA
HETATM   27  C20 UNL     1      24.772   7.247  50.480  1.00  0.00     0.129 A 
ENDBRANCH  10  22
TORSDOF 3
ENDMDL
MODEL 3
REMARK VINA RESULT:      -8.8      2.884      8.141
REMARK  3 active torsions:
REMARK  status: ('A' for Active; 'I' for Inactive)
REMARK    1  A    between atoms: C5_5  and  C6_6 
REMARK    2  A    between atoms: C6_6  and  C7_7 
REMARK    3  A    between atoms: C15_17  and  C16_18 
ROOT
HETATM    1  C1  UNL     1      19.465  -0.533  53.439  1.00  0.00     0.072 C 
HETATM    2  C2  UNL     1      20.265   0.118  52.383  1.00  0.00     0.052 C 
HETATM    3  C3  UNL     1      20.214   0.725  51.214  1.00  0.00     0.031 C 
HETATM    4  C4  UNL     1      20.945   1.366  50.172  1.00  0.00     0.034 C 
HETATM    5  C5  UNL     1      22.195   1.694  49.885  1.00  0.00     0.050 C 
HETATM    6  O1  UNL     1      23.454   1.564  50.532  1.00  0.00    -0.353 OA
HETATM    7  C13 UNL     1      23.810   2.564  51.473  1.00  0.00     0.197 C 
HETATM    8  C14 UNL     1      25.263   2.750  51.739  1.00  0.00     0.175 C 
HETATM    9  N1  UNL     1      26.018   1.718  52.264  1.00  0.00    -0.291 NA
HETATM   10  C15 UNL     1      25.843   0.611  52.817  1.00  0.00     0.047 C 
HETATM   11  C21 UNL     1      24.945  -0.428  53.301  1.00  0.00     0.134 C 
HETATM   12  C22 UNL     1      23.662  -0.686  53.347  1.00  0.00     0.121 C 
HETATM   13  N3  UNL     1      22.250  -0.796  53.306  1.00  0.00    -0.192 NA
HETATM   14  N4  UNL     1      21.672   0.078  52.547  1.00  0.00    -0.161 NA
ENDROOT
BRANCH   5  15
HETATM   15  C6  UNL     1      22.441   2.369  48.612  1.00  0.00     0.103 C 
BRANCH  15  16
HETATM   16  C7  UNL     1      22.315   3.820  48.568  1.00  0.00    -0.052 A 
HETATM   17  C8  UNL     1      23.490   4.579  48.587  1.00  0.00     0.007 A 
HETATM   18  C9  UNL     1      23.609   5.965  48.570  1.00  0.00     0.001 A 
HETATM   19  C10 UNL     1      22.386   6.644  48.530  1.00  0.00     0.000 A 
HETATM   20  C11 UNL     1      21.181   5.974  48.508  1.00  0.00     0.001 A 
HETATM   21  C12 UNL     1      21.140   4.571  48.528  1.00  0.00     0.007 A 
ENDBRANCH  15  16
ENDBRANCH   5  15
BRANCH  10  22
HETATM   22  C16 UNL     1      27.145   0.011  53.132  1.00  0.00     0.006 A 
HETATM   23  C17 UNL     1      28.184   0.878  53.496  1.00  0.00     0.016 A 
HETATM   24  C18 UNL     1      29.485   0.472  53.827  1.00  0.00     0.020 A 
HETATM   25  C19 UNL     1      29.775  -0.867  53.796  1.00  0.00     0.116 A 
HETATM   26  N2  UNL     1      28.837  -1.758  53.458  1.00  0.00    -0.272 NA
HETATM   27  C20 UNL     1      27.618  -1.298  53.155  1.00  0.00     0.129 A 
ENDBRANCH  10  22
TORSDOF 3
ENDMDL
MODEL 4
REMARK VINA RESULT:      -8.6      2.378      5.740
REMARK  3 active torsions:
REMARK  status: ('A' for Active; 'I' for Inactive)
REMARK    1  A    between atoms: C5_5  and  C6_6 
REMARK    2  A    between atoms: C6_6  and  C7_7 
REMARK    3  A    between atoms: C15_17  and  C16_18 
ROOT
HETATM    1  C1  UNL     1      20.557  -1.281  54.077  1.00  0.00     0.072 C 
HETATM    2  C2  UNL     1      21.825  -0.586  53.779  1.00  0.00     0.052 C 
HETATM    3  C3  UNL     1      23.133  -0.618  53.938  1.00  0.00     0.031 C 
HETATM    4  C4  UNL     1      24.380   0.016  53.671  1.00  0.00     0.034 C 
HETATM    5  C5  UNL     1      24.845   1.078  53.031  1.00  0.00     0.050 C 
HETATM    6  O1  UNL     1      24.276   2.128  52.258  1.00  0.00    -0.353 OA
HETATM    7  C13 UNL     1      24.046   1.873  50.882  1.00  0.00     0.197 C 
HETATM    8  C14 UNL     1      23.976   3.058  49.981  1.00  0.00     0.175 C 
HETATM    9  N1  UNL     1      23.000   4.019  50.163  1.00  0.00    -0.291 NA
HETATM   10  C15 UNL     1      21.927   4.165  50.786  1.00  0.00     0.047 C 
HETATM   11  C21 UNL     1      20.923   3.648  51.705  1.00  0.00     0.134 C 
HETATM   12  C22 UNL     1      20.699   2.579  52.428  1.00  0.00     0.121 C 
HETATM   13  N3  UNL     1      20.623   1.357  53.140  1.00  0.00    -0.192 NA
HETATM   14  N4  UNL     1      21.715   0.663  53.119  1.00  0.00    -0.161 NA
ENDROOT
BRANCH   5  15
HETATM   15  C6  UNL     1      26.286   1.311  53.064  1.00  0.00     0.103 C 
BRANCH  15  16
HETATM   16  C7  UNL     1      27.169   0.151  53.092  1.00  0.00    -0.052 A 
HETATM   17  C8  UNL     1      28.415   0.293  53.711  1.00  0.00     0.007 A 
HETATM   18  C9  UNL     1      29.416  -0.664  53.840  1.00  0.00     0.001 A 
HETATM   19  C10 UNL     1      29.101  -1.902  53.269  1.00  0.00     0.000 A 
HETATM   20  C11 UNL     1      27.895  -2.128  52.640  1.00  0.00     0.001 A 
HETATM   21  C12 UNL     1      26.932  -1.112  52.548  1.00  0.00     0.007 A 
ENDBRANCH  15  16
ENDBRANCH   5  15
BRANCH  10  22
HETATM   22  C16 UNL     1      21.382   5.501  50.515  1.00  0.00     0.006 A 
HETATM   23  C17 UNL     1      20.185   5.574  49.788  1.00  0.00     0.016 A 
HETATM   24  C18 UNL     1      19.531   6.765  49.443  1.00  0.00     0.020 A 
HETATM   25  C19 UNL     1      20.091   7.952  49.839  1.00  0.00     0.116 A 
HETATM   26  N2  UNL     1      21.233   7.965  50.536  1.00  0.00    -0.272 NA
HETATM   27  C20 UNL     1      21.800   6.790  50.829  1.00  0.00     0.129 A 
ENDBRANCH  10  22
TORSDOF 3
ENDMDL
MODEL 5
REMARK VINA RESULT:      -8.5      2.807      5.092
REMARK  3 active torsions:
REMARK  status: ('A' for Active; 'I' for Inactive)
REMARK    1  A    between atoms: C5_5  and  C6_6 
REMARK    2  A    between atoms: C6_6  and  C7_7 
REMARK    3  A    between atoms: C15_17  and  C16_18 
ROOT
HETATM    1  C1  UNL     1      26.740  -0.683  53.456  1.00  0.00     0.072 C 
HETATM    2  C2  UNL     1      26.072   0.457  52.797  1.00  0.00     0.052 C 
HETATM    3  C3  UNL     1      26.247   1.664  52.296  1.00  0.00     0.031 C 
HETATM    4  C4  UNL     1      25.646   2.785  51.655  1.00  0.00     0.034 C 
HETATM    5  C5  UNL     1      24.460   3.157  51.197  1.00  0.00     0.050 C 
HETATM    6  O1  UNL     1      23.170   2.565  51.118  1.00  0.00    -0.353 OA
HETATM    7  C13 UNL     1      22.908   1.720  50.009  1.00  0.00     0.197 C 
HETATM    8  C14 UNL     1      21.481   1.540  49.623  1.00  0.00     0.175 C 
HETATM    9  N1  UNL     1      20.581   0.978  50.509  1.00  0.00    -0.291 NA
HETATM   10  C15 UNL     1      20.591   0.336  51.581  1.00  0.00     0.047 C 
HETATM   11  C21 UNL     1      21.329  -0.268  52.682  1.00  0.00     0.134 C 
HETATM   12  C22 UNL     1      22.566  -0.395  53.092  1.00  0.00     0.121 C 
HETATM   13  N3  UNL     1      23.952  -0.432  53.381  1.00  0.00    -0.192 NA
HETATM   14  N4  UNL     1      24.667   0.359  52.648  1.00  0.00    -0.161 NA
ENDROOT
BRANCH   5  15
HETATM   15  C6  UNL     1      24.352   4.487  50.601  1.00  0.00     0.103 C 
BRANCH  15  16
HETATM   16  C7  UNL     1      25.508   5.016  49.889  1.00  0.00    -0.052 A 
HETATM   17  C8  UNL     1      25.651   6.406  49.816  1.00  0.00     0.007 A 
HETATM   18  C9  UNL     1      26.656   7.127  49.180  1.00  0.00     0.001 A 
HETATM   19  C10 UNL     1      27.619   6.332  48.549  1.00  0.00     0.000 A 
HETATM   20  C11 UNL     1      27.555   4.955  48.573  1.00  0.00     0.001 A 
HETATM   21  C12 UNL     1      26.509   4.296  49.236  1.00  0.00     0.007 A 
ENDBRANCH  15  16
ENDBRANCH   5  15
BRANCH  10  22
HETATM   22  C16 UNL     1      19.211   0.042  51.988  1.00  0.00     0.006 A 
HETATM   23  C17 UNL     1      18.179   0.588  51.211  1.00  0.00     0.016 A 
HETATM   24  C18 UNL     1      16.811   0.406  51.459  1.00  0.00     0.020 A 
HETATM   25  C19 UNL     1      16.441  -0.358  52.535  1.00  0.00     0.116 A 
HETATM   26  N2  UNL     1      17.368  -0.913  53.324  1.00  0.00    -0.272 NA
HETATM   27  C20 UNL     1      18.654  -0.697  53.027  1.00  0.00     0.129 A 
ENDBRANCH  10  22
TORSDOF 3
ENDMDL
MODEL 6
REMARK VINA RESULT:      -8.5      3.703      9.068
REMARK  3 active torsions:
REMARK  status: ('A' for Active; 'I' for Inactive)
REMARK    1  A    between atoms: C5_5  and  C6_6 
REMARK    2  A    between atoms: C6_6  and  C7_7 
REMARK    3  A    between atoms: C15_17  and  C16_18 
ROOT
HETATM    1  C1  UNL     1      26.991  -0.114  52.572  1.00  0.00     0.072 C 
HETATM    2  C2  UNL     1      25.712   0.608  52.420  1.00  0.00     0.052 C 
HETATM    3  C3  UNL     1      24.418   0.569  52.668  1.00  0.00     0.031 C 
HETATM    4  C4  UNL     1      23.163   1.232  52.548  1.00  0.00     0.034 C 
HETATM    5  C5  UNL     1      22.672   2.365  52.069  1.00  0.00     0.050 C 
HETATM    6  O1  UNL     1      23.211   3.516  51.430  1.00  0.00    -0.353 OA
HETATM    7  C13 UNL     1      23.735   4.538  52.262  1.00  0.00     0.197 C 
HETATM    8  C14 UNL     1      23.795   5.910  51.686  1.00  0.00     0.175 C 
HETATM    9  N1  UNL     1      24.560   6.166  50.564  1.00  0.00    -0.291 NA
HETATM   10  C15 UNL     1      25.460   5.617  49.892  1.00  0.00     0.047 C 
HETATM   11  C21 UNL     1      26.337   4.480  49.652  1.00  0.00     0.134 C 
HETATM   12  C22 UNL     1      26.579   3.293  50.150  1.00  0.00     0.121 C 
HETATM   13  N3  UNL     1      26.703   2.050  50.818  1.00  0.00    -0.192 NA
HETATM   14  N4  UNL     1      25.754   1.805  51.663  1.00  0.00    -0.161 NA
ENDROOT
BRANCH   5  15
HETATM   15  C6  UNL     1      21.233   2.582  52.187  1.00  0.00     0.103 C 
BRANCH  15  16
HETATM   16  C7  UNL     1      20.370   1.415  52.321  1.00  0.00    -0.052 A 
HETATM   17  C8  UNL     1      19.482   1.136  51.278  1.00  0.00     0.007 A 
HETATM   18  C9  UNL     1      18.562   0.095  51.199  1.00  0.00     0.001 A 
HETATM   19  C10 UNL     1      18.555  -0.750  52.315  1.00  0.00     0.000 A 
HETATM   20  C11 UNL     1      19.399  -0.547  53.386  1.00  0.00     0.001 A 
HETATM   21  C12 UNL     1      20.302   0.527  53.396  1.00  0.00     0.007 A 
ENDBRANCH  15  16
ENDBRANCH   5  15
BRANCH  10  22
HETATM   22  C16 UNL     1      25.836   6.490  48.774  1.00  0.00     0.006 A 
HETATM   23  C17 UNL     1      27.202   6.609  48.479  1.00  0.00     0.016 A 
HETATM   24  C18 UNL     1      27.731   7.397  47.448  1.00  0.00     0.020 A 
HETATM   25  C19 UNL     1      26.862   8.109  46.662  1.00  0.00     0.116 A 
HETATM   26  N2  UNL     1      25.544   8.048  46.881  1.00  0.00    -0.272 NA
HETATM   27  C20 UNL     1      25.111   7.275  47.883  1.00  0.00     0.129 A 
ENDBRANCH  10  22
TORSDOF 3
ENDMDL
MODEL 7
REMARK VINA RESULT:      -8.5      4.185      6.956
REMARK  3 active torsions:
REMARK  status: ('A' for Active; 'I' for Inactive)
REMARK    1  A    between atoms: C5_5  and  C6_6 
REMARK    2  A    between atoms: C6_6  and  C7_7 
REMARK    3  A    between atoms: C15_17  and  C16_18 
ROOT
HETATM    1  C1  UNL     1      20.380   3.582  46.407  1.00  0.00     0.072 C 
HETATM    2  C2  UNL     1      21.471   4.245  47.150  1.00  0.00     0.052 C 
HETATM    3  C3  UNL     1      22.322   5.250  47.141  1.00  0.00     0.031 C 
HETATM    4  C4  UNL     1      23.375   5.925  47.824  1.00  0.00     0.034 C 
HETATM    5  C5  UNL     1      24.057   5.826  48.955  1.00  0.00     0.050 C 
HETATM    6  O1  UNL     1      24.038   4.957  50.080  1.00  0.00    -0.353 OA
HETATM    7  C13 UNL     1      23.108   5.245  51.111  1.00  0.00     0.197 C 
HETATM    8  C14 UNL     1      23.423   4.718  52.469  1.00  0.00     0.175 C 
HETATM    9  N1  UNL     1      23.531   3.358  52.684  1.00  0.00    -0.291 NA
HETATM   10  C15 UNL     1      23.252   2.287  52.103  1.00  0.00     0.047 C 
HETATM   11  C21 UNL     1      22.720   1.584  50.944  1.00  0.00     0.134 C 
HETATM   12  C22 UNL     1      22.219   1.855  49.765  1.00  0.00     0.121 C 
HETATM   13  N3  UNL     1      21.704   2.333  48.535  1.00  0.00    -0.192 NA
HETATM   14  N4  UNL     1      21.913   3.593  48.328  1.00  0.00    -0.161 NA
ENDROOT
BRANCH   5  15
HETATM   15  C6  UNL     1      25.104   6.814  49.202  1.00  0.00     0.103 C 
BRANCH  15  16
HETATM   16  C7  UNL     1      26.462   6.497  48.778  1.00  0.00    -0.052 A 
HETATM   17  C8  UNL     1      27.234   7.528  48.234  1.00  0.00     0.007 A 
HETATM   18  C9  UNL     1      28.536   7.453  47.750  1.00  0.00     0.001 A 
HETATM   19  C10 UNL     1      29.106   6.178  47.836  1.00  0.00     0.000 A 
HETATM   20  C11 UNL     1      28.416   5.106  48.359  1.00  0.00     0.001 A 
HETATM   21  C12 UNL     1      27.102   5.258  48.827  1.00  0.00     0.007 A 
ENDBRANCH  15  16
ENDBRANCH   5  15
BRANCH  10  22
HETATM   22  C16 UNL     1      23.660   1.154  52.943  1.00  0.00     0.006 A 
HETATM   23  C17 UNL     1      22.648   0.316  53.432  1.00  0.00     0.016 A 
HETATM   24  C18 UNL     1      22.864  -0.807  54.244  1.00  0.00     0.020 A 
HETATM   25  C19 UNL     1      24.153  -1.118  54.593  1.00  0.00     0.116 A 
HETATM   26  N2  UNL     1      25.173  -0.366  54.166  1.00  0.00    -0.272 NA
HETATM   27  C20 UNL     1      24.891   0.689  53.394  1.00  0.00     0.129 A 
ENDBRANCH  10  22
TORSDOF 3
ENDMDL
MODEL 8
REMARK VINA RESULT:      -8.4      1.654      2.330
REMARK  3 active torsions:
REMARK  status: ('A' for Active; 'I' for Inactive)
REMARK    1  A    between atoms: C5_5  and  C6_6 
REMARK    2  A    between atoms: C6_6  and  C7_7 
REMARK    3  A    between atoms: C15_17  and  C16_18 
ROOT
HETATM    1  C1  UNL     1      22.459   6.889  50.975  1.00  0.00     0.072 C 
HETATM    2  C2  UNL     1      23.170   5.595  50.995  1.00  0.00     0.052 C 
HETATM    3  C3  UNL     1      24.314   4.993  50.741  1.00  0.00     0.031 C 
HETATM    4  C4  UNL     1      25.042   3.767  50.748  1.00  0.00     0.034 C 
HETATM    5  C5  UNL     1      24.858   2.498  51.079  1.00  0.00     0.050 C 
HETATM    6  O1  UNL     1      23.791   1.735  51.628  1.00  0.00    -0.353 OA
HETATM    7  C13 UNL     1      23.654   1.727  53.039  1.00  0.00     0.197 C 
HETATM    8  C14 UNL     1      22.937   0.567  53.639  1.00  0.00     0.175 C 
HETATM    9  N1  UNL     1      21.617   0.317  53.317  1.00  0.00    -0.291 NA
HETATM   10  C15 UNL     1      20.655   0.897  52.768  1.00  0.00     0.047 C 
HETATM   11  C21 UNL     1      20.110   2.061  52.083  1.00  0.00     0.134 C 
HETATM   12  C22 UNL     1      20.507   3.232  51.652  1.00  0.00     0.121 C 
HETATM   13  N3  UNL     1      21.108   4.452  51.256  1.00  0.00    -0.192 NA
HETATM   14  N4  UNL     1      22.399   4.461  51.350  1.00  0.00    -0.161 NA
ENDROOT
BRANCH   5  15
HETATM   15  C6  UNL     1      25.974   1.578  50.874  1.00  0.00     0.103 C 
BRANCH  15  16
HETATM   16  C7  UNL     1      26.877   1.332  51.991  1.00  0.00    -0.052 A 
HETATM   17  C8  UNL     1      27.028   0.013  52.431  1.00  0.00     0.007 A 
HETATM   18  C9  UNL     1      27.814  -0.449  53.482  1.00  0.00     0.001 A 
HETATM   19  C10 UNL     1      28.522   0.555  54.152  1.00  0.00     0.000 A 
HETATM   20  C11 UNL     1      28.432   1.880  53.782  1.00  0.00     0.001 A 
HETATM   21  C12 UNL     1      27.615   2.272  52.711  1.00  0.00     0.007 A 
ENDBRANCH  15  16
ENDBRANCH   5  15
BRANCH  10  22
HETATM   22  C16 UNL     1      19.487   0.008  52.762  1.00  0.00     0.006 A 
HETATM   23  C17 UNL     1      18.503   0.241  51.790  1.00  0.00     0.016 A 
HETATM   24  C18 UNL     1      17.329  -0.511  51.645  1.00  0.00     0.020 A 
HETATM   25  C19 UNL     1      17.115  -1.554  52.510  1.00  0.00     0.116 A 
HETATM   26  N2  UNL     1      18.007  -1.839  53.465  1.00  0.00    -0.272 NA
HETATM   27  C20 UNL     1      19.104  -1.078  53.543  1.00  0.00     0.129 A 
ENDBRANCH  10  22
TORSDOF 3
ENDMDL
MODEL 9
REMARK VINA RESULT:      -8.1      5.241      9.728
REMARK  3 active torsions:
REMARK  status: ('A' for Active; 'I' for Inactive)
REMARK    1  A    between atoms: C5_5  and  C6_6 
REMARK    2  A    between atoms: C6_6  and  C7_7 
REMARK    3  A    between atoms: C15_17  and  C16_18 
ROOT
HETATM    1  C1  UNL     1      21.047   7.762  48.087  1.00  0.00     0.072 C 
HETATM    2  C2  UNL     1      21.788   7.007  49.117  1.00  0.00     0.052 C 
HETATM    3  C3  UNL     1      21.695   6.408  50.288  1.00  0.00     0.031 C 
HETATM    4  C4  UNL     1      22.368   5.672  51.306  1.00  0.00     0.034 C 
HETATM    5  C5  UNL     1      23.572   5.180  51.552  1.00  0.00     0.050 C 
HETATM    6  O1  UNL     1      24.816   5.145  50.864  1.00  0.00    -0.353 OA
HETATM    7  C13 UNL     1      25.005   4.110  49.913  1.00  0.00     0.197 C 
HETATM    8  C14 UNL     1      26.412   3.734  49.599  1.00  0.00     0.175 C 
HETATM    9  N1  UNL     1      27.279   4.659  49.049  1.00  0.00    -0.291 NA
HETATM   10  C15 UNL     1      27.234   5.782  48.501  1.00  0.00     0.047 C 
HETATM   11  C21 UNL     1      26.466   6.932  48.045  1.00  0.00     0.134 C 
HETATM   12  C22 UNL     1      25.228   7.358  48.042  1.00  0.00     0.121 C 
HETATM   13  N3  UNL     1      23.845   7.654  48.129  1.00  0.00    -0.192 NA
HETATM   14  N4  UNL     1      23.181   6.861  48.906  1.00  0.00    -0.161 NA
ENDROOT
BRANCH   5  15
HETATM   15  C6  UNL     1      23.769   4.474  52.816  1.00  0.00     0.103 C 
BRANCH  15  16
HETATM   16  C7  UNL     1      23.765   3.017  52.797  1.00  0.00    -0.052 A 
HETATM   17  C8  UNL     1      22.565   2.371  52.486  1.00  0.00     0.007 A 
HETATM   18  C9  UNL     1      22.326   1.001  52.427  1.00  0.00     0.001 A 
HETATM   19  C10 UNL     1      23.444   0.212  52.720  1.00  0.00     0.000 A 
HETATM   20  C11 UNL     1      24.665   0.768  53.035  1.00  0.00     0.001 A 
HETATM   21  C12 UNL     1      24.831   2.160  53.076  1.00  0.00     0.007 A 
ENDBRANCH  15  16
ENDBRANCH   5  15
BRANCH  10  22
HETATM   22  C16 UNL     1      28.593   6.206  48.143  1.00  0.00     0.006 A 
HETATM   23  C17 UNL     1      29.587   5.218  48.101  1.00  0.00     0.016 A 
HETATM   24  C18 UNL     1      30.932   5.450  47.779  1.00  0.00     0.020 A 
HETATM   25  C19 UNL     1      31.316   6.732  47.481  1.00  0.00     0.116 A 
HETATM   26  N2  UNL     1      30.426   7.730  47.499  1.00  0.00    -0.272 NA
HETATM   27  C20 UNL     1      29.161   7.433  47.816  1.00  0.00     0.129 A 
ENDBRANCH  10  22
TORSDOF 3
ENDMDL
