MODEL 1
REMARK VINA RESULT:      -8.3      0.000      0.000
REMARK  5 active torsions:
REMARK  status: ('A' for Active; 'I' for Inactive)
REMARK    1  A    between atoms: C7_7  and  C8_8 
REMARK    2  A    between atoms: C9_9  and  C10_10 
REMARK    3  A    between atoms: C10_10  and  C12_16 
REMARK    4  A    between atoms: N1_11  and  N2_12 
REMARK    5  A    between atoms: N2_12  and  C11_13 
ROOT
HETATM    1  C10 UNL     1      23.688   0.872  52.459  1.00  0.00     0.083 C 
HETATM    2  N1  UNL     1      23.343   1.723  51.560  1.00  0.00    -0.173 NA
ENDROOT
BRANCH   1   3
HETATM    3  C9  UNL     1      25.017   0.554  52.888  1.00  0.00     0.035 C 
HETATM    4  C8  UNL     1      26.227   0.151  52.662  1.00  0.00     0.014 C 
BRANCH   4   5
HETATM    5  C7  UNL     1      27.580  -0.186  53.020  1.00  0.00    -0.030 A 
HETATM    6  C2  UNL     1      28.496   0.762  53.402  1.00  0.00    -0.052 A 
HETATM    7  C1  UNL     1      28.209   2.208  53.483  1.00  0.00     0.049 C 
HETATM    8  C3  UNL     1      29.755   0.306  53.721  1.00  0.00     0.007 A 
HETATM    9  C4  UNL     1      29.981  -1.041  53.630  1.00  0.00     0.001 A 
HETATM   10  C5  UNL     1      29.094  -2.027  53.253  1.00  0.00     0.001 A 
HETATM   11  C6  UNL     1      27.848  -1.543  52.941  1.00  0.00     0.012 A 
ENDBRANCH   4   5
ENDBRANCH   1   3
BRANCH   1  12
HETATM   12  C12 UNL     1      22.628   0.136  53.128  1.00  0.00    -0.024 A 
HETATM   13  C13 UNL     1      21.318   0.171  52.853  1.00  0.00     0.009 A 
HETATM   14  C14 UNL     1      20.593  -0.707  53.749  1.00  0.00    -0.003 A 
HETATM   15  C15 UNL     1      21.433  -1.290  54.580  1.00  0.00    -0.022 A 
HETATM   16  C16 UNL     1      22.775  -0.803  54.252  1.00  0.00     0.068 A 
ENDBRANCH   1  12
BRANCH   2  17
HETATM   17  N2  UNL     1      24.277   2.473  50.861  1.00  0.00    -0.248 N 
HETATM   18  H10 UNL     1      24.691   1.824  50.161  1.00  0.00     0.191 HD
BRANCH  17  19
HETATM   19  C11 UNL     1      24.921   3.741  50.677  1.00  0.00     0.298 A 
HETATM   20  N3  UNL     1      25.707   4.900  50.441  1.00  0.00     0.038 N 
HETATM   21  H11 UNL     1      24.798   5.450  50.386  1.00  0.00     0.302 HD
HETATM   22  H12 UNL     1      24.816   5.474  50.382  1.00  0.00     0.302 HD
HETATM   23  S1  UNL     1      26.357   3.147  50.172  1.00  0.00     0.143 SA
ENDBRANCH  17  19
ENDBRANCH   2  17
TORSDOF 5
ENDMDL
MODEL 2
REMARK VINA RESULT:      -8.1      1.240      5.740
REMARK  5 active torsions:
REMARK  status: ('A' for Active; 'I' for Inactive)
REMARK    1  A    between atoms: C7_7  and  C8_8 
REMARK    2  A    between atoms: C9_9  and  C10_10 
REMARK    3  A    between atoms: C10_10  and  C12_16 
REMARK    4  A    between atoms: N1_11  and  N2_12 
REMARK    5  A    between atoms: N2_12  and  C11_13 
ROOT
HETATM    1  C10 UNL     1      26.942   1.234  52.573  1.00  0.00     0.083 C 
HETATM    2  N1  UNL     1      27.332   2.268  51.918  1.00  0.00    -0.173 NA
ENDROOT
BRANCH   1   3
HETATM    3  C9  UNL     1      25.603   0.915  52.974  1.00  0.00     0.035 C 
HETATM    4  C8  UNL     1      24.473   0.306  52.807  1.00  0.00     0.014 C 
BRANCH   4   5
HETATM    5  C7  UNL     1      23.123  -0.059  53.148  1.00  0.00    -0.030 A 
HETATM    6  C2  UNL     1      22.047   0.309  52.379  1.00  0.00    -0.052 A 
HETATM    7  C1  UNL     1      22.147   1.109  51.141  1.00  0.00     0.049 C 
HETATM    8  C3  UNL     1      20.810  -0.106  52.815  1.00  0.00     0.007 A 
HETATM    9  C4  UNL     1      20.760  -0.843  53.968  1.00  0.00     0.001 A 
HETATM   10  C5  UNL     1      21.811  -1.236  54.770  1.00  0.00     0.001 A 
HETATM   11  C6  UNL     1      23.031  -0.807  54.310  1.00  0.00     0.012 A 
ENDBRANCH   4   5
ENDBRANCH   1   3
BRANCH   1  12
HETATM   12  C12 UNL     1      27.953   0.267  52.966  1.00  0.00    -0.024 A 
HETATM   13  C13 UNL     1      27.865  -1.068  52.907  1.00  0.00     0.009 A 
HETATM   14  C14 UNL     1      29.089  -1.674  53.391  1.00  0.00    -0.003 A 
HETATM   15  C15 UNL     1      29.939  -0.735  53.753  1.00  0.00    -0.022 A 
HETATM   16  C16 UNL     1      29.289   0.555  53.513  1.00  0.00     0.068 A 
ENDBRANCH   1  12
BRANCH   2  17
HETATM   17  N2  UNL     1      26.447   3.251  51.500  1.00  0.00    -0.248 N 
HETATM   18  H10 UNL     1      26.401   3.936  52.281  1.00  0.00     0.191 HD
BRANCH  17  19
HETATM   19  C11 UNL     1      25.573   3.738  50.472  1.00  0.00     0.298 A 
HETATM   20  N3  UNL     1      24.861   4.243  49.353  1.00  0.00     0.038 N 
HETATM   21  H11 UNL     1      23.989   3.790  49.761  1.00  0.00     0.302 HD
HETATM   22  H12 UNL     1      23.975   3.803  49.736  1.00  0.00     0.302 HD
HETATM   23  S1  UNL     1      26.739   4.042  49.369  1.00  0.00     0.143 SA
ENDBRANCH  17  19
ENDBRANCH   2  17
TORSDOF 5
ENDMDL
MODEL 3
REMARK VINA RESULT:      -8.0      1.324      5.776
REMARK  5 active torsions:
REMARK  status: ('A' for Active; 'I' for Inactive)
REMARK    1  A    between atoms: C7_7  and  C8_8 
REMARK    2  A    between atoms: C9_9  and  C10_10 
REMARK    3  A    between atoms: C10_10  and  C12_16 
REMARK    4  A    between atoms: N1_11  and  N2_12 
REMARK    5  A    between atoms: N2_12  and  C11_13 
ROOT
HETATM    1  C10 UNL     1      26.938   1.135  52.409  1.00  0.00     0.083 C 
HETATM    2  N1  UNL     1      27.335   2.262  51.936  1.00  0.00    -0.173 NA
ENDROOT
BRANCH   1   3
HETATM    3  C9  UNL     1      25.588   0.672  52.527  1.00  0.00     0.035 C 
HETATM    4  C8  UNL     1      24.524   0.409  53.218  1.00  0.00     0.014 C 
BRANCH   4   5
HETATM    5  C7  UNL     1      23.171  -0.042  53.411  1.00  0.00    -0.030 A 
HETATM    6  C2  UNL     1      22.807  -0.840  54.467  1.00  0.00    -0.052 A 
HETATM    7  C1  UNL     1      23.742  -1.322  55.503  1.00  0.00     0.049 C 
HETATM    8  C3  UNL     1      21.480  -1.198  54.538  1.00  0.00     0.007 A 
HETATM    9  C4  UNL     1      20.647  -0.733  53.556  1.00  0.00     0.001 A 
HETATM   10  C5  UNL     1      20.967   0.069  52.480  1.00  0.00     0.001 A 
HETATM   11  C6  UNL     1      22.295   0.410  52.437  1.00  0.00     0.012 A 
ENDBRANCH   4   5
ENDBRANCH   1   3
BRANCH   1  12
HETATM   12  C12 UNL     1      27.954   0.213  52.887  1.00  0.00    -0.024 A 
HETATM   13  C13 UNL     1      29.145   0.521  53.418  1.00  0.00     0.009 A 
HETATM   14  C14 UNL     1      29.866  -0.686  53.768  1.00  0.00    -0.003 A 
HETATM   15  C15 UNL     1      29.142  -1.743  53.462  1.00  0.00    -0.022 A 
HETATM   16  C16 UNL     1      27.886  -1.258  52.885  1.00  0.00     0.068 A 
ENDBRANCH   1  12
BRANCH   2  17
HETATM   17  N2  UNL     1      26.446   3.214  51.458  1.00  0.00    -0.248 N 
HETATM   18  H10 UNL     1      26.208   3.811  52.276  1.00  0.00     0.191 HD
BRANCH  17  19
HETATM   19  C11 UNL     1      25.714   3.736  50.341  1.00  0.00     0.298 A 
HETATM   20  N3  UNL     1      24.844   4.262  49.350  1.00  0.00     0.038 N 
HETATM   21  H11 UNL     1      25.712   4.549  48.806  1.00  0.00     0.302 HD
HETATM   22  H12 UNL     1      25.692   4.559  48.784  1.00  0.00     0.302 HD
HETATM   23  S1  UNL     1      24.293   3.928  51.126  1.00  0.00     0.143 SA
ENDBRANCH  17  19
ENDBRANCH   2  17
TORSDOF 5
ENDMDL
MODEL 4
REMARK VINA RESULT:      -7.9      2.888      4.937
REMARK  5 active torsions:
REMARK  status: ('A' for Active; 'I' for Inactive)
REMARK    1  A    between atoms: C7_7  and  C8_8 
REMARK    2  A    between atoms: C9_9  and  C10_10 
REMARK    3  A    between atoms: C10_10  and  C12_16 
REMARK    4  A    between atoms: N1_11  and  N2_12 
REMARK    5  A    between atoms: N2_12  and  C11_13 
ROOT
HETATM    1  C10 UNL     1      24.646  -0.158  53.757  1.00  0.00     0.083 C 
HETATM    2  N1  UNL     1      25.561  -0.831  54.359  1.00  0.00    -0.173 NA
ENDROOT
BRANCH   1   3
HETATM    3  C9  UNL     1      24.823   0.996  52.926  1.00  0.00     0.035 C 
HETATM    4  C8  UNL     1      24.993   1.560  51.773  1.00  0.00     0.014 C 
BRANCH   4   5
HETATM    5  C7  UNL     1      25.173   2.672  50.877  1.00  0.00    -0.030 A 
HETATM    6  C2  UNL     1      24.144   3.515  50.535  1.00  0.00    -0.052 A 
HETATM    7  C1  UNL     1      22.760   3.377  51.032  1.00  0.00     0.049 C 
HETATM    8  C3  UNL     1      24.451   4.541  49.671  1.00  0.00     0.007 A 
HETATM    9  C4  UNL     1      25.745   4.631  49.232  1.00  0.00     0.001 A 
HETATM   10  C5  UNL     1      26.808   3.811  49.548  1.00  0.00     0.001 A 
HETATM   11  C6  UNL     1      26.471   2.798  50.410  1.00  0.00     0.012 A 
ENDBRANCH   4   5
ENDBRANCH   1   3
BRANCH   1  12
HETATM   12  C12 UNL     1      23.271  -0.595  53.926  1.00  0.00    -0.024 A 
HETATM   13  C13 UNL     1      22.762  -1.297  54.947  1.00  0.00     0.009 A 
HETATM   14  C14 UNL     1      21.348  -1.532  54.740  1.00  0.00    -0.003 A 
HETATM   15  C15 UNL     1      20.967  -0.987  53.603  1.00  0.00    -0.022 A 
HETATM   16  C16 UNL     1      22.147  -0.358  53.005  1.00  0.00     0.068 A 
ENDBRANCH   1  12
BRANCH   2  17
HETATM   17  N2  UNL     1      26.904  -0.494  54.265  1.00  0.00    -0.248 N 
HETATM   18  H10 UNL     1      27.343  -1.248  53.701  1.00  0.00     0.191 HD
BRANCH  17  19
HETATM   19  C11 UNL     1      27.947   0.431  54.600  1.00  0.00     0.298 A 
HETATM   20  N3  UNL     1      29.096   1.229  54.845  1.00  0.00     0.038 N 
HETATM   21  H11 UNL     1      28.436   2.049  55.005  1.00  0.00     0.302 HD
HETATM   22  H12 UNL     1      28.462   2.064  55.011  1.00  0.00     0.302 HD
HETATM   23  S1  UNL     1      29.167  -0.411  53.912  1.00  0.00     0.143 SA
ENDBRANCH  17  19
ENDBRANCH   2  17
TORSDOF 5
ENDMDL
MODEL 5
REMARK VINA RESULT:      -7.6      2.565      6.333
REMARK  5 active torsions:
REMARK  status: ('A' for Active; 'I' for Inactive)
REMARK    1  A    between atoms: C7_7  and  C8_8 
REMARK    2  A    between atoms: C9_9  and  C10_10 
REMARK    3  A    between atoms: C10_10  and  C12_16 
REMARK    4  A    between atoms: N1_11  and  N2_12 
REMARK    5  A    between atoms: N2_12  and  C11_13 
ROOT
HETATM    1  C10 UNL     1      26.173   2.230  51.765  1.00  0.00     0.083 C 
HETATM    2  N1  UNL     1      27.402   1.936  52.002  1.00  0.00    -0.173 NA
ENDROOT
BRANCH   1   3
HETATM    3  C9  UNL     1      25.011   1.641  52.360  1.00  0.00     0.035 C 
HETATM    4  C8  UNL     1      24.229   0.635  52.592  1.00  0.00     0.014 C 
BRANCH   4   5
HETATM    5  C7  UNL     1      23.081  -0.023  53.159  1.00  0.00    -0.030 A 
HETATM    6  C2  UNL     1      21.838   0.040  52.579  1.00  0.00    -0.052 A 
HETATM    7  C1  UNL     1      21.539   0.780  51.336  1.00  0.00     0.049 C 
HETATM    8  C3  UNL     1      20.826  -0.636  53.221  1.00  0.00     0.007 A 
HETATM    9  C4  UNL     1      21.144  -1.307  54.371  1.00  0.00     0.001 A 
HETATM   10  C5  UNL     1      22.374  -1.398  54.988  1.00  0.00     0.001 A 
HETATM   11  C6  UNL     1      23.363  -0.714  54.326  1.00  0.00     0.012 A 
ENDBRANCH   4   5
ENDBRANCH   1   3
BRANCH   1  12
HETATM   12  C12 UNL     1      25.910   3.271  50.786  1.00  0.00    -0.024 A 
HETATM   13  C13 UNL     1      26.717   3.679  49.798  1.00  0.00     0.009 A 
HETATM   14  C14 UNL     1      26.086   4.740  49.040  1.00  0.00    -0.003 A 
HETATM   15  C15 UNL     1      24.896   5.000  49.541  1.00  0.00    -0.022 A 
HETATM   16  C16 UNL     1      24.696   4.096  50.676  1.00  0.00     0.068 A 
ENDBRANCH   1  12
BRANCH   2  17
HETATM   17  N2  UNL     1      27.760   0.956  52.916  1.00  0.00    -0.248 N 
HETATM   18  H10 UNL     1      27.901   1.452  53.819  1.00  0.00     0.191 HD
BRANCH  17  19
HETATM   19  C11 UNL     1      28.020  -0.433  53.165  1.00  0.00     0.298 A 
HETATM   20  N3  UNL     1      28.444  -1.753  53.469  1.00  0.00     0.038 N 
HETATM   21  H11 UNL     1      27.417  -2.029  53.494  1.00  0.00     0.302 HD
HETATM   22  H12 UNL     1      27.428  -2.057  53.500  1.00  0.00     0.302 HD
HETATM   23  S1  UNL     1      29.543  -0.238  53.723  1.00  0.00     0.143 SA
ENDBRANCH  17  19
ENDBRANCH   2  17
TORSDOF 5
ENDMDL
MODEL 6
REMARK VINA RESULT:      -7.5      2.735      5.709
REMARK  5 active torsions:
REMARK  status: ('A' for Active; 'I' for Inactive)
REMARK    1  A    between atoms: C7_7  and  C8_8 
REMARK    2  A    between atoms: C9_9  and  C10_10 
REMARK    3  A    between atoms: C10_10  and  C12_16 
REMARK    4  A    between atoms: N1_11  and  N2_12 
REMARK    5  A    between atoms: N2_12  and  C11_13 
ROOT
HETATM    1  C10 UNL     1      25.736   3.633  49.729  1.00  0.00     0.083 C 
HETATM    2  N1  UNL     1      24.497   3.526  49.404  1.00  0.00    -0.173 NA
ENDROOT
BRANCH   1   3
HETATM    3  C9  UNL     1      26.476   2.786  50.617  1.00  0.00     0.035 C 
HETATM    4  C8  UNL     1      26.904   2.458  51.794  1.00  0.00     0.014 C 
BRANCH   4   5
HETATM    5  C7  UNL     1      27.625   1.652  52.743  1.00  0.00    -0.030 A 
HETATM    6  C2  UNL     1      27.426   0.298  52.859  1.00  0.00    -0.052 A 
HETATM    7  C1  UNL     1      26.466  -0.471  52.043  1.00  0.00     0.049 C 
HETATM    8  C3  UNL     1      28.182  -0.355  53.805  1.00  0.00     0.007 A 
HETATM    9  C4  UNL     1      29.058   0.395  54.543  1.00  0.00     0.001 A 
HETATM   10  C5  UNL     1      29.291   1.752  54.461  1.00  0.00     0.001 A 
HETATM   11  C6  UNL     1      28.524   2.376  53.510  1.00  0.00     0.012 A 
ENDBRANCH   4   5
ENDBRANCH   1   3
BRANCH   1  12
HETATM   12  C12 UNL     1      26.491   4.729  49.145  1.00  0.00    -0.024 A 
HETATM   13  C13 UNL     1      27.754   4.699  48.701  1.00  0.00     0.009 A 
HETATM   14  C14 UNL     1      28.138   5.999  48.192  1.00  0.00    -0.003 A 
HETATM   15  C15 UNL     1      27.132   6.841  48.311  1.00  0.00    -0.022 A 
HETATM   16  C16 UNL     1      26.021   6.106  48.920  1.00  0.00     0.068 A 
ENDBRANCH   1  12
BRANCH   2  17
HETATM   17  N2  UNL     1      23.689   2.517  49.908  1.00  0.00    -0.248 N 
HETATM   18  H10 UNL     1      24.318   1.704  50.061  1.00  0.00     0.191 HD
BRANCH  17  19
HETATM   19  C11 UNL     1      22.376   2.103  50.311  1.00  0.00     0.298 A 
HETATM   20  N3  UNL     1      21.160   1.614  50.855  1.00  0.00     0.038 N 
HETATM   21  H11 UNL     1      20.656   2.338  50.261  1.00  0.00     0.302 HD
HETATM   22  H12 UNL     1      20.630   2.325  50.273  1.00  0.00     0.302 HD
HETATM   23  S1  UNL     1      22.838   1.327  51.672  1.00  0.00     0.143 SA
ENDBRANCH  17  19
ENDBRANCH   2  17
TORSDOF 5
ENDMDL
MODEL 7
REMARK VINA RESULT:      -7.5      2.730      6.115
REMARK  5 active torsions:
REMARK  status: ('A' for Active; 'I' for Inactive)
REMARK    1  A    between atoms: C7_7  and  C8_8 
REMARK    2  A    between atoms: C9_9  and  C10_10 
REMARK    3  A    between atoms: C10_10  and  C12_16 
REMARK    4  A    between atoms: N1_11  and  N2_12 
REMARK    5  A    between atoms: N2_12  and  C11_13 
ROOT
HETATM    1  C10 UNL     1      25.525  -0.101  52.857  1.00  0.00     0.083 C 
HETATM    2  N1  UNL     1      24.571  -0.650  53.520  1.00  0.00    -0.173 NA
ENDROOT
BRANCH   1   3
HETATM    3  C9  UNL     1      25.428   1.008  51.955  1.00  0.00     0.035 C 
HETATM    4  C8  UNL     1      25.719   2.215  51.590  1.00  0.00     0.014 C 
BRANCH   4   5
HETATM    5  C7  UNL     1      25.669   3.368  50.730  1.00  0.00    -0.030 A 
HETATM    6  C2  UNL     1      24.627   4.262  50.761  1.00  0.00    -0.052 A 
HETATM    7  C1  UNL     1      23.460   4.145  51.658  1.00  0.00     0.049 C 
HETATM    8  C3  UNL     1      24.702   5.323  49.888  1.00  0.00     0.007 A 
HETATM    9  C4  UNL     1      25.799   5.394  49.072  1.00  0.00     0.001 A 
HETATM   10  C5  UNL     1      26.866   4.522  49.006  1.00  0.00     0.001 A 
HETATM   11  C6  UNL     1      26.763   3.475  49.887  1.00  0.00     0.012 A 
ENDBRANCH   4   5
ENDBRANCH   1   3
BRANCH   1  12
HETATM   12  C12 UNL     1      26.860  -0.652  53.022  1.00  0.00    -0.024 A 
HETATM   13  C13 UNL     1      27.271  -1.888  52.713  1.00  0.00     0.009 A 
HETATM   14  C14 UNL     1      28.677  -2.043  53.029  1.00  0.00    -0.003 A 
HETATM   15  C15 UNL     1      29.148  -0.920  53.532  1.00  0.00    -0.022 A 
HETATM   16  C16 UNL     1      28.041   0.039  53.565  1.00  0.00     0.068 A 
ENDBRANCH   1  12
BRANCH   2  17
HETATM   17  N2  UNL     1      23.261  -0.203  53.431  1.00  0.00    -0.248 N 
HETATM   18  H10 UNL     1      23.141   0.120  52.450  1.00  0.00     0.191 HD
BRANCH  17  19
HETATM   19  C11 UNL     1      22.004   0.010  54.090  1.00  0.00     0.298 A 
HETATM   20  N3  UNL     1      20.767   0.039  54.784  1.00  0.00     0.038 N 
HETATM   21  H11 UNL     1      20.892   1.092  54.871  1.00  0.00     0.302 HD
HETATM   22  H12 UNL     1      20.865   1.091  54.885  1.00  0.00     0.302 HD
HETATM   23  S1  UNL     1      21.799  -1.531  54.593  1.00  0.00     0.143 SA
ENDBRANCH  17  19
ENDBRANCH   2  17
TORSDOF 5
ENDMDL
MODEL 8
REMARK VINA RESULT:      -7.2      2.912      6.357
REMARK  5 active torsions:
REMARK  status: ('A' for Active; 'I' for Inactive)
REMARK    1  A    between atoms: C7_7  and  C8_8 
REMARK    2  A    between atoms: C9_9  and  C10_10 
REMARK    3  A    between atoms: C10_10  and  C12_16 
REMARK    4  A    between atoms: N1_11  and  N2_12 
REMARK    5  A    between atoms: N2_12  and  C11_13 
ROOT
HETATM    1  C10 UNL     1      25.053  -0.112  53.538  1.00  0.00     0.083 C 
HETATM    2  N1  UNL     1      24.285  -0.703  54.382  1.00  0.00    -0.173 NA
ENDROOT
BRANCH   1   3
HETATM    3  C9  UNL     1      24.658   0.704  52.429  1.00  0.00     0.035 C 
HETATM    4  C8  UNL     1      24.591   1.840  51.810  1.00  0.00     0.014 C 
BRANCH   4   5
HETATM    5  C7  UNL     1      24.226   2.719  50.731  1.00  0.00    -0.030 A 
HETATM    6  C2  UNL     1      25.157   3.439  50.023  1.00  0.00    -0.052 A 
HETATM    7  C1  UNL     1      26.610   3.400  50.285  1.00  0.00     0.049 C 
HETATM    8  C3  UNL     1      24.676   4.242  49.014  1.00  0.00     0.007 A 
HETATM    9  C4  UNL     1      23.323   4.253  48.806  1.00  0.00     0.001 A 
HETATM   10  C5  UNL     1      22.353   3.548  49.489  1.00  0.00     0.001 A 
HETATM   11  C6  UNL     1      22.863   2.758  50.488  1.00  0.00     0.012 A 
ENDBRANCH   4   5
ENDBRANCH   1   3
BRANCH   1  12
HETATM   12  C12 UNL     1      26.488  -0.279  53.705  1.00  0.00    -0.024 A 
HETATM   13  C13 UNL     1      27.260   0.250  54.663  1.00  0.00     0.009 A 
HETATM   14  C14 UNL     1      28.638  -0.157  54.478  1.00  0.00    -0.003 A 
HETATM   15  C15 UNL     1      28.736  -0.932  53.417  1.00  0.00    -0.022 A 
HETATM   16  C16 UNL     1      27.393  -1.067  52.851  1.00  0.00     0.068 A 
ENDBRANCH   1  12
BRANCH   2  17
HETATM   17  N2  UNL     1      22.903  -0.610  54.308  1.00  0.00    -0.248 N 
HETATM   18  H10 UNL     1      22.699   0.391  54.115  1.00  0.00     0.191 HD
BRANCH  17  19
HETATM   19  C11 UNL     1      21.637  -1.281  54.379  1.00  0.00     0.298 A 
HETATM   20  N3  UNL     1      20.312  -1.790  54.379  1.00  0.00     0.038 N 
HETATM   21  H11 UNL     1      20.735  -2.765  54.428  1.00  0.00     0.302 HD
HETATM   22  H12 UNL     1      20.705  -2.774  54.429  1.00  0.00     0.302 HD
HETATM   23  S1  UNL     1      20.744  -0.053  53.776  1.00  0.00     0.143 SA
ENDBRANCH  17  19
ENDBRANCH   2  17
TORSDOF 5
ENDMDL
MODEL 9
REMARK VINA RESULT:      -7.1      6.981      9.910
REMARK  5 active torsions:
REMARK  status: ('A' for Active; 'I' for Inactive)
REMARK    1  A    between atoms: C7_7  and  C8_8 
REMARK    2  A    between atoms: C9_9  and  C10_10 
REMARK    3  A    between atoms: C10_10  and  C12_16 
REMARK    4  A    between atoms: N1_11  and  N2_12 
REMARK    5  A    between atoms: N2_12  and  C11_13 
ROOT
HETATM    1  C10 UNL     1      31.451   5.813  48.060  1.00  0.00     0.083 C 
HETATM    2  N1  UNL     1      32.147   6.890  47.990  1.00  0.00    -0.173 NA
ENDROOT
BRANCH   1   3
HETATM    3  C9  UNL     1      30.082   5.689  48.466  1.00  0.00     0.035 C 
HETATM    4  C8  UNL     1      28.816   5.601  48.211  1.00  0.00     0.014 C 
BRANCH   4   5
HETATM    5  C7  UNL     1      27.422   5.478  48.547  1.00  0.00    -0.030 A 
HETATM    6  C2  UNL     1      26.526   6.500  48.348  1.00  0.00    -0.052 A 
HETATM    7  C1  UNL     1      26.882   7.817  47.783  1.00  0.00     0.049 C 
HETATM    8  C3  UNL     1      25.221   6.252  48.709  1.00  0.00     0.007 A 
HETATM    9  C4  UNL     1      24.933   5.019  49.231  1.00  0.00     0.001 A 
HETATM   10  C5  UNL     1      25.797   3.966  49.448  1.00  0.00     0.001 A 
HETATM   11  C6  UNL     1      27.090   4.243  49.079  1.00  0.00     0.012 A 
ENDBRANCH   4   5
ENDBRANCH   1   3
BRANCH   1  12
HETATM   12  C12 UNL     1      32.103   4.567  47.692  1.00  0.00    -0.024 A 
HETATM   13  C13 UNL     1      31.568   3.537  47.025  1.00  0.00     0.009 A 
HETATM   14  C14 UNL     1      32.548   2.483  46.859  1.00  0.00    -0.003 A 
HETATM   15  C15 UNL     1      33.687   2.841  47.413  1.00  0.00    -0.022 A 
HETATM   16  C16 UNL     1      33.494   4.178  47.979  1.00  0.00     0.068 A 
ENDBRANCH   1  12
BRANCH   2  17
HETATM   17  N2  UNL     1      31.619   8.130  48.322  1.00  0.00    -0.248 N 
HETATM   18  H10 UNL     1      31.529   8.646  47.424  1.00  0.00     0.191 HD
BRANCH  17  19
HETATM   19  C11 UNL     1      31.144   9.009  49.351  1.00  0.00     0.298 A 
HETATM   20  N3  UNL     1      30.582   9.968  50.234  1.00  0.00     0.038 N 
HETATM   21  H11 UNL     1      30.787   9.289  51.028  1.00  0.00     0.302 HD
HETATM   22  H12 UNL     1      30.775   9.312  51.046  1.00  0.00     0.302 HD
HETATM   23  S1  UNL     1      30.243   9.962  48.376  1.00  0.00     0.143 SA
ENDBRANCH  17  19
ENDBRANCH   2  17
TORSDOF 5
ENDMDL
