MODEL 1
REMARK VINA RESULT:      -7.6      0.000      0.000
REMARK  9 active torsions:
REMARK  status: ('A' for Active; 'I' for Inactive)
REMARK    1  A    between atoms: C2_2  and  C3_3 
REMARK       I    between atoms: C3_3  and  N1_5 
REMARK    2  A    between atoms: N1_5  and  C4_6 
REMARK    3  A    between atoms: C6_8  and  N2_9 
REMARK    4  A    between atoms: N2_9  and  C7_10 
REMARK    5  A    between atoms: C12_18  and  O2_19 
REMARK    6  A    between atoms: C15_22  and  C16_23 
REMARK    7  A    between atoms: C16_23  and  N6_24 
REMARK    8  A    between atoms: N6_24  and  C18_26 
REMARK    9  A    between atoms: C18_26  and  C19_27 
ROOT
HETATM    1  C4  UNL     1      22.667   1.821  52.159  1.00  0.00     0.045 A 
HETATM    2  C5  UNL     1      23.696   2.081  53.036  1.00  0.00     0.063 A 
HETATM    3  C6  UNL     1      24.923   2.550  52.622  1.00  0.00     0.085 A 
HETATM    4  C12 UNL     1      25.025   2.733  51.257  1.00  0.00     0.096 A 
HETATM    5  C14 UNL     1      24.001   2.473  50.379  1.00  0.00     0.050 A 
HETATM    6  C15 UNL     1      22.775   2.004  50.801  1.00  0.00    -0.011 A 
ENDROOT
BRANCH   3   7
HETATM    7  N2  UNL     1      26.015   2.838  53.471  1.00  0.00    -0.185 N 
HETATM    8  H8  UNL     1      25.947   3.744  54.013  1.00  0.00     0.184 HD
BRANCH   7   9
HETATM    9  C7  UNL     1      27.179   2.053  53.671  1.00  0.00     0.727 A 
HETATM   10  N3  UNL     1      28.333   2.422  54.233  1.00  0.00    -0.073 NA
HETATM   11  C8  UNL     1      29.412   1.649  54.404  1.00  0.00     0.167 A 
HETATM   12  C9  UNL     1      29.331   0.347  53.962  1.00  0.00     0.074 A 
HETATM   13  C10 UNL     1      28.166  -0.091  53.375  1.00  0.00     0.099 A 
HETATM   14  N5  UNL     1      29.967  -0.917  53.807  1.00  0.00    -0.381 N 
HETATM   15  N4  UNL     1      27.167   0.775  53.264  1.00  0.00    -0.063 NA
HETATM   16  C11 UNL     1      28.747  -1.442  53.173  1.00  0.00     0.182 A 
HETATM   17  H12 UNL     1      30.892  -1.344  54.027  1.00  0.00     0.160 HD
ENDBRANCH   7   9
ENDBRANCH   3   7
BRANCH   4  18
HETATM   18  O2  UNL     1      26.220   3.201  50.735  1.00  0.00    -0.354 OA
HETATM   19  C13 UNL     1      26.299   3.839  49.475  1.00  0.00     0.210 C 
ENDBRANCH   4  18
BRANCH   1  20
HETATM   20  N1  UNL     1      21.436   1.359  52.689  1.00  0.00    -0.327 N 
HETATM   21  C3  UNL     1      21.619   0.022  53.098  1.00  0.00     0.221 C 
HETATM   22  O1  UNL     1      22.603  -0.796  53.085  1.00  0.00    -0.273 OA
HETATM   23  H6  UNL     1      20.439   1.542  52.922  1.00  0.00     0.169 HD
BRANCH  21  24
HETATM   24  C2  UNL     1      20.701  -0.974  53.719  1.00  0.00     0.098 C 
HETATM   25  C1  UNL     1      21.560  -1.887  54.565  1.00  0.00     0.014 C 
ENDBRANCH  21  24
ENDBRANCH   1  20
BRANCH   6  26
HETATM   26  C16 UNL     1      21.748   1.740  49.792  1.00  0.00     0.157 C 
BRANCH  26  27
HETATM   27  N6  UNL     1      21.069   2.861  49.258  1.00  0.00    -0.412 N 
HETATM   28  C17 UNL     1      19.932   3.354  49.941  1.00  0.00     0.143 C 
BRANCH  27  29
HETATM   29  C18 UNL     1      20.937   2.932  47.844  1.00  0.00     0.120 C 
BRANCH  29  30
HETATM   30  C19 UNL     1      22.130   3.493  47.113  1.00  0.00    -0.005 C 
HETATM   31  C20 UNL     1      22.627   4.773  47.732  1.00  0.00     0.011 C 
HETATM   32  C21 UNL     1      21.811   3.697  45.639  1.00  0.00     0.011 C 
ENDBRANCH  29  30
ENDBRANCH  27  29
ENDBRANCH  26  27
ENDBRANCH   6  26
TORSDOF 9
ENDMDL
MODEL 2
REMARK VINA RESULT:      -7.5      1.577      4.072
REMARK  9 active torsions:
REMARK  status: ('A' for Active; 'I' for Inactive)
REMARK    1  A    between atoms: C2_2  and  C3_3 
REMARK       I    between atoms: C3_3  and  N1_5 
REMARK    2  A    between atoms: N1_5  and  C4_6 
REMARK    3  A    between atoms: C6_8  and  N2_9 
REMARK    4  A    between atoms: N2_9  and  C7_10 
REMARK    5  A    between atoms: C12_18  and  O2_19 
REMARK    6  A    between atoms: C15_22  and  C16_23 
REMARK    7  A    between atoms: C16_23  and  N6_24 
REMARK    8  A    between atoms: N6_24  and  C18_26 
REMARK    9  A    between atoms: C18_26  and  C19_27 
ROOT
HETATM    1  C4  UNL     1      23.903   3.452  52.075  1.00  0.00     0.045 A 
HETATM    2  C5  UNL     1      24.685   2.524  52.727  1.00  0.00     0.063 A 
HETATM    3  C6  UNL     1      24.181   1.338  53.212  1.00  0.00     0.085 A 
HETATM    4  C12 UNL     1      22.829   1.167  52.986  1.00  0.00     0.096 A 
HETATM    5  C14 UNL     1      22.046   2.090  52.337  1.00  0.00     0.050 A 
HETATM    6  C15 UNL     1      22.558   3.276  51.854  1.00  0.00    -0.011 A 
ENDROOT
BRANCH   3   7
HETATM    7  N2  UNL     1      24.930   0.348  53.885  1.00  0.00    -0.185 N 
HETATM    8  H8  UNL     1      24.364  -0.392  54.386  1.00  0.00     0.184 HD
BRANCH   7   9
HETATM    9  C7  UNL     1      26.342   0.239  53.959  1.00  0.00     0.727 A 
HETATM   10  N3  UNL     1      27.211   1.133  54.439  1.00  0.00    -0.073 NA
HETATM   11  C8  UNL     1      28.541   0.993  54.492  1.00  0.00     0.167 A 
HETATM   12  C9  UNL     1      29.071  -0.182  54.007  1.00  0.00     0.074 A 
HETATM   13  C10 UNL     1      28.224  -1.142  53.500  1.00  0.00     0.099 A 
HETATM   14  N5  UNL     1      30.229  -0.969  53.752  1.00  0.00    -0.381 N 
HETATM   15  N4  UNL     1      26.923  -0.882  53.505  1.00  0.00    -0.063 NA
HETATM   16  C11 UNL     1      29.373  -2.031  53.200  1.00  0.00     0.182 A 
HETATM   17  H12 UNL     1      31.260  -0.884  53.879  1.00  0.00     0.160 HD
ENDBRANCH   7   9
ENDBRANCH   3   7
BRANCH   4  18
HETATM   18  O2  UNL     1      22.222   0.005  53.435  1.00  0.00    -0.354 OA
HETATM   19  C13 UNL     1      21.218   0.010  54.432  1.00  0.00     0.210 C 
ENDBRANCH   4  18
BRANCH   1  20
HETATM   20  N1  UNL     1      24.524   4.634  51.598  1.00  0.00    -0.327 N 
HETATM   21  C3  UNL     1      25.186   4.316  50.394  1.00  0.00     0.221 C 
HETATM   22  O1  UNL     1      25.328   3.251  49.700  1.00  0.00    -0.273 OA
HETATM   23  H6  UNL     1      24.729   5.646  51.720  1.00  0.00     0.169 HD
BRANCH  21  24
HETATM   24  C2  UNL     1      25.998   5.132  49.449  1.00  0.00     0.098 C 
HETATM   25  C1  UNL     1      27.169   4.271  49.028  1.00  0.00     0.014 C 
ENDBRANCH  21  24
ENDBRANCH   1  20
BRANCH   6  26
HETATM   26  C16 UNL     1      21.645   4.207  51.191  1.00  0.00     0.157 C 
BRANCH  26  27
HETATM   27  N6  UNL     1      21.635   4.197  49.775  1.00  0.00    -0.412 N 
HETATM   28  C17 UNL     1      21.942   5.394  49.086  1.00  0.00     0.143 C 
BRANCH  27  29
HETATM   29  C18 UNL     1      20.616   3.437  49.135  1.00  0.00     0.120 C 
BRANCH  29  30
HETATM   30  C19 UNL     1      21.088   2.187  48.437  1.00  0.00    -0.005 C 
HETATM   31  C20 UNL     1      20.888   0.954  49.280  1.00  0.00     0.011 C 
HETATM   32  C21 UNL     1      22.544   2.322  48.019  1.00  0.00     0.011 C 
ENDBRANCH  29  30
ENDBRANCH  27  29
ENDBRANCH  26  27
ENDBRANCH   6  26
TORSDOF 9
ENDMDL
MODEL 3
REMARK VINA RESULT:      -7.5      1.975      4.581
REMARK  9 active torsions:
REMARK  status: ('A' for Active; 'I' for Inactive)
REMARK    1  A    between atoms: C2_2  and  C3_3 
REMARK       I    between atoms: C3_3  and  N1_5 
REMARK    2  A    between atoms: N1_5  and  C4_6 
REMARK    3  A    between atoms: C6_8  and  N2_9 
REMARK    4  A    between atoms: N2_9  and  C7_10 
REMARK    5  A    between atoms: C12_18  and  O2_19 
REMARK    6  A    between atoms: C15_22  and  C16_23 
REMARK    7  A    between atoms: C16_23  and  N6_24 
REMARK    8  A    between atoms: N6_24  and  C18_26 
REMARK    9  A    between atoms: C18_26  and  C19_27 
ROOT
HETATM    1  C4  UNL     1      23.070   1.540  51.089  1.00  0.00     0.045 A 
HETATM    2  C5  UNL     1      24.109   1.301  51.960  1.00  0.00     0.063 A 
HETATM    3  C6  UNL     1      23.951   0.588  53.127  1.00  0.00     0.085 A 
HETATM    4  C12 UNL     1      22.662   0.138  53.341  1.00  0.00     0.096 A 
HETATM    5  C14 UNL     1      21.623   0.375  52.475  1.00  0.00     0.050 A 
HETATM    6  C15 UNL     1      21.790   1.090  51.308  1.00  0.00    -0.011 A 
ENDROOT
BRANCH   3   7
HETATM    7  N2  UNL     1      24.975   0.308  54.059  1.00  0.00    -0.185 N 
HETATM    8  H8  UNL     1      24.663  -0.159  54.955  1.00  0.00     0.184 HD
BRANCH   7   9
HETATM    9  C7  UNL     1      26.360   0.582  53.922  1.00  0.00     0.727 A 
HETATM   10  N3  UNL     1      26.962   1.773  53.883  1.00  0.00    -0.073 NA
HETATM   11  C8  UNL     1      28.277   1.990  53.752  1.00  0.00     0.167 A 
HETATM   12  C9  UNL     1      29.092   0.885  53.648  1.00  0.00     0.074 A 
HETATM   13  C10 UNL     1      28.527  -0.371  53.684  1.00  0.00     0.099 A 
HETATM   14  N5  UNL     1      30.408   0.365  53.503  1.00  0.00    -0.381 N 
HETATM   15  N4  UNL     1      27.209  -0.451  53.817  1.00  0.00    -0.063 NA
HETATM   16  C11 UNL     1      29.862  -1.001  53.536  1.00  0.00     0.182 A 
HETATM   17  H12 UNL     1      31.377   0.740  53.409  1.00  0.00     0.160 HD
ENDBRANCH   7   9
ENDBRANCH   3   7
BRANCH   4  18
HETATM   18  O2  UNL     1      22.394  -0.591  54.489  1.00  0.00    -0.354 OA
HETATM   19  C13 UNL     1      21.533  -1.714  54.490  1.00  0.00     0.210 C 
ENDBRANCH   4  18
BRANCH   1  20
HETATM   20  N1  UNL     1      23.343   2.270  49.905  1.00  0.00    -0.327 N 
HETATM   21  C3  UNL     1      23.482   3.628  50.258  1.00  0.00     0.221 C 
HETATM   22  O1  UNL     1      23.415   4.282  51.356  1.00  0.00    -0.273 OA
HETATM   23  H6  UNL     1      23.489   2.279  48.875  1.00  0.00     0.169 HD
BRANCH  21  24
HETATM   24  C2  UNL     1      23.769   4.850  49.458  1.00  0.00     0.098 C 
HETATM   25  C1  UNL     1      25.264   4.880  49.231  1.00  0.00     0.014 C 
ENDBRANCH  21  24
ENDBRANCH   1  20
BRANCH   6  26
HETATM   26  C16 UNL     1      20.621   1.307  50.454  1.00  0.00     0.157 C 
BRANCH  26  27
HETATM   27  N6  UNL     1      19.626   2.189  50.941  1.00  0.00    -0.412 N 
HETATM   28  C17 UNL     1      20.009   3.216  51.835  1.00  0.00     0.143 C 
BRANCH  27  29
HETATM   29  C18 UNL     1      18.356   1.631  51.252  1.00  0.00     0.120 C 
BRANCH  29  30
HETATM   30  C19 UNL     1      18.208   0.160  50.957  1.00  0.00    -0.005 C 
HETATM   31  C20 UNL     1      17.092  -0.117  49.984  1.00  0.00     0.011 C 
HETATM   32  C21 UNL     1      18.009  -0.629  52.242  1.00  0.00     0.011 C 
ENDBRANCH  29  30
ENDBRANCH  27  29
ENDBRANCH  26  27
ENDBRANCH   6  26
TORSDOF 9
ENDMDL
MODEL 4
REMARK VINA RESULT:      -7.5      2.074      8.275
REMARK  9 active torsions:
REMARK  status: ('A' for Active; 'I' for Inactive)
REMARK    1  A    between atoms: C2_2  and  C3_3 
REMARK       I    between atoms: C3_3  and  N1_5 
REMARK    2  A    between atoms: N1_5  and  C4_6 
REMARK    3  A    between atoms: C6_8  and  N2_9 
REMARK    4  A    between atoms: N2_9  and  C7_10 
REMARK    5  A    between atoms: C12_18  and  O2_19 
REMARK    6  A    between atoms: C15_22  and  C16_23 
REMARK    7  A    between atoms: C16_23  and  N6_24 
REMARK    8  A    between atoms: N6_24  and  C18_26 
REMARK    9  A    between atoms: C18_26  and  C19_27 
ROOT
HETATM    1  C4  UNL     1      24.660   2.538  52.124  1.00  0.00     0.045 A 
HETATM    2  C5  UNL     1      23.288   2.569  52.238  1.00  0.00     0.063 A 
HETATM    3  C6  UNL     1      22.553   1.480  52.651  1.00  0.00     0.085 A 
HETATM    4  C12 UNL     1      23.313   0.363  52.937  1.00  0.00     0.096 A 
HETATM    5  C14 UNL     1      24.682   0.329  52.823  1.00  0.00     0.050 A 
HETATM    6  C15 UNL     1      25.411   1.423  52.410  1.00  0.00    -0.011 A 
ENDROOT
BRANCH   3   7
HETATM    7  N2  UNL     1      21.147   1.450  52.790  1.00  0.00    -0.185 N 
HETATM    8  H8  UNL     1      20.783   1.544  53.779  1.00  0.00     0.184 HD
BRANCH   7   9
HETATM    9  C7  UNL     1      20.184   1.308  51.760  1.00  0.00     0.727 A 
HETATM   10  N3  UNL     1      20.148   1.927  50.577  1.00  0.00    -0.073 NA
HETATM   11  C8  UNL     1      19.218   1.766  49.628  1.00  0.00     0.167 A 
HETATM   12  C9  UNL     1      18.198   0.878  49.889  1.00  0.00     0.074 A 
HETATM   13  C10 UNL     1      18.182   0.208  51.092  1.00  0.00     0.099 A 
HETATM   14  N5  UNL     1      17.002   0.248  49.443  1.00  0.00    -0.381 N 
HETATM   15  N4  UNL     1      19.164   0.457  51.949  1.00  0.00    -0.063 NA
HETATM   16  C11 UNL     1      16.934  -0.497  50.710  1.00  0.00     0.182 A 
HETATM   17  H12 UNL     1      16.393   0.266  48.597  1.00  0.00     0.160 HD
ENDBRANCH   7   9
ENDBRANCH   3   7
BRANCH   4  18
HETATM   18  O2  UNL     1      22.670  -0.789  53.362  1.00  0.00    -0.354 OA
HETATM   19  C13 UNL     1      22.532  -1.120  54.730  1.00  0.00     0.210 C 
ENDBRANCH   4  18
BRANCH   1  20
HETATM   20  N1  UNL     1      25.324   3.719  51.708  1.00  0.00    -0.327 N 
HETATM   21  C3  UNL     1      25.199   3.813  50.307  1.00  0.00     0.221 C 
HETATM   22  O1  UNL     1      24.646   3.094  49.404  1.00  0.00    -0.273 OA
HETATM   23  H6  UNL     1      25.875   4.568  51.952  1.00  0.00     0.169 HD
BRANCH  21  24
HETATM   24  C2  UNL     1      25.682   4.817  49.319  1.00  0.00     0.098 C 
HETATM   25  C1  UNL     1      27.115   4.455  48.998  1.00  0.00     0.014 C 
ENDBRANCH  21  24
ENDBRANCH   1  20
BRANCH   6  26
HETATM   26  C16 UNL     1      26.864   1.288  52.303  1.00  0.00     0.157 C 
BRANCH  26  27
HETATM   27  N6  UNL     1      27.609   1.395  53.502  1.00  0.00    -0.412 N 
HETATM   28  C17 UNL     1      28.574   2.425  53.611  1.00  0.00     0.143 C 
BRANCH  27  29
HETATM   29  C18 UNL     1      28.020   0.185  54.125  1.00  0.00     0.120 C 
BRANCH  29  30
HETATM   30  C19 UNL     1      28.623  -0.842  53.201  1.00  0.00    -0.005 C 
HETATM   31  C20 UNL     1      27.738  -2.050  53.036  1.00  0.00     0.011 C 
HETATM   32  C21 UNL     1      30.007  -1.252  53.682  1.00  0.00     0.011 C 
ENDBRANCH  29  30
ENDBRANCH  27  29
ENDBRANCH  26  27
ENDBRANCH   6  26
TORSDOF 9
ENDMDL
MODEL 5
REMARK VINA RESULT:      -7.5      1.600      2.096
REMARK  9 active torsions:
REMARK  status: ('A' for Active; 'I' for Inactive)
REMARK    1  A    between atoms: C2_2  and  C3_3 
REMARK       I    between atoms: C3_3  and  N1_5 
REMARK    2  A    between atoms: N1_5  and  C4_6 
REMARK    3  A    between atoms: C6_8  and  N2_9 
REMARK    4  A    between atoms: N2_9  and  C7_10 
REMARK    5  A    between atoms: C12_18  and  O2_19 
REMARK    6  A    between atoms: C15_22  and  C16_23 
REMARK    7  A    between atoms: C16_23  and  N6_24 
REMARK    8  A    between atoms: N6_24  and  C18_26 
REMARK    9  A    between atoms: C18_26  and  C19_27 
ROOT
HETATM    1  C4  UNL     1      23.270   2.307  52.130  1.00  0.00     0.045 A 
HETATM    2  C5  UNL     1      24.438   2.194  52.851  1.00  0.00     0.063 A 
HETATM    3  C6  UNL     1      25.676   2.445  52.303  1.00  0.00     0.085 A 
HETATM    4  C12 UNL     1      25.638   2.816  50.973  1.00  0.00     0.096 A 
HETATM    5  C14 UNL     1      24.475   2.929  50.251  1.00  0.00     0.050 A 
HETATM    6  C15 UNL     1      23.239   2.677  50.806  1.00  0.00    -0.011 A 
ENDROOT
BRANCH   3   7
HETATM    7  N2  UNL     1      26.907   2.349  52.989  1.00  0.00    -0.185 N 
HETATM    8  H8  UNL     1      27.260   3.247  53.422  1.00  0.00     0.184 HD
BRANCH   7   9
HETATM    9  C7  UNL     1      27.710   1.193  53.157  1.00  0.00     0.727 A 
HETATM   10  N3  UNL     1      28.975   1.125  53.581  1.00  0.00    -0.073 NA
HETATM   11  C8  UNL     1      29.701   0.010  53.726  1.00  0.00     0.167 A 
HETATM   12  C9  UNL     1      29.093  -1.185  53.412  1.00  0.00     0.074 A 
HETATM   13  C10 UNL     1      27.788  -1.178  52.970  1.00  0.00     0.099 A 
HETATM   14  N5  UNL     1      29.191  -2.601  53.316  1.00  0.00    -0.381 N 
HETATM   15  N4  UNL     1      27.177  -0.004  52.869  1.00  0.00    -0.063 NA
HETATM   16  C11 UNL     1      27.800  -2.656  52.841  1.00  0.00     0.182 A 
HETATM   17  H12 UNL     1      29.910  -3.335  53.492  1.00  0.00     0.160 HD
ENDBRANCH   7   9
ENDBRANCH   3   7
BRANCH   4  18
HETATM   18  O2  UNL     1      26.832   3.091  50.324  1.00  0.00    -0.354 OA
HETATM   19  C13 UNL     1      26.924   4.034  49.273  1.00  0.00     0.210 C 
ENDBRANCH   4  18
BRANCH   1  20
HETATM   20  N1  UNL     1      22.045   2.045  52.794  1.00  0.00    -0.327 N 
HETATM   21  C3  UNL     1      21.989   0.661  53.062  1.00  0.00     0.221 C 
HETATM   22  O1  UNL     1      22.767  -0.330  52.839  1.00  0.00    -0.273 OA
HETATM   23  H6  UNL     1      21.147   2.397  53.182  1.00  0.00     0.169 HD
BRANCH  21  24
HETATM   24  C2  UNL     1      20.965  -0.193  53.726  1.00  0.00     0.098 C 
HETATM   25  C1  UNL     1      21.684  -1.431  54.214  1.00  0.00     0.014 C 
ENDBRANCH  21  24
ENDBRANCH   1  20
BRANCH   6  26
HETATM   26  C16 UNL     1      22.056   2.806  49.955  1.00  0.00     0.157 C 
BRANCH  26  27
HETATM   27  N6  UNL     1      21.608   4.120  49.675  1.00  0.00    -0.412 N 
HETATM   28  C17 UNL     1      21.926   4.691  48.420  1.00  0.00     0.143 C 
BRANCH  27  29
HETATM   29  C18 UNL     1      21.648   5.064  50.738  1.00  0.00     0.120 C 
BRANCH  29  30
HETATM   30  C19 UNL     1      22.413   6.330  50.446  1.00  0.00    -0.005 C 
HETATM   31  C20 UNL     1      23.699   6.411  51.228  1.00  0.00     0.011 C 
HETATM   32  C21 UNL     1      21.548   7.553  50.706  1.00  0.00     0.011 C 
ENDBRANCH  29  30
ENDBRANCH  27  29
ENDBRANCH  26  27
ENDBRANCH   6  26
TORSDOF 9
ENDMDL
MODEL 6
REMARK VINA RESULT:      -7.4      2.192      8.231
REMARK  9 active torsions:
REMARK  status: ('A' for Active; 'I' for Inactive)
REMARK    1  A    between atoms: C2_2  and  C3_3 
REMARK       I    between atoms: C3_3  and  N1_5 
REMARK    2  A    between atoms: N1_5  and  C4_6 
REMARK    3  A    between atoms: C6_8  and  N2_9 
REMARK    4  A    between atoms: N2_9  and  C7_10 
REMARK    5  A    between atoms: C12_18  and  O2_19 
REMARK    6  A    between atoms: C15_22  and  C16_23 
REMARK    7  A    between atoms: C16_23  and  N6_24 
REMARK    8  A    between atoms: N6_24  and  C18_26 
REMARK    9  A    between atoms: C18_26  and  C19_27 
ROOT
HETATM    1  C4  UNL     1      25.415   2.626  51.769  1.00  0.00     0.045 A 
HETATM    2  C5  UNL     1      24.268   3.336  52.045  1.00  0.00     0.063 A 
HETATM    3  C6  UNL     1      23.115   2.737  52.500  1.00  0.00     0.085 A 
HETATM    4  C12 UNL     1      23.215   1.367  52.651  1.00  0.00     0.096 A 
HETATM    5  C14 UNL     1      24.356   0.655  52.374  1.00  0.00     0.050 A 
HETATM    6  C15 UNL     1      25.508   1.263  51.920  1.00  0.00    -0.011 A 
ENDROOT
BRANCH   3   7
HETATM    7  N2  UNL     1      21.911   3.409  52.804  1.00  0.00    -0.185 N 
HETATM    8  H8  UNL     1      21.728   3.578  53.832  1.00  0.00     0.184 HD
BRANCH   7   9
HETATM    9  C7  UNL     1      20.933   3.876  51.890  1.00  0.00     0.727 A 
HETATM   10  N3  UNL     1      21.117   4.623  50.798  1.00  0.00    -0.073 NA
HETATM   11  C8  UNL     1      20.164   5.044  49.958  1.00  0.00     0.167 A 
HETATM   12  C9  UNL     1      18.867   4.676  50.239  1.00  0.00     0.074 A 
HETATM   13  C10 UNL     1      18.615   3.905  51.352  1.00  0.00     0.099 A 
HETATM   14  N5  UNL     1      17.493   4.725  49.875  1.00  0.00    -0.381 N 
HETATM   15  N4  UNL     1      19.649   3.552  52.105  1.00  0.00    -0.063 NA
HETATM   16  C11 UNL     1      17.162   3.901  51.048  1.00  0.00     0.182 A 
HETATM   17  H12 UNL     1      16.912   5.146  49.118  1.00  0.00     0.160 HD
ENDBRANCH   7   9
ENDBRANCH   3   7
BRANCH   4  18
HETATM   18  O2  UNL     1      22.109   0.665  53.103  1.00  0.00    -0.354 OA
HETATM   19  C13 UNL     1      22.060  -0.748  53.115  1.00  0.00     0.210 C 
ENDBRANCH   4  18
BRANCH   1  20
HETATM   20  N1  UNL     1      26.555   3.341  51.323  1.00  0.00    -0.327 N 
HETATM   21  C3  UNL     1      26.351   3.675  49.968  1.00  0.00     0.221 C 
HETATM   22  O1  UNL     1      25.410   3.473  49.124  1.00  0.00    -0.273 OA
HETATM   23  H6  UNL     1      27.493   3.743  51.525  1.00  0.00     0.169 HD
BRANCH  21  24
HETATM   24  C2  UNL     1      27.185   4.411  48.977  1.00  0.00     0.098 C 
HETATM   25  C1  UNL     1      26.575   5.788  48.835  1.00  0.00     0.014 C 
ENDBRANCH  21  24
ENDBRANCH   1  20
BRANCH   6  26
HETATM   26  C16 UNL     1      26.671   0.421  51.636  1.00  0.00     0.157 C 
BRANCH  26  27
HETATM   27  N6  UNL     1      27.221  -0.301  52.722  1.00  0.00    -0.412 N 
HETATM   28  C17 UNL     1      26.863  -1.661  52.883  1.00  0.00     0.143 C 
BRANCH  27  29
HETATM   29  C18 UNL     1      27.355   0.385  53.961  1.00  0.00     0.120 C 
BRANCH  29  30
HETATM   30  C19 UNL     1      28.722   0.959  54.235  1.00  0.00    -0.005 C 
HETATM   31  C20 UNL     1      28.840   2.391  53.779  1.00  0.00     0.011 C 
HETATM   32  C21 UNL     1      29.803   0.101  53.595  1.00  0.00     0.011 C 
ENDBRANCH  29  30
ENDBRANCH  27  29
ENDBRANCH  26  27
ENDBRANCH   6  26
TORSDOF 9
ENDMDL
MODEL 7
REMARK VINA RESULT:      -7.4      1.994      4.353
REMARK  9 active torsions:
REMARK  status: ('A' for Active; 'I' for Inactive)
REMARK    1  A    between atoms: C2_2  and  C3_3 
REMARK       I    between atoms: C3_3  and  N1_5 
REMARK    2  A    between atoms: N1_5  and  C4_6 
REMARK    3  A    between atoms: C6_8  and  N2_9 
REMARK    4  A    between atoms: N2_9  and  C7_10 
REMARK    5  A    between atoms: C12_18  and  O2_19 
REMARK    6  A    between atoms: C15_22  and  C16_23 
REMARK    7  A    between atoms: C16_23  and  N6_24 
REMARK    8  A    between atoms: N6_24  and  C18_26 
REMARK    9  A    between atoms: C18_26  and  C19_27 
ROOT
HETATM    1  C4  UNL     1      23.846   3.456  52.174  1.00  0.00     0.045 A 
HETATM    2  C5  UNL     1      24.591   2.401  52.652  1.00  0.00     0.063 A 
HETATM    3  C6  UNL     1      24.020   1.224  53.082  1.00  0.00     0.085 A 
HETATM    4  C12 UNL     1      22.642   1.200  52.991  1.00  0.00     0.096 A 
HETATM    5  C14 UNL     1      21.896   2.251  52.517  1.00  0.00     0.050 A 
HETATM    6  C15 UNL     1      22.474   3.427  52.087  1.00  0.00    -0.011 A 
ENDROOT
BRANCH   3   7
HETATM    7  N2  UNL     1      24.729   0.107  53.578  1.00  0.00    -0.185 N 
HETATM    8  H8  UNL     1      24.142  -0.745  53.801  1.00  0.00     0.184 HD
BRANCH   7   9
HETATM    9  C7  UNL     1      26.124   0.006  53.807  1.00  0.00     0.727 A 
HETATM   10  N3  UNL     1      26.903   0.827  54.516  1.00  0.00    -0.073 NA
HETATM   11  C8  UNL     1      28.221   0.697  54.709  1.00  0.00     0.167 A 
HETATM   12  C9  UNL     1      28.840  -0.384  54.123  1.00  0.00     0.074 A 
HETATM   13  C10 UNL     1      28.089  -1.266  53.379  1.00  0.00     0.099 A 
HETATM   14  N5  UNL     1      30.044  -1.109  53.896  1.00  0.00    -0.381 N 
HETATM   15  N4  UNL     1      26.789  -1.026  53.265  1.00  0.00    -0.063 NA
HETATM   16  C11 UNL     1      29.292  -2.085  53.092  1.00  0.00     0.182 A 
HETATM   17  H12 UNL     1      31.050  -1.031  54.159  1.00  0.00     0.160 HD
ENDBRANCH   7   9
ENDBRANCH   3   7
BRANCH   4  18
HETATM   18  O2  UNL     1      21.968   0.060  53.399  1.00  0.00    -0.354 OA
HETATM   19  C13 UNL     1      21.270  -0.009  54.628  1.00  0.00     0.210 C 
ENDBRANCH   4  18
BRANCH   1  20
HETATM   20  N1  UNL     1      24.532   4.617  51.739  1.00  0.00    -0.327 N 
HETATM   21  C3  UNL     1      25.074   4.345  50.465  1.00  0.00     0.221 C 
HETATM   22  O1  UNL     1      25.069   3.331  49.684  1.00  0.00    -0.273 OA
HETATM   23  H6  UNL     1      24.834   5.596  51.919  1.00  0.00     0.169 HD
BRANCH  21  24
HETATM   24  C2  UNL     1      25.883   5.165  49.522  1.00  0.00     0.098 C 
HETATM   25  C1  UNL     1      27.047   4.302  49.085  1.00  0.00     0.014 C 
ENDBRANCH  21  24
ENDBRANCH   1  20
BRANCH   6  26
HETATM   26  C16 UNL     1      21.598   4.499  51.614  1.00  0.00     0.157 C 
BRANCH  26  27
HETATM   27  N6  UNL     1      21.411   4.603  50.214  1.00  0.00    -0.412 N 
HETATM   28  C17 UNL     1      21.627   3.456  49.414  1.00  0.00     0.143 C 
BRANCH  27  29
HETATM   29  C18 UNL     1      21.842   5.804  49.586  1.00  0.00     0.120 C 
BRANCH  29  30
HETATM   30  C19 UNL     1      21.919   7.010  50.487  1.00  0.00    -0.005 C 
HETATM   31  C20 UNL     1      20.814   7.997  50.213  1.00  0.00     0.011 C 
HETATM   32  C21 UNL     1      23.280   7.681  50.372  1.00  0.00     0.011 C 
ENDBRANCH  29  30
ENDBRANCH  27  29
ENDBRANCH  26  27
ENDBRANCH   6  26
TORSDOF 9
ENDMDL
MODEL 8
REMARK VINA RESULT:      -7.4      1.561      2.502
REMARK  9 active torsions:
REMARK  status: ('A' for Active; 'I' for Inactive)
REMARK    1  A    between atoms: C2_2  and  C3_3 
REMARK       I    between atoms: C3_3  and  N1_5 
REMARK    2  A    between atoms: N1_5  and  C4_6 
REMARK    3  A    between atoms: C6_8  and  N2_9 
REMARK    4  A    between atoms: N2_9  and  C7_10 
REMARK    5  A    between atoms: C12_18  and  O2_19 
REMARK    6  A    between atoms: C15_22  and  C16_23 
REMARK    7  A    between atoms: C16_23  and  N6_24 
REMARK    8  A    between atoms: N6_24  and  C18_26 
REMARK    9  A    between atoms: C18_26  and  C19_27 
ROOT
HETATM    1  C4  UNL     1      23.151   2.416  52.181  1.00  0.00     0.045 A 
HETATM    2  C5  UNL     1      24.397   2.317  52.759  1.00  0.00     0.063 A 
HETATM    3  C6  UNL     1      25.560   2.562  52.063  1.00  0.00     0.085 A 
HETATM    4  C12 UNL     1      25.362   2.914  50.742  1.00  0.00     0.096 A 
HETATM    5  C14 UNL     1      24.120   3.012  50.162  1.00  0.00     0.050 A 
HETATM    6  C15 UNL     1      22.961   2.765  50.865  1.00  0.00    -0.011 A 
ENDROOT
BRANCH   3   7
HETATM    7  N2  UNL     1      26.864   2.481  52.599  1.00  0.00    -0.185 N 
HETATM    8  H8  UNL     1      27.337   3.406  52.795  1.00  0.00     0.184 HD
BRANCH   7   9
HETATM    9  C7  UNL     1      27.599   1.306  52.898  1.00  0.00     0.727 A 
HETATM   10  N3  UNL     1      28.799   1.211  53.477  1.00  0.00    -0.073 NA
HETATM   11  C8  UNL     1      29.461   0.079  53.744  1.00  0.00     0.167 A 
HETATM   12  C9  UNL     1      28.853  -1.105  53.391  1.00  0.00     0.074 A 
HETATM   13  C10 UNL     1      27.614  -1.071  52.791  1.00  0.00     0.099 A 
HETATM   14  N5  UNL     1      28.912  -2.527  53.348  1.00  0.00    -0.381 N 
HETATM   15  N4  UNL     1      27.063   0.117  52.582  1.00  0.00    -0.063 NA
HETATM   16  C11 UNL     1      27.588  -2.553  52.707  1.00  0.00     0.182 A 
HETATM   17  H12 UNL     1      29.577  -3.277  53.633  1.00  0.00     0.160 HD
ENDBRANCH   7   9
ENDBRANCH   3   7
BRANCH   4  18
HETATM   18  O2  UNL     1      26.468   3.182  49.951  1.00  0.00    -0.354 OA
HETATM   19  C13 UNL     1      26.610   4.391  49.231  1.00  0.00     0.210 C 
ENDBRANCH   4  18
BRANCH   1  20
HETATM   20  N1  UNL     1      22.015   2.160  52.990  1.00  0.00    -0.327 N 
HETATM   21  C3  UNL     1      21.943   0.768  53.203  1.00  0.00     0.221 C 
HETATM   22  O1  UNL     1      22.648  -0.235  52.836  1.00  0.00    -0.273 OA
HETATM   23  H6  UNL     1      21.189   2.521  53.510  1.00  0.00     0.169 HD
BRANCH  21  24
HETATM   24  C2  UNL     1      20.985  -0.084  53.960  1.00  0.00     0.098 C 
HETATM   25  C1  UNL     1      21.658  -1.424  54.157  1.00  0.00     0.014 C 
ENDBRANCH  21  24
ENDBRANCH   1  20
BRANCH   6  26
HETATM   26  C16 UNL     1      21.684   2.878  50.160  1.00  0.00     0.157 C 
BRANCH  26  27
HETATM   27  N6  UNL     1      21.053   1.670  49.777  1.00  0.00    -0.412 N 
HETATM   28  C17 UNL     1      21.610   0.921  48.714  1.00  0.00     0.143 C 
BRANCH  27  29
HETATM   29  C18 UNL     1      19.631   1.646  49.783  1.00  0.00     0.120 C 
BRANCH  29  30
HETATM   30  C19 UNL     1      18.997   1.391  51.127  1.00  0.00    -0.005 C 
HETATM   31  C20 UNL     1      18.478  -0.018  51.253  1.00  0.00     0.011 C 
HETATM   32  C21 UNL     1      17.889   2.398  51.399  1.00  0.00     0.011 C 
ENDBRANCH  29  30
ENDBRANCH  27  29
ENDBRANCH  26  27
ENDBRANCH   6  26
TORSDOF 9
ENDMDL
MODEL 9
REMARK VINA RESULT:      -7.3      3.826      6.149
REMARK  9 active torsions:
REMARK  status: ('A' for Active; 'I' for Inactive)
REMARK    1  A    between atoms: C2_2  and  C3_3 
REMARK       I    between atoms: C3_3  and  N1_5 
REMARK    2  A    between atoms: N1_5  and  C4_6 
REMARK    3  A    between atoms: C6_8  and  N2_9 
REMARK    4  A    between atoms: N2_9  and  C7_10 
REMARK    5  A    between atoms: C12_18  and  O2_19 
REMARK    6  A    between atoms: C15_22  and  C16_23 
REMARK    7  A    between atoms: C16_23  and  N6_24 
REMARK    8  A    between atoms: N6_24  and  C18_26 
REMARK    9  A    between atoms: C18_26  and  C19_27 
ROOT
HETATM    1  C4  UNL     1      25.722   3.012  50.742  1.00  0.00     0.045 A 
HETATM    2  C5  UNL     1      26.603   3.434  49.771  1.00  0.00     0.063 A 
HETATM    3  C6  UNL     1      26.569   4.704  49.240  1.00  0.00     0.085 A 
HETATM    4  C12 UNL     1      25.576   5.508  49.766  1.00  0.00     0.096 A 
HETATM    5  C14 UNL     1      24.695   5.089  50.733  1.00  0.00     0.050 A 
HETATM    6  C15 UNL     1      24.735   3.817  51.261  1.00  0.00    -0.011 A 
ENDROOT
BRANCH   3   7
HETATM    7  N2  UNL     1      27.445   5.196  48.247  1.00  0.00    -0.185 N 
HETATM    8  H8  UNL     1      27.195   4.944  47.251  1.00  0.00     0.184 HD
BRANCH   7   9
HETATM    9  C7  UNL     1      28.608   5.984  48.440  1.00  0.00     0.727 A 
HETATM   10  N3  UNL     1      28.706   7.316  48.457  1.00  0.00    -0.073 NA
HETATM   11  C8  UNL     1      29.827   8.024  48.643  1.00  0.00     0.167 A 
HETATM   12  C9  UNL     1      30.993   7.318  48.837  1.00  0.00     0.074 A 
HETATM   13  C10 UNL     1      30.954   5.942  48.832  1.00  0.00     0.099 A 
HETATM   14  N5  UNL     1      32.397   7.347  49.069  1.00  0.00    -0.381 N 
HETATM   15  N4  UNL     1      29.779   5.359  48.637  1.00  0.00    -0.063 NA
HETATM   16  C11 UNL     1      32.417   5.876  49.075  1.00  0.00     0.182 A 
HETATM   17  H12 UNL     1      33.141   8.067  49.191  1.00  0.00     0.160 HD
ENDBRANCH   7   9
ENDBRANCH   3   7
BRANCH   4  18
HETATM   18  O2  UNL     1      25.455   6.807  49.298  1.00  0.00    -0.354 OA
HETATM   19  C13 UNL     1      25.537   7.931  50.153  1.00  0.00     0.210 C 
ENDBRANCH   4  18
BRANCH   1  20
HETATM   20  N1  UNL     1      25.853   1.690  51.237  1.00  0.00    -0.327 N 
HETATM   21  C3  UNL     1      26.981   1.657  52.083  1.00  0.00     0.221 C 
HETATM   22  O1  UNL     1      27.844   2.521  52.464  1.00  0.00    -0.273 OA
HETATM   23  H6  UNL     1      25.506   0.709  51.269  1.00  0.00     0.169 HD
BRANCH  21  24
HETATM   24  C2  UNL     1      27.609   0.565  52.878  1.00  0.00     0.098 C 
HETATM   25  C1  UNL     1      26.954  -0.725  52.437  1.00  0.00     0.014 C 
ENDBRANCH  21  24
ENDBRANCH   1  20
BRANCH   6  26
HETATM   26  C16 UNL     1      23.745   3.454  52.276  1.00  0.00     0.157 C 
BRANCH  26  27
HETATM   27  N6  UNL     1      22.486   3.003  51.811  1.00  0.00    -0.412 N 
HETATM   28  C17 UNL     1      21.339   3.780  52.100  1.00  0.00     0.143 C 
BRANCH  27  29
HETATM   29  C18 UNL     1      22.234   1.605  51.865  1.00  0.00     0.120 C 
BRANCH  29  30
HETATM   30  C19 UNL     1      22.417   0.969  53.219  1.00  0.00    -0.005 C 
HETATM   31  C20 UNL     1      23.408  -0.166  53.186  1.00  0.00     0.011 C 
HETATM   32  C21 UNL     1      21.083   0.500  53.779  1.00  0.00     0.011 C 
ENDBRANCH  29  30
ENDBRANCH  27  29
ENDBRANCH  26  27
ENDBRANCH   6  26
TORSDOF 9
ENDMDL
