MODEL 1
REMARK VINA RESULT:      -8.0      0.000      0.000
REMARK  3 active torsions:
REMARK  status: ('A' for Active; 'I' for Inactive)
REMARK    1  A    between atoms: N1_1  and  C1_2 
REMARK    2  A    between atoms: C6_8  and  C7_9 
REMARK    3  A    between atoms: C10_13  and  C11_14 
ROOT
HETATM    1  C1  UNL     1      22.363   1.901  52.038  1.00  0.00     0.170 C 
HETATM    2  N2  UNL     1      22.170   0.624  52.468  1.00  0.00    -0.240 NA
HETATM    3  C2  UNL     1      22.460  -0.467  53.073  1.00  0.00     0.119 C 
HETATM    4  C3  UNL     1      23.792  -0.455  53.772  1.00  0.00     0.022 C 
HETATM    5  C4  UNL     1      24.989   0.155  53.617  1.00  0.00     0.034 C 
HETATM    6  C5  UNL     1      25.516   1.121  52.623  1.00  0.00     0.069 A 
HETATM    7  C6  UNL     1      26.857   1.209  52.481  1.00  0.00     0.086 A 
HETATM    8  N3  UNL     1      27.126   2.203  51.577  1.00  0.00    -0.224 NA
HETATM    9  C13 UNL     1      25.996   2.673  51.206  1.00  0.00     0.178 A 
HETATM   10  S2  UNL     1      25.230   3.928  50.144  1.00  0.00    -0.061 SA
HETATM   11  C14 UNL     1      23.511   3.439  50.668  1.00  0.00     0.087 A 
HETATM   12  C15 UNL     1      23.707   2.368  51.601  1.00  0.00     0.095 A 
HETATM   13  N4  UNL     1      25.013   2.055  51.808  1.00  0.00    -0.284 N 
ENDROOT
BRANCH   7  14
HETATM   14  C7  UNL     1      27.921   0.345  53.129  1.00  0.00     0.069 A 
HETATM   15  C8  UNL     1      28.848   1.163  53.690  1.00  0.00     0.020 A 
HETATM   16  S1  UNL     1      29.751  -0.377  53.766  1.00  0.00    -0.215 SA
HETATM   17  C9  UNL     1      28.315  -1.382  53.054  1.00  0.00     0.033 A 
HETATM   18  C11 UNL     1      28.054  -1.186  52.963  1.00  0.00     0.033 A 
HETATM   19  C10 UNL     1      29.228  -2.113  53.360  1.00  0.00     0.068 A 
HETATM   20  C12 UNL     1      27.389  -2.340  52.564  1.00  0.00     0.033 A 
ENDBRANCH   7  14
BRANCH   1  21
HETATM   21  N1  UNL     1      21.482   2.808  51.943  1.00  0.00    -0.280 NA
HETATM   22  H1  UNL     1      20.757   3.073  52.619  1.00  0.00     0.188 HD
ENDBRANCH   1  21
TORSDOF 3
ENDMDL
MODEL 2
REMARK VINA RESULT:      -8.0      2.600      5.460
REMARK  3 active torsions:
REMARK  status: ('A' for Active; 'I' for Inactive)
REMARK    1  A    between atoms: N1_1  and  C1_2 
REMARK    2  A    between atoms: C6_8  and  C7_9 
REMARK    3  A    between atoms: C10_13  and  C11_14 
ROOT
HETATM    1  C1  UNL     1      24.992  -0.813  54.855  1.00  0.00     0.170 C 
HETATM    2  N2  UNL     1      26.301  -0.579  54.564  1.00  0.00    -0.240 NA
HETATM    3  C2  UNL     1      27.316   0.106  54.187  1.00  0.00     0.119 C 
HETATM    4  C3  UNL     1      27.000   1.530  53.818  1.00  0.00     0.022 C 
HETATM    5  C4  UNL     1      25.946   2.218  53.324  1.00  0.00     0.034 C 
HETATM    6  C5  UNL     1      24.578   1.822  52.910  1.00  0.00     0.069 A 
HETATM    7  C6  UNL     1      23.914   2.641  52.065  1.00  0.00     0.086 A 
HETATM    8  N3  UNL     1      22.657   2.129  51.875  1.00  0.00    -0.224 NA
HETATM    9  C13 UNL     1      22.589   1.061  52.573  1.00  0.00     0.178 A 
HETATM   10  S2  UNL     1      21.476  -0.291  53.045  1.00  0.00    -0.061 SA
HETATM   11  C14 UNL     1      22.761  -1.078  54.139  1.00  0.00     0.087 A 
HETATM   12  C15 UNL     1      23.905  -0.221  54.027  1.00  0.00     0.095 A 
HETATM   13  N4  UNL     1      23.714   0.844  53.205  1.00  0.00    -0.284 N 
ENDROOT
BRANCH   7  14
HETATM   14  C7  UNL     1      24.436   3.882  51.368  1.00  0.00     0.069 A 
HETATM   15  C8  UNL     1      23.661   4.933  51.736  1.00  0.00     0.020 A 
HETATM   16  S1  UNL     1      24.519   5.687  50.362  1.00  0.00    -0.215 SA
HETATM   17  C9  UNL     1      25.586   4.156  50.047  1.00  0.00     0.033 A 
HETATM   18  C11 UNL     1      25.501   3.898  50.249  1.00  0.00     0.033 A 
HETATM   19  C10 UNL     1      25.912   5.055  49.307  1.00  0.00     0.068 A 
HETATM   20  C12 UNL     1      26.503   3.155  49.632  1.00  0.00     0.033 A 
ENDBRANCH   7  14
BRANCH   1  21
HETATM   21  N1  UNL     1      24.544  -1.530  55.799  1.00  0.00    -0.280 NA
HETATM   22  H1  UNL     1      23.808  -1.309  56.481  1.00  0.00     0.188 HD
ENDBRANCH   1  21
TORSDOF 3
ENDMDL
MODEL 3
REMARK VINA RESULT:      -7.9      2.164      3.380
REMARK  3 active torsions:
REMARK  status: ('A' for Active; 'I' for Inactive)
REMARK    1  A    between atoms: N1_1  and  C1_2 
REMARK    2  A    between atoms: C6_8  and  C7_9 
REMARK    3  A    between atoms: C10_13  and  C11_14 
ROOT
HETATM    1  C1  UNL     1      22.523   2.107  52.242  1.00  0.00     0.170 C 
HETATM    2  N2  UNL     1      23.440   3.035  51.855  1.00  0.00    -0.240 NA
HETATM    3  C2  UNL     1      24.579   3.465  51.457  1.00  0.00     0.119 C 
HETATM    4  C3  UNL     1      25.612   2.390  51.255  1.00  0.00     0.022 C 
HETATM    5  C4  UNL     1      25.891   1.171  51.770  1.00  0.00     0.034 C 
HETATM    6  C5  UNL     1      25.252   0.342  52.820  1.00  0.00     0.069 A 
HETATM    7  C6  UNL     1      26.001  -0.619  53.405  1.00  0.00     0.086 A 
HETATM    8  N3  UNL     1      25.202  -1.307  54.282  1.00  0.00    -0.224 NA
HETATM    9  C13 UNL     1      24.043  -0.774  54.213  1.00  0.00     0.178 A 
HETATM   10  S2  UNL     1      22.355  -0.892  54.867  1.00  0.00    -0.061 SA
HETATM   11  C14 UNL     1      21.762   0.529  53.820  1.00  0.00     0.087 A 
HETATM   12  C15 UNL     1      22.919   0.942  53.081  1.00  0.00     0.095 A 
HETATM   13  N4  UNL     1      24.031   0.212  53.353  1.00  0.00    -0.284 N 
ENDROOT
BRANCH   7  14
HETATM   14  C7  UNL     1      27.480  -0.892  53.217  1.00  0.00     0.069 A 
HETATM   15  C8  UNL     1      27.619  -2.142  52.708  1.00  0.00     0.020 A 
HETATM   16  S1  UNL     1      29.317  -1.840  53.176  1.00  0.00    -0.215 SA
HETATM   17  C9  UNL     1      28.958  -0.076  53.759  1.00  0.00     0.033 A 
HETATM   18  C11 UNL     1      28.628  -0.001  53.744  1.00  0.00     0.033 A 
HETATM   19  C10 UNL     1      30.142  -0.310  53.831  1.00  0.00     0.068 A 
HETATM   20  C12 UNL     1      28.944   1.262  54.232  1.00  0.00     0.033 A 
ENDBRANCH   7  14
BRANCH   1  21
HETATM   21  N1  UNL     1      21.285   2.109  51.972  1.00  0.00    -0.280 NA
HETATM   22  H1  UNL     1      20.718   2.859  51.558  1.00  0.00     0.188 HD
ENDBRANCH   1  21
TORSDOF 3
ENDMDL
MODEL 4
REMARK VINA RESULT:      -7.8      1.902      3.482
REMARK  3 active torsions:
REMARK  status: ('A' for Active; 'I' for Inactive)
REMARK    1  A    between atoms: N1_1  and  C1_2 
REMARK    2  A    between atoms: C6_8  and  C7_9 
REMARK    3  A    between atoms: C10_13  and  C11_14 
ROOT
HETATM    1  C1  UNL     1      23.205   3.709  50.054  1.00  0.00     0.170 C 
HETATM    2  N2  UNL     1      24.337   4.446  49.892  1.00  0.00    -0.240 NA
HETATM    3  C2  UNL     1      25.598   4.664  49.829  1.00  0.00     0.119 C 
HETATM    4  C3  UNL     1      26.450   3.443  50.045  1.00  0.00     0.022 C 
HETATM    5  C4  UNL     1      26.358   2.275  50.720  1.00  0.00     0.034 C 
HETATM    6  C5  UNL     1      25.311   1.682  51.588  1.00  0.00     0.069 A 
HETATM    7  C6  UNL     1      25.685   0.714  52.454  1.00  0.00     0.086 A 
HETATM    8  N3  UNL     1      24.562   0.260  53.096  1.00  0.00    -0.224 NA
HETATM    9  C13 UNL     1      23.579   0.931  52.630  1.00  0.00     0.178 A 
HETATM   10  S2  UNL     1      21.780   1.127  52.741  1.00  0.00    -0.061 SA
HETATM   11  C14 UNL     1      21.764   2.467  51.447  1.00  0.00     0.087 A 
HETATM   12  C15 UNL     1      23.138   2.621  51.068  1.00  0.00     0.095 A 
HETATM   13  N4  UNL     1      23.985   1.789  51.729  1.00  0.00    -0.284 N 
ENDROOT
BRANCH   7  14
HETATM   14  C7  UNL     1      27.087   0.222  52.752  1.00  0.00     0.069 A 
HETATM   15  C8  UNL     1      27.107  -1.125  52.594  1.00  0.00     0.020 A 
HETATM   16  S1  UNL     1      28.667  -0.921  53.440  1.00  0.00    -0.215 SA
HETATM   17  C9  UNL     1      28.517   0.965  53.492  1.00  0.00     0.033 A 
HETATM   18  C11 UNL     1      28.221   1.073  53.368  1.00  0.00     0.033 A 
HETATM   19  C10 UNL     1      29.583   0.615  53.943  1.00  0.00     0.068 A 
HETATM   20  C12 UNL     1      28.642   2.371  53.633  1.00  0.00     0.033 A 
ENDBRANCH   7  14
BRANCH   1  21
HETATM   21  N1  UNL     1      22.117   3.843  49.417  1.00  0.00    -0.280 NA
HETATM   22  H1  UNL     1      21.163   3.933  49.786  1.00  0.00     0.188 HD
ENDBRANCH   1  21
TORSDOF 3
ENDMDL
MODEL 5
REMARK VINA RESULT:      -7.6      2.390      6.423
REMARK  3 active torsions:
REMARK  status: ('A' for Active; 'I' for Inactive)
REMARK    1  A    between atoms: N1_1  and  C1_2 
REMARK    2  A    between atoms: C6_8  and  C7_9 
REMARK    3  A    between atoms: C10_13  and  C11_14 
ROOT
HETATM    1  C1  UNL     1      27.156   2.384  52.027  1.00  0.00     0.170 C 
HETATM    2  N2  UNL     1      26.892   2.891  50.791  1.00  0.00    -0.240 NA
HETATM    3  C2  UNL     1      26.171   3.383  49.853  1.00  0.00     0.119 C 
HETATM    4  C3  UNL     1      24.721   3.556  50.212  1.00  0.00     0.022 C 
HETATM    5  C4  UNL     1      23.823   2.965  51.032  1.00  0.00     0.034 C 
HETATM    6  C5  UNL     1      23.904   1.820  51.971  1.00  0.00     0.069 A 
HETATM    7  C6  UNL     1      22.751   1.203  52.314  1.00  0.00     0.086 A 
HETATM    8  N3  UNL     1      23.044   0.234  53.238  1.00  0.00    -0.224 NA
HETATM    9  C13 UNL     1      24.308   0.281  53.426  1.00  0.00     0.178 A 
HETATM   10  S2  UNL     1      25.658  -0.471  54.376  1.00  0.00    -0.061 SA
HETATM   11  C14 UNL     1      26.932   0.650  53.608  1.00  0.00     0.087 A 
HETATM   12  C15 UNL     1      26.188   1.480  52.707  1.00  0.00     0.095 A 
HETATM   13  N4  UNL     1      24.856   1.213  52.690  1.00  0.00    -0.284 N 
ENDROOT
BRANCH   7  14
HETATM   14  C7  UNL     1      21.362   1.451  51.760  1.00  0.00     0.069 A 
HETATM   15  C8  UNL     1      20.534   1.726  52.799  1.00  0.00     0.020 A 
HETATM   16  S1  UNL     1      19.307   1.454  51.528  1.00  0.00    -0.215 SA
HETATM   17  C9  UNL     1      20.606   1.185  50.178  1.00  0.00     0.033 A 
HETATM   18  C11 UNL     1      20.921   1.189  50.302  1.00  0.00     0.033 A 
HETATM   19  C10 UNL     1      19.495   1.161  49.703  1.00  0.00     0.068 A 
HETATM   20  C12 UNL     1      21.377   0.971  49.006  1.00  0.00     0.033 A 
ENDBRANCH   7  14
BRANCH   1  21
HETATM   21  N1  UNL     1      28.198   2.586  52.720  1.00  0.00    -0.280 NA
HETATM   22  H1  UNL     1      29.182   2.545  52.429  1.00  0.00     0.188 HD
ENDBRANCH   1  21
TORSDOF 3
ENDMDL
MODEL 6
REMARK VINA RESULT:      -7.5      2.426      4.274
REMARK  3 active torsions:
REMARK  status: ('A' for Active; 'I' for Inactive)
REMARK    1  A    between atoms: N1_1  and  C1_2 
REMARK    2  A    between atoms: C6_8  and  C7_9 
REMARK    3  A    between atoms: C10_13  and  C11_14 
ROOT
HETATM    1  C1  UNL     1      24.313   5.695  49.177  1.00  0.00     0.170 C 
HETATM    2  N2  UNL     1      25.632   5.823  48.867  1.00  0.00    -0.240 NA
HETATM    3  C2  UNL     1      26.851   5.448  48.742  1.00  0.00     0.119 C 
HETATM    4  C3  UNL     1      27.106   4.023  49.150  1.00  0.00     0.022 C 
HETATM    5  C4  UNL     1      26.582   3.130  50.020  1.00  0.00     0.034 C 
HETATM    6  C5  UNL     1      25.470   3.196  50.998  1.00  0.00     0.069 A 
HETATM    7  C6  UNL     1      25.467   2.302  52.011  1.00  0.00     0.086 A 
HETATM    8  N3  UNL     1      24.325   2.491  52.745  1.00  0.00    -0.224 NA
HETATM    9  C13 UNL     1      23.690   3.451  52.189  1.00  0.00     0.178 A 
HETATM   10  S2  UNL     1      22.172   4.437  52.299  1.00  0.00    -0.061 SA
HETATM   11  C14 UNL     1      22.615   5.439  50.793  1.00  0.00     0.087 A 
HETATM   12  C15 UNL     1      23.878   4.911  50.366  1.00  0.00     0.095 A 
HETATM   13  N4  UNL     1      24.339   3.898  51.144  1.00  0.00    -0.284 N 
ENDROOT
BRANCH   7  14
HETATM   14  C7  UNL     1      26.540   1.290  52.363  1.00  0.00     0.069 A 
HETATM   15  C8  UNL     1      26.064   0.051  52.080  1.00  0.00     0.020 A 
HETATM   16  S1  UNL     1      27.490  -0.412  53.052  1.00  0.00    -0.215 SA
HETATM   17  C9  UNL     1      28.061   1.378  53.271  1.00  0.00     0.033 A 
HETATM   18  C11 UNL     1      27.842   1.600  53.137  1.00  0.00     0.033 A 
HETATM   19  C10 UNL     1      28.862   0.619  53.763  1.00  0.00     0.068 A 
HETATM   20  C12 UNL     1      28.694   2.617  53.552  1.00  0.00     0.033 A 
ENDBRANCH   7  14
BRANCH   1  21
HETATM   21  N1  UNL     1      23.336   6.201  48.548  1.00  0.00    -0.280 NA
HETATM   22  H1  UNL     1      23.339   6.964  47.861  1.00  0.00     0.188 HD
ENDBRANCH   1  21
TORSDOF 3
ENDMDL
MODEL 7
REMARK VINA RESULT:      -7.1      2.723      4.449
REMARK  3 active torsions:
REMARK  status: ('A' for Active; 'I' for Inactive)
REMARK    1  A    between atoms: N1_1  and  C1_2 
REMARK    2  A    between atoms: C6_8  and  C7_9 
REMARK    3  A    between atoms: C10_13  and  C11_14 
ROOT
HETATM    1  C1  UNL     1      23.969   6.555  50.159  1.00  0.00     0.170 C 
HETATM    2  N2  UNL     1      22.702   6.297  50.582  1.00  0.00    -0.240 NA
HETATM    3  C2  UNL     1      21.791   5.745  51.294  1.00  0.00     0.119 C 
HETATM    4  C3  UNL     1      22.309   4.776  52.322  1.00  0.00     0.022 C 
HETATM    5  C4  UNL     1      23.372   3.952  52.463  1.00  0.00     0.034 C 
HETATM    6  C5  UNL     1      24.537   3.639  51.601  1.00  0.00     0.069 A 
HETATM    7  C6  UNL     1      25.187   2.475  51.817  1.00  0.00     0.086 A 
HETATM    8  N3  UNL     1      26.263   2.422  50.970  1.00  0.00    -0.224 NA
HETATM    9  C13 UNL     1      26.244   3.505  50.290  1.00  0.00     0.178 A 
HETATM   10  S2  UNL     1      27.135   4.420  49.003  1.00  0.00    -0.061 SA
HETATM   11  C14 UNL     1      25.938   5.845  49.073  1.00  0.00     0.087 A 
HETATM   12  C15 UNL     1      24.984   5.468  50.074  1.00  0.00     0.095 A 
HETATM   13  N4  UNL     1      25.231   4.256  50.636  1.00  0.00    -0.284 N 
ENDROOT
BRANCH   7  14
HETATM   14  C7  UNL     1      24.802   1.356  52.766  1.00  0.00     0.069 A 
HETATM   15  C8  UNL     1      25.877   1.073  53.545  1.00  0.00     0.020 A 
HETATM   16  S1  UNL     1      24.875  -0.358  53.919  1.00  0.00    -0.215 SA
HETATM   17  C9  UNL     1      23.430   0.237  52.853  1.00  0.00     0.033 A 
HETATM   18  C11 UNL     1      23.503   0.523  52.687  1.00  0.00     0.033 A 
HETATM   19  C10 UNL     1      23.135  -0.784  53.428  1.00  0.00     0.068 A 
HETATM   20  C12 UNL     1      22.223   0.476  52.146  1.00  0.00     0.033 A 
ENDBRANCH   7  14
BRANCH   1  21
HETATM   21  N1  UNL     1      24.430   7.676  49.789  1.00  0.00    -0.280 NA
HETATM   22  H1  UNL     1      25.373   8.059  49.923  1.00  0.00     0.188 HD
ENDBRANCH   1  21
TORSDOF 3
ENDMDL
MODEL 8
REMARK VINA RESULT:      -7.0      2.606      4.140
REMARK  3 active torsions:
REMARK  status: ('A' for Active; 'I' for Inactive)
REMARK    1  A    between atoms: N1_1  and  C1_2 
REMARK    2  A    between atoms: C6_8  and  C7_9 
REMARK    3  A    between atoms: C10_13  and  C11_14 
ROOT
HETATM    1  C1  UNL     1      20.090   1.619  49.990  1.00  0.00     0.170 C 
HETATM    2  N2  UNL     1      20.796   2.689  49.531  1.00  0.00    -0.240 NA
HETATM    3  C2  UNL     1      21.840   3.392  49.293  1.00  0.00     0.119 C 
HETATM    4  C3  UNL     1      23.129   2.761  49.743  1.00  0.00     0.022 C 
HETATM    5  C4  UNL     1      23.531   1.904  50.709  1.00  0.00     0.034 C 
HETATM    6  C5  UNL     1      22.819   1.195  51.799  1.00  0.00     0.069 A 
HETATM    7  C6  UNL     1      23.548   0.761  52.851  1.00  0.00     0.086 A 
HETATM    8  N3  UNL     1      22.714   0.074  53.695  1.00  0.00    -0.224 NA
HETATM    9  C13 UNL     1      21.552   0.106  53.163  1.00  0.00     0.178 A 
HETATM   10  S2  UNL     1      19.842  -0.455  53.388  1.00  0.00    -0.061 SA
HETATM   11  C14 UNL     1      19.287   0.330  51.793  1.00  0.00     0.087 A 
HETATM   12  C15 UNL     1      20.470   0.938  51.258  1.00  0.00     0.095 A 
HETATM   13  N4  UNL     1      21.573   0.764  52.032  1.00  0.00    -0.284 N 
ENDROOT
BRANCH   7  14
HETATM   14  C7  UNL     1      25.016   1.014  53.134  1.00  0.00     0.069 A 
HETATM   15  C8  UNL     1      25.153   2.301  53.542  1.00  0.00     0.020 A 
HETATM   16  S1  UNL     1      26.872   1.919  53.241  1.00  0.00    -0.215 SA
HETATM   17  C9  UNL     1      26.506   0.119  52.787  1.00  0.00     0.033 A 
HETATM   18  C11 UNL     1      26.174   0.053  52.782  1.00  0.00     0.033 A 
HETATM   19  C10 UNL     1      27.699   0.318  52.790  1.00  0.00     0.068 A 
HETATM   20  C12 UNL     1      26.489  -1.255  52.432  1.00  0.00     0.033 A 
ENDBRANCH   7  14
BRANCH   1  21
HETATM   21  N1  UNL     1      19.071   1.096  49.447  1.00  0.00    -0.280 NA
HETATM   22  H1  UNL     1      18.569   0.241  49.713  1.00  0.00     0.188 HD
ENDBRANCH   1  21
TORSDOF 3
ENDMDL
MODEL 9
REMARK VINA RESULT:      -6.9      3.462      5.591
REMARK  3 active torsions:
REMARK  status: ('A' for Active; 'I' for Inactive)
REMARK    1  A    between atoms: N1_1  and  C1_2 
REMARK    2  A    between atoms: C6_8  and  C7_9 
REMARK    3  A    between atoms: C10_13  and  C11_14 
ROOT
HETATM    1  C1  UNL     1      18.532   0.811  49.949  1.00  0.00     0.170 C 
HETATM    2  N2  UNL     1      19.190   1.870  49.404  1.00  0.00    -0.240 NA
HETATM    3  C2  UNL     1      20.204   2.585  49.085  1.00  0.00     0.119 C 
HETATM    4  C3  UNL     1      21.527   2.013  49.517  1.00  0.00     0.022 C 
HETATM    5  C4  UNL     1      21.990   1.224  50.512  1.00  0.00     0.034 C 
HETATM    6  C5  UNL     1      21.340   0.559  51.668  1.00  0.00     0.069 A 
HETATM    7  C6  UNL     1      22.122   0.204  52.711  1.00  0.00     0.086 A 
HETATM    8  N3  UNL     1      21.340  -0.454  53.625  1.00  0.00    -0.224 NA
HETATM    9  C13 UNL     1      20.158  -0.482  53.140  1.00  0.00     0.178 A 
HETATM   10  S2  UNL     1      18.474  -1.073  53.465  1.00  0.00    -0.061 SA
HETATM   11  C14 UNL     1      17.836  -0.394  51.853  1.00  0.00     0.087 A 
HETATM   12  C15 UNL     1      18.980   0.212  51.237  1.00  0.00     0.095 A 
HETATM   13  N4  UNL     1      20.117   0.111  51.974  1.00  0.00    -0.284 N 
ENDROOT
BRANCH   7  14
HETATM   14  C7  UNL     1      23.592   0.510  52.921  1.00  0.00     0.069 A 
HETATM   15  C8  UNL     1      24.232  -0.653  53.200  1.00  0.00     0.020 A 
HETATM   16  S1  UNL     1      25.518   0.494  53.672  1.00  0.00    -0.215 SA
HETATM   17  C9  UNL     1      24.514   2.008  53.142  1.00  0.00     0.033 A 
HETATM   18  C11 UNL     1      24.202   1.925  53.040  1.00  0.00     0.033 A 
HETATM   19  C10 UNL     1      25.619   2.341  53.503  1.00  0.00     0.068 A 
HETATM   20  C12 UNL     1      23.975   3.277  52.804  1.00  0.00     0.033 A 
ENDBRANCH   7  14
BRANCH   1  21
HETATM   21  N1  UNL     1      17.508   0.232  49.478  1.00  0.00    -0.280 NA
HETATM   22  H1  UNL     1      17.422  -0.326  48.621  1.00  0.00     0.188 HD
ENDBRANCH   1  21
TORSDOF 3
ENDMDL
