MODEL 1
REMARK VINA RESULT:      -9.5      0.000      0.000
REMARK  5 active torsions:
REMARK  status: ('A' for Active; 'I' for Inactive)
REMARK    1  A    between atoms: N1_1  and  C1_2 
REMARK    2  A    between atoms: C2_4  and  N3_5 
REMARK    3  A    between atoms: N3_5  and  C3_6 
REMARK    4  A    between atoms: C11_15  and  C12_16 
REMARK    5  A    between atoms: C12_16  and  C13_17 
ROOT
HETATM    1  C1  UNL     1      24.558   5.743  50.101  1.00  0.00     0.723 C 
HETATM    2  N2  UNL     1      24.924   4.671  50.534  1.00  0.00    -0.044 NA
HETATM    3  C2  UNL     1      25.655   3.568  50.556  1.00  0.00     0.159 C 
HETATM    4  C9  UNL     1      24.824   3.080  49.682  1.00  0.00     0.039 C 
HETATM    5  C10 UNL     1      23.777   2.464  50.173  1.00  0.00     0.015 C 
HETATM    6  C11 UNL     1      23.291   3.046  51.269  1.00  0.00     0.026 C 
HETATM    7  N4  UNL     1      23.682   4.150  52.068  1.00  0.00    -0.353 N 
HETATM    8  C23 UNL     1      23.051   5.459  51.951  1.00  0.00     0.227 C 
HETATM    9  N5  UNL     1      23.523   6.172  50.983  1.00  0.00    -0.058 NA
HETATM   10  H17 UNL     1      24.437   3.738  52.657  1.00  0.00     0.166 HD
ENDROOT
BRANCH   6  11
HETATM   11  C12 UNL     1      22.058   2.491  51.889  1.00  0.00     0.097 C 
BRANCH  11  12
HETATM   12  C13 UNL     1      22.349   1.283  52.695  1.00  0.00    -0.041 A 
HETATM   13  C14 UNL     1      23.616   0.977  53.197  1.00  0.00     0.008 A 
HETATM   14  C15 UNL     1      23.789  -0.184  53.943  1.00  0.00     0.001 A 
HETATM   15  C16 UNL     1      22.731  -1.033  54.192  1.00  0.00     0.012 A 
HETATM   16  C17 UNL     1      21.482  -0.745  53.707  1.00  0.00    -0.025 A 
HETATM   17  C18 UNL     1      20.475  -1.638  53.997  1.00  0.00     0.012 A 
HETATM   18  C22 UNL     1      21.321   0.405  52.971  1.00  0.00    -0.019 A 
HETATM   19  C19 UNL     1      19.214  -1.337  53.501  1.00  0.00     0.001 A 
HETATM   20  C20 UNL     1      18.992  -0.190  52.751  1.00  0.00     0.001 A 
HETATM   21  C21 UNL     1      20.045   0.647  52.507  1.00  0.00     0.013 A 
ENDBRANCH  11  12
ENDBRANCH   6  11
BRANCH   3  22
HETATM   22  N3  UNL     1      26.820   3.124  51.230  1.00  0.00    -0.340 N 
HETATM   23  H3  UNL     1      27.412   3.880  50.829  1.00  0.00     0.167 HD
BRANCH  22  24
HETATM   24  C3  UNL     1      27.237   2.122  52.109  1.00  0.00     0.035 A 
HETATM   25  C4  UNL     1      28.002   2.411  53.217  1.00  0.00     0.029 A 
HETATM   26  C5  UNL     1      28.402   1.408  54.075  1.00  0.00     0.004 A 
HETATM   27  C6  UNL     1      28.012   0.098  53.787  1.00  0.00     0.019 A 
HETATM   28  C7  UNL     1      27.246  -0.151  52.667  1.00  0.00     0.013 A 
HETATM   29 BR1  UNL     1      26.732  -1.957  52.307  1.00  0.00    -0.051 Br
HETATM   30  C8  UNL     1      26.832   0.846  51.790  1.00  0.00     0.048 A 
ENDBRANCH  22  24
ENDBRANCH   3  22
BRANCH   1  31
HETATM   31  N1  UNL     1      24.800   6.671  49.056  1.00  0.00    -0.231 N 
HETATM   32  H1  UNL     1      25.047   7.607  49.488  1.00  0.00     0.174 HD
HETATM   33  H2  UNL     1      24.724   6.390  48.055  1.00  0.00     0.174 HD
ENDBRANCH   1  31
TORSDOF 5
ENDMDL
MODEL 2
REMARK VINA RESULT:      -9.3      1.891      5.760
REMARK  5 active torsions:
REMARK  status: ('A' for Active; 'I' for Inactive)
REMARK    1  A    between atoms: N1_1  and  C1_2 
REMARK    2  A    between atoms: C2_4  and  N3_5 
REMARK    3  A    between atoms: N3_5  and  C3_6 
REMARK    4  A    between atoms: C11_15  and  C12_16 
REMARK    5  A    between atoms: C12_16  and  C13_17 
ROOT
HETATM    1  C1  UNL     1      22.985   6.136  50.752  1.00  0.00     0.723 C 
HETATM    2  N2  UNL     1      22.614   5.110  51.282  1.00  0.00    -0.044 NA
HETATM    3  C2  UNL     1      21.984   4.386  52.192  1.00  0.00     0.159 C 
HETATM    4  C9  UNL     1      23.025   4.559  52.954  1.00  0.00     0.039 C 
HETATM    5  C10 UNL     1      23.980   3.671  52.826  1.00  0.00     0.015 C 
HETATM    6  C11 UNL     1      24.162   3.274  51.568  1.00  0.00     0.026 C 
HETATM    7  N4  UNL     1      23.520   3.545  50.333  1.00  0.00    -0.353 N 
HETATM    8  C23 UNL     1      24.058   4.492  49.366  1.00  0.00     0.227 C 
HETATM    9  N5  UNL     1      23.761   5.722  49.630  1.00  0.00    -0.058 NA
HETATM   10  H17 UNL     1      22.686   2.921  50.378  1.00  0.00     0.166 HD
ENDROOT
BRANCH   6  11
HETATM   11  C12 UNL     1      25.265   2.320  51.269  1.00  0.00     0.097 C 
BRANCH  11  12
HETATM   12  C13 UNL     1      25.389   1.284  52.319  1.00  0.00    -0.041 A 
HETATM   13  C14 UNL     1      24.386   0.357  52.613  1.00  0.00     0.008 A 
HETATM   14  C15 UNL     1      24.597  -0.577  53.621  1.00  0.00     0.001 A 
HETATM   15  C16 UNL     1      25.779  -0.600  54.332  1.00  0.00     0.012 A 
HETATM   16  C17 UNL     1      26.773   0.302  54.055  1.00  0.00    -0.025 A 
HETATM   17  C18 UNL     1      27.924   0.218  54.804  1.00  0.00     0.012 A 
HETATM   18  C22 UNL     1      26.554   1.222  53.056  1.00  0.00    -0.019 A 
HETATM   19  C19 UNL     1      28.924   1.137  54.516  1.00  0.00     0.001 A 
HETATM   20  C20 UNL     1      28.759   2.088  53.518  1.00  0.00     0.001 A 
HETATM   21  C21 UNL     1      27.585   2.106  52.818  1.00  0.00     0.013 A 
ENDBRANCH  11  12
ENDBRANCH   6  11
BRANCH   3  22
HETATM   22  N3  UNL     1      20.735   3.722  52.289  1.00  0.00    -0.340 N 
HETATM   23  H3  UNL     1      20.210   4.607  52.444  1.00  0.00     0.167 HD
BRANCH  22  24
HETATM   24  C3  UNL     1      20.195   2.436  52.232  1.00  0.00     0.035 A 
HETATM   25  C4  UNL     1      19.142   2.135  51.397  1.00  0.00     0.029 A 
HETATM   26  C5  UNL     1      18.623   0.858  51.354  1.00  0.00     0.004 A 
HETATM   27  C6  UNL     1      19.193  -0.115  52.178  1.00  0.00     0.019 A 
HETATM   28  C7  UNL     1      20.247   0.225  53.001  1.00  0.00     0.013 A 
HETATM   29 BR1  UNL     1      21.000  -1.134  54.114  1.00  0.00    -0.051 Br
HETATM   30  C8  UNL     1      20.785   1.507  53.059  1.00  0.00     0.048 A 
ENDBRANCH  22  24
ENDBRANCH   3  22
BRANCH   1  31
HETATM   31  N1  UNL     1      22.912   7.548  50.870  1.00  0.00    -0.231 N 
HETATM   32  H1  UNL     1      23.655   7.868  51.555  1.00  0.00     0.174 HD
HETATM   33  H2  UNL     1      22.210   8.099  50.333  1.00  0.00     0.174 HD
ENDBRANCH   1  31
TORSDOF 5
ENDMDL
MODEL 3
REMARK VINA RESULT:      -9.3      3.727      6.197
REMARK  5 active torsions:
REMARK  status: ('A' for Active; 'I' for Inactive)
REMARK    1  A    between atoms: N1_1  and  C1_2 
REMARK    2  A    between atoms: C2_4  and  N3_5 
REMARK    3  A    between atoms: N3_5  and  C3_6 
REMARK    4  A    between atoms: C11_15  and  C12_16 
REMARK    5  A    between atoms: C12_16  and  C13_17 
ROOT
HETATM    1  C1  UNL     1      23.607   3.072  49.384  1.00  0.00     0.723 C 
HETATM    2  N2  UNL     1      24.663   3.529  49.767  1.00  0.00    -0.044 NA
HETATM    3  C2  UNL     1      25.897   3.985  49.630  1.00  0.00     0.159 C 
HETATM    4  C9  UNL     1      26.284   2.742  49.628  1.00  0.00     0.039 C 
HETATM    5  C10 UNL     1      26.545   2.224  50.803  1.00  0.00     0.015 C 
HETATM    6  C11 UNL     1      25.712   2.638  51.756  1.00  0.00     0.026 C 
HETATM    7  N4  UNL     1      24.635   3.560  51.808  1.00  0.00    -0.353 N 
HETATM    8  C23 UNL     1      23.242   3.136  51.758  1.00  0.00     0.227 C 
HETATM    9  N5  UNL     1      22.814   2.920  50.559  1.00  0.00    -0.058 NA
HETATM   10  H17 UNL     1      25.133   4.473  51.889  1.00  0.00     0.166 HD
ENDROOT
BRANCH   6  11
HETATM   11  C12 UNL     1      25.849   2.072  53.125  1.00  0.00     0.097 C 
BRANCH  11  12
HETATM   12  C13 UNL     1      27.224   1.584  53.378  1.00  0.00    -0.041 A 
HETATM   13  C14 UNL     1      28.273   2.410  53.789  1.00  0.00     0.008 A 
HETATM   14  C15 UNL     1      29.532   1.857  53.999  1.00  0.00     0.001 A 
HETATM   15  C16 UNL     1      29.757   0.510  53.806  1.00  0.00     0.012 A 
HETATM   16  C17 UNL     1      28.738  -0.313  53.404  1.00  0.00    -0.025 A 
HETATM   17  C18 UNL     1      29.037  -1.645  53.234  1.00  0.00     0.012 A 
HETATM   18  C22 UNL     1      27.497   0.243  53.199  1.00  0.00    -0.019 A 
HETATM   19  C19 UNL     1      27.998  -2.470  52.826  1.00  0.00     0.001 A 
HETATM   20  C20 UNL     1      26.724  -1.964  52.605  1.00  0.00     0.001 A 
HETATM   21  C21 UNL     1      26.507  -0.628  52.796  1.00  0.00     0.013 A 
ENDBRANCH  11  12
ENDBRANCH   6  11
BRANCH   3  22
HETATM   22  N3  UNL     1      26.515   5.256  49.528  1.00  0.00    -0.340 N 
HETATM   23  H3  UNL     1      26.094   5.597  50.416  1.00  0.00     0.167 HD
BRANCH  22  24
HETATM   24  C3  UNL     1      27.368   5.972  48.686  1.00  0.00     0.035 A 
HETATM   25  C4  UNL     1      28.659   5.556  48.448  1.00  0.00     0.029 A 
HETATM   26  C5  UNL     1      29.486   6.276  47.611  1.00  0.00     0.004 A 
HETATM   27  C6  UNL     1      28.977   7.433  47.016  1.00  0.00     0.019 A 
HETATM   28  C7  UNL     1      27.679   7.817  47.279  1.00  0.00     0.013 A 
HETATM   29 BR1  UNL     1      27.020   9.406  46.445  1.00  0.00    -0.051 Br
HETATM   30  C8  UNL     1      26.829   7.105  48.119  1.00  0.00     0.048 A 
ENDBRANCH  22  24
ENDBRANCH   3  22
BRANCH   1  31
HETATM   31  N1  UNL     1      22.927   2.653  48.211  1.00  0.00    -0.231 N 
HETATM   32  H1  UNL     1      23.454   3.019  47.368  1.00  0.00     0.174 HD
HETATM   33  H2  UNL     1      22.056   2.082  48.266  1.00  0.00     0.174 HD
ENDBRANCH   1  31
TORSDOF 5
ENDMDL
MODEL 4
REMARK VINA RESULT:      -9.3      2.541      4.988
REMARK  5 active torsions:
REMARK  status: ('A' for Active; 'I' for Inactive)
REMARK    1  A    between atoms: N1_1  and  C1_2 
REMARK    2  A    between atoms: C2_4  and  N3_5 
REMARK    3  A    between atoms: N3_5  and  C3_6 
REMARK    4  A    between atoms: C11_15  and  C12_16 
REMARK    5  A    between atoms: C12_16  and  C13_17 
ROOT
HETATM    1  C1  UNL     1      27.900   0.543  53.663  1.00  0.00     0.723 C 
HETATM    2  N2  UNL     1      27.146   1.112  52.903  1.00  0.00    -0.044 NA
HETATM    3  C2  UNL     1      26.671   2.147  52.229  1.00  0.00     0.159 C 
HETATM    4  C9  UNL     1      26.037   2.479  53.317  1.00  0.00     0.039 C 
HETATM    5  C10 UNL     1      24.845   1.955  53.464  1.00  0.00     0.015 C 
HETATM    6  C11 UNL     1      24.766   0.698  53.030  1.00  0.00     0.026 C 
HETATM    7  N4  UNL     1      25.663  -0.193  52.387  1.00  0.00    -0.353 N 
HETATM    8  C23 UNL     1      26.380  -1.234  53.111  1.00  0.00     0.227 C 
HETATM    9  N5  UNL     1      27.448  -0.808  53.700  1.00  0.00    -0.058 NA
HETATM   10  H17 UNL     1      25.610   0.121  51.394  1.00  0.00     0.166 HD
ENDROOT
BRANCH   6  11
HETATM   11  C12 UNL     1      23.487  -0.043  53.204  1.00  0.00     0.097 C 
BRANCH  11  12
HETATM   12  C13 UNL     1      22.471   0.386  52.216  1.00  0.00    -0.041 A 
HETATM   13  C14 UNL     1      22.766   1.157  51.089  1.00  0.00     0.008 A 
HETATM   14  C15 UNL     1      21.741   1.512  50.220  1.00  0.00     0.001 A 
HETATM   15  C16 UNL     1      20.441   1.114  50.455  1.00  0.00     0.012 A 
HETATM   16  C17 UNL     1      20.136   0.356  51.555  1.00  0.00    -0.025 A 
HETATM   17  C18 UNL     1      18.819  -0.004  51.723  1.00  0.00     0.012 A 
HETATM   18  C22 UNL     1      21.157   0.011  52.409  1.00  0.00    -0.019 A 
HETATM   19  C19 UNL     1      18.520  -0.771  52.841  1.00  0.00     0.001 A 
HETATM   20  C20 UNL     1      19.510  -1.150  53.737  1.00  0.00     0.001 A 
HETATM   21  C21 UNL     1      20.796  -0.751  53.499  1.00  0.00     0.013 A 
ENDBRANCH  11  12
ENDBRANCH   6  11
BRANCH   3  22
HETATM   22  N3  UNL     1      26.799   2.662  50.915  1.00  0.00    -0.340 N 
HETATM   23  H3  UNL     1      27.435   1.896  50.614  1.00  0.00     0.167 HD
BRANCH  22  24
HETATM   24  C3  UNL     1      26.354   3.728  50.130  1.00  0.00     0.035 A 
HETATM   25  C4  UNL     1      27.231   4.494  49.396  1.00  0.00     0.029 A 
HETATM   26  C5  UNL     1      26.773   5.542  48.625  1.00  0.00     0.004 A 
HETATM   27  C6  UNL     1      25.400   5.801  48.613  1.00  0.00     0.019 A 
HETATM   28  C7  UNL     1      24.553   5.011  49.362  1.00  0.00     0.013 A 
HETATM   29 BR1  UNL     1      22.682   5.398  49.319  1.00  0.00    -0.051 Br
HETATM   30  C8  UNL     1      24.996   3.950  50.146  1.00  0.00     0.048 A 
ENDBRANCH  22  24
ENDBRANCH   3  22
BRANCH   1  31
HETATM   31  N1  UNL     1      29.030   0.761  54.493  1.00  0.00    -0.231 N 
HETATM   32  H1  UNL     1      29.463   1.693  54.234  1.00  0.00     0.174 HD
HETATM   33  H2  UNL     1      29.314   0.063  55.213  1.00  0.00     0.174 HD
ENDBRANCH   1  31
TORSDOF 5
ENDMDL
MODEL 5
REMARK VINA RESULT:      -9.0      2.725      6.297
REMARK  5 active torsions:
REMARK  status: ('A' for Active; 'I' for Inactive)
REMARK    1  A    between atoms: N1_1  and  C1_2 
REMARK    2  A    between atoms: C2_4  and  N3_5 
REMARK    3  A    between atoms: N3_5  and  C3_6 
REMARK    4  A    between atoms: C11_15  and  C12_16 
REMARK    5  A    between atoms: C12_16  and  C13_17 
ROOT
HETATM    1  C1  UNL     1      24.576   5.411  51.042  1.00  0.00     0.723 C 
HETATM    2  N2  UNL     1      23.817   4.555  51.443  1.00  0.00    -0.044 NA
HETATM    3  C2  UNL     1      22.841   4.066  52.190  1.00  0.00     0.159 C 
HETATM    4  C9  UNL     1      23.730   3.903  53.127  1.00  0.00     0.039 C 
HETATM    5  C10 UNL     1      24.369   2.759  53.113  1.00  0.00     0.015 C 
HETATM    6  C11 UNL     1      24.641   2.324  51.884  1.00  0.00     0.026 C 
HETATM    7  N4  UNL     1      24.346   2.784  50.574  1.00  0.00    -0.353 N 
HETATM    8  C23 UNL     1      25.316   3.513  49.768  1.00  0.00     0.227 C 
HETATM    9  N5  UNL     1      25.372   4.774  50.046  1.00  0.00    -0.058 NA
HETATM   10  H17 UNL     1      23.366   2.455  50.442  1.00  0.00     0.166 HD
ENDROOT
BRANCH   6  11
HETATM   11  C12 UNL     1      25.428   1.072  51.723  1.00  0.00     0.097 C 
BRANCH  11  12
HETATM   12  C13 UNL     1      26.734   1.156  52.417  1.00  0.00    -0.041 A 
HETATM   13  C14 UNL     1      27.326   2.360  52.805  1.00  0.00     0.008 A 
HETATM   14  C15 UNL     1      28.557   2.335  53.451  1.00  0.00     0.001 A 
HETATM   15  C16 UNL     1      29.199   1.142  53.712  1.00  0.00     0.012 A 
HETATM   16  C17 UNL     1      28.629  -0.047  53.338  1.00  0.00    -0.025 A 
HETATM   17  C18 UNL     1      29.327  -1.197  53.632  1.00  0.00     0.012 A 
HETATM   18  C22 UNL     1      27.412  -0.012  52.700  1.00  0.00    -0.019 A 
HETATM   19  C19 UNL     1      28.742  -2.396  53.249  1.00  0.00     0.001 A 
HETATM   20  C20 UNL     1      27.514  -2.422  52.602  1.00  0.00     0.001 A 
HETATM   21  C21 UNL     1      26.884  -1.236  52.345  1.00  0.00     0.013 A 
ENDBRANCH  11  12
ENDBRANCH   6  11
BRANCH   3  22
HETATM   22  N3  UNL     1      21.452   3.830  52.036  1.00  0.00    -0.340 N 
HETATM   23  H3  UNL     1      21.213   4.841  52.093  1.00  0.00     0.167 HD
BRANCH  22  24
HETATM   24  C3  UNL     1      20.554   2.774  51.864  1.00  0.00     0.035 A 
HETATM   25  C4  UNL     1      20.977   1.464  51.864  1.00  0.00     0.029 A 
HETATM   26  C5  UNL     1      20.075   0.435  51.694  1.00  0.00     0.004 A 
HETATM   27  C6  UNL     1      18.727   0.760  51.523  1.00  0.00     0.019 A 
HETATM   28  C7  UNL     1      18.342   2.084  51.529  1.00  0.00     0.013 A 
HETATM   29 BR1  UNL     1      16.489   2.488  51.292  1.00  0.00    -0.051 Br
HETATM   30  C8  UNL     1      19.236   3.137  51.699  1.00  0.00     0.048 A 
ENDBRANCH  22  24
ENDBRANCH   3  22
BRANCH   1  31
HETATM   31  N1  UNL     1      24.925   6.775  51.225  1.00  0.00    -0.231 N 
HETATM   32  H1  UNL     1      24.042   7.322  51.437  1.00  0.00     0.174 HD
HETATM   33  H2  UNL     1      25.913   7.095  51.144  1.00  0.00     0.174 HD
ENDBRANCH   1  31
TORSDOF 5
ENDMDL
MODEL 6
REMARK VINA RESULT:      -8.9      2.645      4.893
REMARK  5 active torsions:
REMARK  status: ('A' for Active; 'I' for Inactive)
REMARK    1  A    between atoms: N1_1  and  C1_2 
REMARK    2  A    between atoms: C2_4  and  N3_5 
REMARK    3  A    between atoms: N3_5  and  C3_6 
REMARK    4  A    between atoms: C11_15  and  C12_16 
REMARK    5  A    between atoms: C12_16  and  C13_17 
ROOT
HETATM    1  C1  UNL     1      26.698   1.941  53.266  1.00  0.00     0.723 C 
HETATM    2  N2  UNL     1      25.900   2.251  52.407  1.00  0.00    -0.044 NA
HETATM    3  C2  UNL     1      25.252   3.086  51.611  1.00  0.00     0.159 C 
HETATM    4  C9  UNL     1      24.463   3.327  52.618  1.00  0.00     0.039 C 
HETATM    5  C10 UNL     1      23.423   2.537  52.730  1.00  0.00     0.015 C 
HETATM    6  C11 UNL     1      23.688   1.272  52.408  1.00  0.00     0.026 C 
HETATM    7  N4  UNL     1      24.826   0.586  51.912  1.00  0.00    -0.353 N 
HETATM    8  C23 UNL     1      25.706  -0.191  52.775  1.00  0.00     0.227 C 
HETATM    9  N5  UNL     1      26.583   0.526  53.395  1.00  0.00    -0.058 NA
HETATM   10  H17 UNL     1      24.788   0.806  50.893  1.00  0.00     0.166 HD
ENDROOT
BRANCH   6  11
HETATM   11  C12 UNL     1      22.615   0.253  52.559  1.00  0.00     0.097 C 
BRANCH  11  12
HETATM   12  C13 UNL     1      21.502   0.489  51.612  1.00  0.00    -0.041 A 
HETATM   13  C14 UNL     1      21.658   1.130  50.381  1.00  0.00     0.008 A 
HETATM   14  C15 UNL     1      20.550   1.306  49.560  1.00  0.00     0.001 A 
HETATM   15  C16 UNL     1      19.303   0.858  49.943  1.00  0.00     0.012 A 
HETATM   16  C17 UNL     1      19.134   0.225  51.147  1.00  0.00    -0.025 A 
HETATM   17  C18 UNL     1      17.862  -0.196  51.462  1.00  0.00     0.012 A 
HETATM   18  C22 UNL     1      20.236   0.056  51.952  1.00  0.00    -0.019 A 
HETATM   19  C19 UNL     1      17.702  -0.835  52.684  1.00  0.00     0.001 A 
HETATM   20  C20 UNL     1      18.779  -1.034  53.537  1.00  0.00     0.001 A 
HETATM   21  C21 UNL     1      20.011  -0.586  53.151  1.00  0.00     0.013 A 
ENDBRANCH  11  12
ENDBRANCH   6  11
BRANCH   3  22
HETATM   22  N3  UNL     1      25.369   3.521  50.267  1.00  0.00    -0.340 N 
HETATM   23  H3  UNL     1      24.940   2.653  49.887  1.00  0.00     0.167 HD
BRANCH  22  24
HETATM   24  C3  UNL     1      25.831   4.611  49.528  1.00  0.00     0.035 A 
HETATM   25  C4  UNL     1      24.987   5.627  49.142  1.00  0.00     0.029 A 
HETATM   26  C5  UNL     1      25.462   6.697  48.413  1.00  0.00     0.004 A 
HETATM   27  C6  UNL     1      26.819   6.718  48.079  1.00  0.00     0.019 A 
HETATM   28  C7  UNL     1      27.633   5.681  48.484  1.00  0.00     0.013 A 
HETATM   29 BR1  UNL     1      29.483   5.746  48.007  1.00  0.00    -0.051 Br
HETATM   30  C8  UNL     1      27.173   4.593  49.219  1.00  0.00     0.048 A 
ENDBRANCH  22  24
ENDBRANCH   3  22
BRANCH   1  31
HETATM   31  N1  UNL     1      27.663   2.491  54.149  1.00  0.00    -0.231 N 
HETATM   32  H1  UNL     1      28.340   3.078  53.584  1.00  0.00     0.174 HD
HETATM   33  H2  UNL     1      27.634   2.293  55.172  1.00  0.00     0.174 HD
ENDBRANCH   1  31
TORSDOF 5
ENDMDL
MODEL 7
REMARK VINA RESULT:      -8.8      2.724      4.345
REMARK  5 active torsions:
REMARK  status: ('A' for Active; 'I' for Inactive)
REMARK    1  A    between atoms: N1_1  and  C1_2 
REMARK    2  A    between atoms: C2_4  and  N3_5 
REMARK    3  A    between atoms: N3_5  and  C3_6 
REMARK    4  A    between atoms: C11_15  and  C12_16 
REMARK    5  A    between atoms: C12_16  and  C13_17 
ROOT
HETATM    1  C1  UNL     1      22.372   5.743  50.219  1.00  0.00     0.723 C 
HETATM    2  N2  UNL     1      23.290   4.977  50.017  1.00  0.00    -0.044 NA
HETATM    3  C2  UNL     1      24.268   4.430  49.314  1.00  0.00     0.159 C 
HETATM    4  C9  UNL     1      23.357   3.699  48.740  1.00  0.00     0.039 C 
HETATM    5  C10 UNL     1      23.075   2.566  49.336  1.00  0.00     0.015 C 
HETATM    6  C11 UNL     1      23.086   2.656  50.665  1.00  0.00     0.026 C 
HETATM    7  N4  UNL     1      23.392   3.684  51.594  1.00  0.00    -0.353 N 
HETATM    8  C23 UNL     1      22.359   4.469  52.256  1.00  0.00     0.227 C 
HETATM    9  N5  UNL     1      21.914   5.445  51.535  1.00  0.00    -0.058 NA
HETATM   10  H17 UNL     1      24.434   3.655  51.617  1.00  0.00     0.166 HD
ENDROOT
BRANCH   6  11
HETATM   11  C12 UNL     1      22.712   1.460  51.468  1.00  0.00     0.097 C 
BRANCH  11  12
HETATM   12  C13 UNL     1      23.878   0.901  52.189  1.00  0.00    -0.041 A 
HETATM   13  C14 UNL     1      25.202   1.108  51.794  1.00  0.00     0.008 A 
HETATM   14  C15 UNL     1      26.230   0.539  52.538  1.00  0.00     0.001 A 
HETATM   15  C16 UNL     1      25.961  -0.224  53.655  1.00  0.00     0.012 A 
HETATM   16  C17 UNL     1      24.668  -0.434  54.056  1.00  0.00    -0.025 A 
HETATM   17  C18 UNL     1      24.476  -1.204  55.180  1.00  0.00     0.012 A 
HETATM   18  C22 UNL     1      23.658   0.133  53.314  1.00  0.00    -0.019 A 
HETATM   19  C19 UNL     1      23.163  -1.412  55.577  1.00  0.00     0.001 A 
HETATM   20  C20 UNL     1      22.103  -0.864  54.868  1.00  0.00     0.001 A 
HETATM   21  C21 UNL     1      22.376  -0.110  53.760  1.00  0.00     0.013 A 
ENDBRANCH  11  12
ENDBRANCH   6  11
BRANCH   3  22
HETATM   22  N3  UNL     1      25.675   4.578  49.228  1.00  0.00    -0.340 N 
HETATM   23  H3  UNL     1      25.859   3.638  49.636  1.00  0.00     0.167 HD
BRANCH  22  24
HETATM   24  C3  UNL     1      26.634   5.502  48.809  1.00  0.00     0.035 A 
HETATM   25  C4  UNL     1      26.320   6.830  48.625  1.00  0.00     0.029 A 
HETATM   26  C5  UNL     1      27.281   7.729  48.213  1.00  0.00     0.004 A 
HETATM   27  C6  UNL     1      28.576   7.253  47.988  1.00  0.00     0.019 A 
HETATM   28  C7  UNL     1      28.851   5.916  48.183  1.00  0.00     0.013 A 
HETATM   29 BR1  UNL     1      30.634   5.305  47.864  1.00  0.00    -0.051 Br
HETATM   30  C8  UNL     1      27.896   4.994  48.598  1.00  0.00     0.048 A 
ENDBRANCH  22  24
ENDBRANCH   3  22
BRANCH   1  31
HETATM   31  N1  UNL     1      21.631   6.790  49.610  1.00  0.00    -0.231 N 
HETATM   32  H1  UNL     1      22.295   7.584  49.385  1.00  0.00     0.174 HD
HETATM   33  H2  UNL     1      20.605   6.704  49.452  1.00  0.00     0.174 HD
ENDBRANCH   1  31
TORSDOF 5
ENDMDL
MODEL 8
REMARK VINA RESULT:      -8.7      3.196      5.276
REMARK  5 active torsions:
REMARK  status: ('A' for Active; 'I' for Inactive)
REMARK    1  A    between atoms: N1_1  and  C1_2 
REMARK    2  A    between atoms: C2_4  and  N3_5 
REMARK    3  A    between atoms: N3_5  and  C3_6 
REMARK    4  A    between atoms: C11_15  and  C12_16 
REMARK    5  A    between atoms: C12_16  and  C13_17 
ROOT
HETATM    1  C1  UNL     1      21.632   4.798  49.740  1.00  0.00     0.723 C 
HETATM    2  N2  UNL     1      22.841   4.884  49.707  1.00  0.00    -0.044 NA
HETATM    3  C2  UNL     1      24.033   4.872  49.134  1.00  0.00     0.159 C 
HETATM    4  C9  UNL     1      23.996   3.575  49.238  1.00  0.00     0.039 C 
HETATM    5  C10 UNL     1      24.466   3.080  50.357  1.00  0.00     0.015 C 
HETATM    6  C11 UNL     1      24.172   3.821  51.424  1.00  0.00     0.026 C 
HETATM    7  N4  UNL     1      23.515   5.061  51.627  1.00  0.00    -0.353 N 
HETATM    8  C23 UNL     1      22.128   5.147  52.065  1.00  0.00     0.227 C 
HETATM    9  N5  UNL     1      21.276   5.012  51.104  1.00  0.00    -0.058 NA
HETATM   10  H17 UNL     1      24.265   5.747  51.394  1.00  0.00     0.166 HD
ENDROOT
BRANCH   6  11
HETATM   11  C12 UNL     1      24.583   3.337  52.770  1.00  0.00     0.097 C 
BRANCH  11  12
HETATM   12  C13 UNL     1      24.274   1.900  52.950  1.00  0.00    -0.041 A 
HETATM   13  C14 UNL     1      22.978   1.402  53.099  1.00  0.00     0.008 A 
HETATM   14  C15 UNL     1      22.790   0.034  53.264  1.00  0.00     0.001 A 
HETATM   15  C16 UNL     1      23.862  -0.834  53.283  1.00  0.00     0.012 A 
HETATM   16  C17 UNL     1      25.140  -0.360  53.136  1.00  0.00    -0.025 A 
HETATM   17  C18 UNL     1      26.159  -1.284  53.163  1.00  0.00     0.012 A 
HETATM   18  C22 UNL     1      25.315   0.995  52.973  1.00  0.00    -0.019 A 
HETATM   19  C19 UNL     1      27.449  -0.794  53.015  1.00  0.00     0.001 A 
HETATM   20  C20 UNL     1      27.686   0.563  52.846  1.00  0.00     0.001 A 
HETATM   21  C21 UNL     1      26.619   1.418  52.830  1.00  0.00     0.013 A 
ENDBRANCH  11  12
ENDBRANCH   6  11
BRANCH   3  22
HETATM   22  N3  UNL     1      24.939   5.839  48.631  1.00  0.00    -0.340 N 
HETATM   23  H3  UNL     1      24.178   6.469  48.304  1.00  0.00     0.167 HD
BRANCH  22  24
HETATM   24  C3  UNL     1      26.311   6.066  48.512  1.00  0.00     0.035 A 
HETATM   25  C4  UNL     1      27.221   5.038  48.617  1.00  0.00     0.029 A 
HETATM   26  C5  UNL     1      28.573   5.281  48.495  1.00  0.00     0.004 A 
HETATM   27  C6  UNL     1      28.989   6.595  48.264  1.00  0.00     0.019 A 
HETATM   28  C7  UNL     1      28.047   7.598  48.165  1.00  0.00     0.013 A 
HETATM   29 BR1  UNL     1      28.657   9.381  47.848  1.00  0.00    -0.051 Br
HETATM   30  C8  UNL     1      26.680   7.373  48.285  1.00  0.00     0.048 A 
ENDBRANCH  22  24
ENDBRANCH   3  22
BRANCH   1  31
HETATM   31  N1  UNL     1      20.502   4.564  48.914  1.00  0.00    -0.231 N 
HETATM   32  H1  UNL     1      20.486   3.539  48.649  1.00  0.00     0.174 HD
HETATM   33  H2  UNL     1      19.849   5.336  48.660  1.00  0.00     0.174 HD
ENDBRANCH   1  31
TORSDOF 5
ENDMDL
MODEL 9
REMARK VINA RESULT:      -8.7      1.648      2.318
REMARK  5 active torsions:
REMARK  status: ('A' for Active; 'I' for Inactive)
REMARK    1  A    between atoms: N1_1  and  C1_2 
REMARK    2  A    between atoms: C2_4  and  N3_5 
REMARK    3  A    between atoms: N3_5  and  C3_6 
REMARK    4  A    between atoms: C11_15  and  C12_16 
REMARK    5  A    between atoms: C12_16  and  C13_17 
ROOT
HETATM    1  C1  UNL     1      22.540   5.315  50.801  1.00  0.00     0.723 C 
HETATM    2  N2  UNL     1      23.109   4.285  51.097  1.00  0.00    -0.044 NA
HETATM    3  C2  UNL     1      24.150   3.478  51.218  1.00  0.00     0.159 C 
HETATM    4  C9  UNL     1      23.980   3.180  49.962  1.00  0.00     0.039 C 
HETATM    5  C10 UNL     1      23.164   2.184  49.718  1.00  0.00     0.015 C 
HETATM    6  C11 UNL     1      22.112   2.154  50.535  1.00  0.00     0.026 C 
HETATM    7  N4  UNL     1      21.696   2.920  51.654  1.00  0.00    -0.353 N 
HETATM    8  C23 UNL     1      20.693   3.972  51.550  1.00  0.00     0.227 C 
HETATM    9  N5  UNL     1      21.171   5.098  51.134  1.00  0.00    -0.058 NA
HETATM   10  H17 UNL     1      22.268   2.511  52.424  1.00  0.00     0.166 HD
ENDROOT
BRANCH   6  11
HETATM   11  C12 UNL     1      21.067   1.116  50.322  1.00  0.00     0.097 C 
BRANCH  11  12
HETATM   12  C13 UNL     1      20.841   0.312  51.545  1.00  0.00    -0.041 A 
HETATM   13  C14 UNL     1      21.868  -0.110  52.392  1.00  0.00     0.008 A 
HETATM   14  C15 UNL     1      21.555  -0.865  53.517  1.00  0.00     0.001 A 
HETATM   15  C16 UNL     1      20.248  -1.200  53.806  1.00  0.00     0.012 A 
HETATM   16  C17 UNL     1      19.230  -0.792  52.985  1.00  0.00    -0.025 A 
HETATM   17  C18 UNL     1      17.952  -1.163  53.338  1.00  0.00     0.012 A 
HETATM   18  C22 UNL     1      19.550  -0.046  51.875  1.00  0.00    -0.019 A 
HETATM   19  C19 UNL     1      16.928  -0.744  52.500  1.00  0.00     0.001 A 
HETATM   20  C20 UNL     1      17.192   0.011  51.365  1.00  0.00     0.001 A 
HETATM   21  C21 UNL     1      18.489   0.339  51.084  1.00  0.00     0.013 A 
ENDBRANCH  11  12
ENDBRANCH   6  11
BRANCH   3  22
HETATM   22  N3  UNL     1      25.045   3.108  52.253  1.00  0.00    -0.340 N 
HETATM   23  H3  UNL     1      25.259   4.096  52.501  1.00  0.00     0.167 HD
BRANCH  22  24
HETATM   24  C3  UNL     1      25.572   1.967  52.861  1.00  0.00     0.035 A 
HETATM   25  C4  UNL     1      24.757   0.958  53.324  1.00  0.00     0.029 A 
HETATM   26  C5  UNL     1      25.296  -0.162  53.920  1.00  0.00     0.004 A 
HETATM   27  C6  UNL     1      26.685  -0.242  54.041  1.00  0.00     0.019 A 
HETATM   28  C7  UNL     1      27.468   0.789  53.565  1.00  0.00     0.013 A 
HETATM   29 BR1  UNL     1      29.365   0.643  53.749  1.00  0.00    -0.051 Br
HETATM   30  C8  UNL     1      26.944   1.927  52.961  1.00  0.00     0.048 A 
ENDBRANCH  22  24
ENDBRANCH   3  22
BRANCH   1  31
HETATM   31  N1  UNL     1      22.769   6.605  50.258  1.00  0.00    -0.231 N 
HETATM   32  H1  UNL     1      23.744   6.628  49.844  1.00  0.00     0.174 HD
HETATM   33  H2  UNL     1      22.040   7.348  50.304  1.00  0.00     0.174 HD
ENDBRANCH   1  31
TORSDOF 5
ENDMDL
