MODEL 1
REMARK VINA RESULT:      -6.8      0.000      0.000
REMARK  6 active torsions:
REMARK  status: ('A' for Active; 'I' for Inactive)
REMARK    1  A    between atoms: C2_2  and  N1_3 
REMARK    2  A    between atoms: N1_3  and  C3_4 
REMARK    3  A    between atoms: N1_3  and  C5_6 
REMARK    4  A    between atoms: C5_6  and  C6_7 
REMARK    5  A    between atoms: C7_8  and  C8_9 
REMARK       I    between atoms: C8_9  and  N2_11 
REMARK    6  A    between atoms: N2_11  and  C9_12 
ROOT
HETATM    1  C8  UNL     1      22.543  -0.937  54.527  1.00  0.00     0.302 C 
HETATM    2  O1  UNL     1      22.795  -1.547  55.583  1.00  0.00    -0.258 OA
HETATM    3  N2  UNL     1      23.647  -0.389  53.937  1.00  0.00    -0.299 N 
HETATM    4  H13 UNL     1      23.554   0.143  53.053  1.00  0.00     0.171 HD
ENDROOT
BRANCH   3   5
HETATM    5  C9  UNL     1      25.028  -0.243  54.055  1.00  0.00     0.155 C 
HETATM    6  C10 UNL     1      25.368   0.317  52.907  1.00  0.00     0.087 C 
HETATM    7  C11 UNL     1      26.647  -0.403  52.322  1.00  0.00     0.124 C 
HETATM    8  N4  UNL     1      25.174   1.416  51.962  1.00  0.00    -0.242 NA
HETATM    9  C12 UNL     1      27.363   0.612  53.265  1.00  0.00     0.059 C 
HETATM   10  N3  UNL     1      27.670   1.624  52.459  1.00  0.00    -0.245 NA
HETATM   11  C14 UNL     1      27.243   0.081  54.658  1.00  0.00     0.146 C 
HETATM   12  C13 UNL     1      26.385   2.080  51.712  1.00  0.00     0.233 C 
HETATM   13  N5  UNL     1      26.052  -0.413  55.081  1.00  0.00    -0.239 NA
ENDBRANCH   3   5
BRANCH   1  14
HETATM   14  C7  UNL     1      21.268  -0.763  53.901  1.00  0.00    -0.004 C 
HETATM   15  C6  UNL     1      20.202  -0.615  53.353  1.00  0.00    -0.077 C 
BRANCH  15  16
HETATM   16  C5  UNL     1      18.914  -0.444  52.664  1.00  0.00     0.212 C 
BRANCH  16  17
HETATM   17  N1  UNL     1      17.921  -1.163  53.341  1.00  0.00    -0.403 N 
BRANCH  17  18
HETATM   18  C2  UNL     1      16.619  -0.932  52.909  1.00  0.00     0.113 C 
HETATM   19  C1  UNL     1      16.606  -0.271  51.541  1.00  0.00     0.026 C 
ENDBRANCH  17  18
BRANCH  17  20
HETATM   20  C3  UNL     1      18.311  -2.444  53.777  1.00  0.00     0.113 C 
HETATM   21  C4  UNL     1      17.203  -3.451  53.535  1.00  0.00     0.026 C 
ENDBRANCH  17  20
ENDBRANCH  16  17
ENDBRANCH  15  16
ENDBRANCH   1  14
TORSDOF 6
ENDMDL
MODEL 2
REMARK VINA RESULT:      -6.7      1.092      1.936
REMARK  6 active torsions:
REMARK  status: ('A' for Active; 'I' for Inactive)
REMARK    1  A    between atoms: C2_2  and  N1_3 
REMARK    2  A    between atoms: N1_3  and  C3_4 
REMARK    3  A    between atoms: N1_3  and  C5_6 
REMARK    4  A    between atoms: C5_6  and  C6_7 
REMARK    5  A    between atoms: C7_8  and  C8_9 
REMARK       I    between atoms: C8_9  and  N2_11 
REMARK    6  A    between atoms: N2_11  and  C9_12 
ROOT
HETATM    1  C8  UNL     1      22.717  -1.067  54.689  1.00  0.00     0.302 C 
HETATM    2  O1  UNL     1      23.030  -1.691  55.719  1.00  0.00    -0.258 OA
HETATM    3  N2  UNL     1      23.782  -0.500  54.049  1.00  0.00    -0.299 N 
HETATM    4  H13 UNL     1      23.636   0.045  53.179  1.00  0.00     0.171 HD
ENDROOT
BRANCH   3   5
HETATM    5  C9  UNL     1      25.166  -0.343  54.094  1.00  0.00     0.155 C 
HETATM    6  C10 UNL     1      25.438   0.234  52.936  1.00  0.00     0.087 C 
HETATM    7  C11 UNL     1      26.690  -0.467  52.274  1.00  0.00     0.124 C 
HETATM    8  N4  UNL     1      25.185   1.343  52.018  1.00  0.00    -0.242 NA
HETATM    9  C12 UNL     1      27.447   0.543  53.190  1.00  0.00     0.059 C 
HETATM   10  N3  UNL     1      27.703   1.568  52.382  1.00  0.00    -0.245 NA
HETATM   11  C14 UNL     1      27.408  -0.007  54.581  1.00  0.00     0.146 C 
HETATM   12  C13 UNL     1      26.375   2.021  51.712  1.00  0.00     0.233 C 
HETATM   13  N5  UNL     1      26.245  -0.517  55.060  1.00  0.00    -0.239 NA
ENDBRANCH   3   5
BRANCH   1  14
HETATM   14  C7  UNL     1      21.407  -0.895  54.136  1.00  0.00    -0.004 C 
HETATM   15  C6  UNL     1      20.310  -0.732  53.660  1.00  0.00    -0.077 C 
BRANCH  15  16
HETATM   16  C5  UNL     1      18.984  -0.518  53.061  1.00  0.00     0.212 C 
BRANCH  16  17
HETATM   17  N1  UNL     1      19.131  -0.018  51.762  1.00  0.00    -0.403 N 
BRANCH  17  18
HETATM   18  C2  UNL     1      18.011  -0.142  50.945  1.00  0.00     0.113 C 
HETATM   19  C1  UNL     1      16.804  -0.613  51.739  1.00  0.00     0.026 C 
ENDBRANCH  17  18
BRANCH  17  20
HETATM   20  C3  UNL     1      19.972   1.106  51.652  1.00  0.00     0.113 C 
HETATM   21  C4  UNL     1      20.944   0.936  50.500  1.00  0.00     0.026 C 
ENDBRANCH  17  20
ENDBRANCH  16  17
ENDBRANCH  15  16
ENDBRANCH   1  14
TORSDOF 6
ENDMDL
MODEL 3
REMARK VINA RESULT:      -6.7      5.363     10.017
REMARK  6 active torsions:
REMARK  status: ('A' for Active; 'I' for Inactive)
REMARK    1  A    between atoms: C2_2  and  N1_3 
REMARK    2  A    between atoms: N1_3  and  C3_4 
REMARK    3  A    between atoms: N1_3  and  C5_6 
REMARK    4  A    between atoms: C5_6  and  C6_7 
REMARK    5  A    between atoms: C7_8  and  C8_9 
REMARK       I    between atoms: C8_9  and  N2_11 
REMARK    6  A    between atoms: N2_11  and  C9_12 
ROOT
HETATM    1  C8  UNL     1      26.305   3.775  49.673  1.00  0.00     0.302 C 
HETATM    2  O1  UNL     1      25.198   3.369  49.273  1.00  0.00    -0.258 OA
HETATM    3  N2  UNL     1      26.666   3.267  50.888  1.00  0.00    -0.299 N 
HETATM    4  H13 UNL     1      27.569   3.538  51.317  1.00  0.00     0.171 HD
ENDROOT
BRANCH   3   5
HETATM    5  C9  UNL     1      26.262   2.415  51.914  1.00  0.00     0.155 C 
HETATM    6  C10 UNL     1      27.408   1.971  52.401  1.00  0.00     0.087 C 
HETATM    7  C11 UNL     1      27.323   0.408  52.623  1.00  0.00     0.124 C 
HETATM    8  N4  UNL     1      28.717   2.291  52.969  1.00  0.00    -0.242 NA
HETATM    9  C12 UNL     1      26.690   0.869  53.972  1.00  0.00     0.059 C 
HETATM   10  N3  UNL     1      27.714   0.845  54.821  1.00  0.00    -0.245 NA
HETATM   11  C14 UNL     1      25.281   1.279  53.682  1.00  0.00     0.146 C 
HETATM   12  C13 UNL     1      28.881   1.680  54.222  1.00  0.00     0.233 C 
HETATM   13  N5  UNL     1      25.024   2.045  52.592  1.00  0.00    -0.239 NA
ENDBRANCH   3   5
BRANCH   1  14
HETATM   14  C7  UNL     1      27.195   4.681  49.011  1.00  0.00    -0.004 C 
HETATM   15  C6  UNL     1      27.951   5.452  48.473  1.00  0.00    -0.077 C 
BRANCH  15  16
HETATM   16  C5  UNL     1      28.886   6.394  47.839  1.00  0.00     0.212 C 
BRANCH  16  17
HETATM   17  N1  UNL     1      30.170   6.206  48.366  1.00  0.00    -0.403 N 
BRANCH  17  18
HETATM   18  C2  UNL     1      30.905   5.175  47.790  1.00  0.00     0.113 C 
HETATM   19  C1  UNL     1      32.388   5.331  48.082  1.00  0.00     0.026 C 
ENDBRANCH  17  18
BRANCH  17  20
HETATM   20  C3  UNL     1      30.810   7.384  48.797  1.00  0.00     0.113 C 
HETATM   21  C4  UNL     1      29.819   8.530  48.885  1.00  0.00     0.026 C 
ENDBRANCH  17  20
ENDBRANCH  16  17
ENDBRANCH  15  16
ENDBRANCH   1  14
TORSDOF 6
ENDMDL
MODEL 4
REMARK VINA RESULT:      -6.7      5.353      9.760
REMARK  6 active torsions:
REMARK  status: ('A' for Active; 'I' for Inactive)
REMARK    1  A    between atoms: C2_2  and  N1_3 
REMARK    2  A    between atoms: N1_3  and  C3_4 
REMARK    3  A    between atoms: N1_3  and  C5_6 
REMARK    4  A    between atoms: C5_6  and  C6_7 
REMARK    5  A    between atoms: C7_8  and  C8_9 
REMARK       I    between atoms: C8_9  and  N2_11 
REMARK    6  A    between atoms: N2_11  and  C9_12 
ROOT
HETATM    1  C8  UNL     1      26.271   3.826  49.660  1.00  0.00     0.302 C 
HETATM    2  O1  UNL     1      25.208   3.354  49.215  1.00  0.00    -0.258 OA
HETATM    3  N2  UNL     1      26.618   3.331  50.884  1.00  0.00    -0.299 N 
HETATM    4  H13 UNL     1      27.485   3.654  51.350  1.00  0.00     0.171 HD
ENDROOT
BRANCH   3   5
HETATM    5  C9  UNL     1      26.230   2.446  51.889  1.00  0.00     0.155 C 
HETATM    6  C10 UNL     1      27.384   2.011  52.364  1.00  0.00     0.087 C 
HETATM    7  C11 UNL     1      27.328   0.442  52.547  1.00  0.00     0.124 C 
HETATM    8  N4  UNL     1      28.687   2.341  52.940  1.00  0.00    -0.242 NA
HETATM    9  C12 UNL     1      26.688   0.857  53.907  1.00  0.00     0.059 C 
HETATM   10  N3  UNL     1      27.712   0.831  54.755  1.00  0.00    -0.245 NA
HETATM   11  C14 UNL     1      25.271   1.248  53.628  1.00  0.00     0.146 C 
HETATM   12  C13 UNL     1      28.864   1.702  54.177  1.00  0.00     0.233 C 
HETATM   13  N5  UNL     1      24.999   2.037  52.557  1.00  0.00    -0.239 NA
ENDBRANCH   3   5
BRANCH   1  14
HETATM   14  C7  UNL     1      27.126   4.792  49.038  1.00  0.00    -0.004 C 
HETATM   15  C6  UNL     1      27.853   5.591  48.501  1.00  0.00    -0.077 C 
BRANCH  15  16
HETATM   16  C5  UNL     1      28.737   6.552  47.823  1.00  0.00     0.212 C 
BRANCH  16  17
HETATM   17  N1  UNL     1      28.785   7.743  48.557  1.00  0.00    -0.403 N 
BRANCH  17  18
HETATM   18  C2  UNL     1      29.984   8.444  48.477  1.00  0.00     0.113 C 
HETATM   19  C1  UNL     1      31.119   7.663  49.118  1.00  0.00     0.026 C 
ENDBRANCH  17  18
BRANCH  17  20
HETATM   20  C3  UNL     1      27.560   8.433  48.644  1.00  0.00     0.113 C 
HETATM   21  C4  UNL     1      27.402   9.070  50.011  1.00  0.00     0.026 C 
ENDBRANCH  17  20
ENDBRANCH  16  17
ENDBRANCH  15  16
ENDBRANCH   1  14
TORSDOF 6
ENDMDL
MODEL 5
REMARK VINA RESULT:      -6.6      2.414      3.576
REMARK  6 active torsions:
REMARK  status: ('A' for Active; 'I' for Inactive)
REMARK    1  A    between atoms: C2_2  and  N1_3 
REMARK    2  A    between atoms: N1_3  and  C3_4 
REMARK    3  A    between atoms: N1_3  and  C5_6 
REMARK    4  A    between atoms: C5_6  and  C6_7 
REMARK    5  A    between atoms: C7_8  and  C8_9 
REMARK       I    between atoms: C8_9  and  N2_11 
REMARK    6  A    between atoms: N2_11  and  C9_12 
ROOT
HETATM    1  C8  UNL     1      24.793   1.973  52.214  1.00  0.00     0.302 C 
HETATM    2  O1  UNL     1      25.196   3.013  51.661  1.00  0.00    -0.258 OA
HETATM    3  N2  UNL     1      25.727   1.386  53.019  1.00  0.00    -0.299 N 
HETATM    4  H13 UNL     1      25.499   0.514  53.530  1.00  0.00     0.171 HD
ENDROOT
BRANCH   3   5
HETATM    5  C9  UNL     1      27.030   1.504  53.499  1.00  0.00     0.155 C 
HETATM    6  C10 UNL     1      27.412   0.246  53.638  1.00  0.00     0.087 C 
HETATM    7  C11 UNL     1      28.139   0.060  55.029  1.00  0.00     0.124 C 
HETATM    8  N4  UNL     1      27.591  -1.066  53.019  1.00  0.00    -0.242 NA
HETATM    9  C12 UNL     1      29.359   0.555  54.193  1.00  0.00     0.059 C 
HETATM   10  N3  UNL     1      29.963  -0.571  53.825  1.00  0.00    -0.245 NA
HETATM   11  C14 UNL     1      29.220   2.037  54.044  1.00  0.00     0.146 C 
HETATM   12  C13 UNL     1      28.921  -1.500  53.142  1.00  0.00     0.233 C 
HETATM   13  N5  UNL     1      28.009   2.562  53.729  1.00  0.00    -0.239 NA
ENDBRANCH   3   5
BRANCH   1  14
HETATM   14  C7  UNL     1      23.503   1.364  52.095  1.00  0.00    -0.004 C 
HETATM   15  C6  UNL     1      22.419   0.847  51.974  1.00  0.00    -0.077 C 
BRANCH  15  16
HETATM   16  C5  UNL     1      21.106   0.205  51.804  1.00  0.00     0.212 C 
BRANCH  16  17
HETATM   17  N1  UNL     1      20.694  -0.349  53.023  1.00  0.00    -0.403 N 
BRANCH  17  18
HETATM   18  C2  UNL     1      19.320  -0.514  53.167  1.00  0.00     0.113 C 
HETATM   19  C1  UNL     1      18.577  -0.024  51.937  1.00  0.00     0.026 C 
ENDBRANCH  17  18
BRANCH  17  20
HETATM   20  C3  UNL     1      21.588  -1.284  53.579  1.00  0.00     0.113 C 
HETATM   21  C4  UNL     1      21.940  -0.905  55.005  1.00  0.00     0.026 C 
ENDBRANCH  17  20
ENDBRANCH  16  17
ENDBRANCH  15  16
ENDBRANCH   1  14
TORSDOF 6
ENDMDL
MODEL 6
REMARK VINA RESULT:      -6.4      5.053      9.075
REMARK  6 active torsions:
REMARK  status: ('A' for Active; 'I' for Inactive)
REMARK    1  A    between atoms: C2_2  and  N1_3 
REMARK    2  A    between atoms: N1_3  and  C3_4 
REMARK    3  A    between atoms: N1_3  and  C5_6 
REMARK    4  A    between atoms: C5_6  and  C6_7 
REMARK    5  A    between atoms: C7_8  and  C8_9 
REMARK       I    between atoms: C8_9  and  N2_11 
REMARK    6  A    between atoms: N2_11  and  C9_12 
ROOT
HETATM    1  C8  UNL     1      25.761   3.250  50.100  1.00  0.00     0.302 C 
HETATM    2  O1  UNL     1      24.578   2.941  49.865  1.00  0.00    -0.258 OA
HETATM    3  N2  UNL     1      26.314   2.547  51.133  1.00  0.00    -0.299 N 
HETATM    4  H13 UNL     1      27.295   2.723  51.415  1.00  0.00     0.171 HD
ENDROOT
BRANCH   3   5
HETATM    5  C9  UNL     1      26.061   1.555  52.079  1.00  0.00     0.155 C 
HETATM    6  C10 UNL     1      27.271   1.233  52.503  1.00  0.00     0.087 C 
HETATM    7  C11 UNL     1      27.409  -0.339  52.575  1.00  0.00     0.124 C 
HETATM    8  N4  UNL     1      28.538   1.680  53.079  1.00  0.00    -0.242 NA
HETATM    9  C12 UNL     1      26.758  -0.099  53.972  1.00  0.00     0.059 C 
HETATM   10  N3  UNL     1      27.799  -0.057  54.799  1.00  0.00    -0.245 NA
HETATM   11  C14 UNL     1      25.298   0.134  53.745  1.00  0.00     0.146 C 
HETATM   12  C13 UNL     1      28.822   0.985  54.265  1.00  0.00     0.233 C 
HETATM   13  N5  UNL     1      24.906   0.954  52.737  1.00  0.00    -0.239 NA
ENDBRANCH   3   5
BRANCH   1  14
HETATM   14  C7  UNL     1      26.561   4.224  49.422  1.00  0.00    -0.004 C 
HETATM   15  C6  UNL     1      27.226   5.061  48.861  1.00  0.00    -0.077 C 
BRANCH  15  16
HETATM   16  C5  UNL     1      28.031   6.097  48.197  1.00  0.00     0.212 C 
BRANCH  16  17
HETATM   17  N1  UNL     1      27.441   7.351  48.401  1.00  0.00    -0.403 N 
BRANCH  17  18
HETATM   18  C2  UNL     1      28.257   8.302  49.007  1.00  0.00     0.113 C 
HETATM   19  C1  UNL     1      27.478   9.125  50.019  1.00  0.00     0.026 C 
ENDBRANCH  17  18
BRANCH  17  20
HETATM   20  C3  UNL     1      26.511   7.734  47.415  1.00  0.00     0.113 C 
HETATM   21  C4  UNL     1      27.216   8.370  46.232  1.00  0.00     0.026 C 
ENDBRANCH  17  20
ENDBRANCH  16  17
ENDBRANCH  15  16
ENDBRANCH   1  14
TORSDOF 6
ENDMDL
MODEL 7
REMARK VINA RESULT:      -6.4      4.079      5.414
REMARK  6 active torsions:
REMARK  status: ('A' for Active; 'I' for Inactive)
REMARK    1  A    between atoms: C2_2  and  N1_3 
REMARK    2  A    between atoms: N1_3  and  C3_4 
REMARK    3  A    between atoms: N1_3  and  C5_6 
REMARK    4  A    between atoms: C5_6  and  C6_7 
REMARK    5  A    between atoms: C7_8  and  C8_9 
REMARK       I    between atoms: C8_9  and  N2_11 
REMARK    6  A    between atoms: N2_11  and  C9_12 
ROOT
HETATM    1  C8  UNL     1      26.136   3.150  50.352  1.00  0.00     0.302 C 
HETATM    2  O1  UNL     1      27.203   3.641  49.940  1.00  0.00    -0.258 OA
HETATM    3  N2  UNL     1      26.275   2.429  51.504  1.00  0.00    -0.299 N 
HETATM    4  H13 UNL     1      25.450   1.975  51.936  1.00  0.00     0.171 HD
ENDROOT
BRANCH   3   5
HETATM    5  C9  UNL     1      27.196   2.010  52.462  1.00  0.00     0.155 C 
HETATM    6  C10 UNL     1      26.796   0.781  52.742  1.00  0.00     0.087 C 
HETATM    7  C11 UNL     1      26.799   0.565  54.308  1.00  0.00     0.124 C 
HETATM    8  N4  UNL     1      26.464  -0.554  52.248  1.00  0.00    -0.242 NA
HETATM    9  C12 UNL     1      28.296   0.233  54.025  1.00  0.00     0.059 C 
HETATM   10  N3  UNL     1      28.310  -1.093  53.929  1.00  0.00    -0.245 NA
HETATM   11  C14 UNL     1      29.008   1.535  53.830  1.00  0.00     0.146 C 
HETATM   12  C13 UNL     1      27.241  -1.532  52.889  1.00  0.00     0.233 C 
HETATM   13  N5  UNL     1      28.436   2.495  53.059  1.00  0.00    -0.239 NA
ENDBRANCH   3   5
BRANCH   1  14
HETATM   14  C7  UNL     1      24.836   3.263  49.762  1.00  0.00    -0.004 C 
HETATM   15  C6  UNL     1      23.736   3.340  49.272  1.00  0.00    -0.077 C 
BRANCH  15  16
HETATM   16  C5  UNL     1      22.386   3.416  48.694  1.00  0.00     0.212 C 
BRANCH  16  17
HETATM   17  N1  UNL     1      21.492   2.691  49.492  1.00  0.00    -0.403 N 
BRANCH  17  18
HETATM   18  C2  UNL     1      21.439   1.325  49.235  1.00  0.00     0.113 C 
HETATM   19  C1  UNL     1      21.360   0.528  50.527  1.00  0.00     0.026 C 
ENDBRANCH  17  18
BRANCH  17  20
HETATM   20  C3  UNL     1      21.345   3.177  50.805  1.00  0.00     0.113 C 
HETATM   21  C4  UNL     1      20.146   4.101  50.903  1.00  0.00     0.026 C 
ENDBRANCH  17  20
ENDBRANCH  16  17
ENDBRANCH  15  16
ENDBRANCH   1  14
TORSDOF 6
ENDMDL
MODEL 8
REMARK VINA RESULT:      -6.3      5.328      8.501
REMARK  6 active torsions:
REMARK  status: ('A' for Active; 'I' for Inactive)
REMARK    1  A    between atoms: C2_2  and  N1_3 
REMARK    2  A    between atoms: N1_3  and  C3_4 
REMARK    3  A    between atoms: N1_3  and  C5_6 
REMARK    4  A    between atoms: C5_6  and  C6_7 
REMARK    5  A    between atoms: C7_8  and  C8_9 
REMARK       I    between atoms: C8_9  and  N2_11 
REMARK    6  A    between atoms: N2_11  and  C9_12 
ROOT
HETATM    1  C8  UNL     1      26.431   3.660  50.176  1.00  0.00     0.302 C 
HETATM    2  O1  UNL     1      26.912   3.896  49.052  1.00  0.00    -0.258 OA
HETATM    3  N2  UNL     1      25.680   4.685  50.675  1.00  0.00    -0.299 N 
HETATM    4  H13 UNL     1      25.231   4.597  51.605  1.00  0.00     0.171 HD
ENDROOT
BRANCH   3   5
HETATM    5  C9  UNL     1      25.204   5.966  50.400  1.00  0.00     0.155 C 
HETATM    6  C10 UNL     1      23.895   5.792  50.342  1.00  0.00     0.087 C 
HETATM    7  C11 UNL     1      23.313   6.550  49.083  1.00  0.00     0.124 C 
HETATM    8  N4  UNL     1      22.681   5.312  51.001  1.00  0.00    -0.242 NA
HETATM    9  C12 UNL     1      23.317   7.741  50.089  1.00  0.00     0.059 C 
HETATM   10  N3  UNL     1      22.074   7.754  50.563  1.00  0.00    -0.245 NA
HETATM   11  C14 UNL     1      24.728   8.226  50.193  1.00  0.00     0.146 C 
HETATM   12  C13 UNL     1      21.724   6.334  51.091  1.00  0.00     0.233 C 
HETATM   13  N5  UNL     1      25.734   7.323  50.310  1.00  0.00    -0.239 NA
ENDBRANCH   3   5
BRANCH   1  14
HETATM   14  C7  UNL     1      26.582   2.471  50.959  1.00  0.00    -0.004 C 
HETATM   15  C6  UNL     1      26.712   1.457  51.602  1.00  0.00    -0.077 C 
BRANCH  15  16
HETATM   16  C5  UNL     1      26.882   0.211  52.364  1.00  0.00     0.212 C 
BRANCH  16  17
HETATM   17  N1  UNL     1      27.390   0.504  53.635  1.00  0.00    -0.403 N 
BRANCH  17  18
HETATM   18  C2  UNL     1      26.594   0.101  54.703  1.00  0.00     0.113 C 
HETATM   19  C1  UNL     1      25.353  -0.627  54.216  1.00  0.00     0.026 C 
ENDBRANCH  17  18
BRANCH  17  20
HETATM   20  C3  UNL     1      28.794   0.459  53.736  1.00  0.00     0.113 C 
HETATM   21  C4  UNL     1      29.307  -0.937  53.433  1.00  0.00     0.026 C 
ENDBRANCH  17  20
ENDBRANCH  16  17
ENDBRANCH  15  16
ENDBRANCH   1  14
TORSDOF 6
ENDMDL
MODEL 9
REMARK VINA RESULT:      -6.2      2.750      3.885
REMARK  6 active torsions:
REMARK  status: ('A' for Active; 'I' for Inactive)
REMARK    1  A    between atoms: C2_2  and  N1_3 
REMARK    2  A    between atoms: N1_3  and  C3_4 
REMARK    3  A    between atoms: N1_3  and  C5_6 
REMARK    4  A    between atoms: C5_6  and  C6_7 
REMARK    5  A    between atoms: C7_8  and  C8_9 
REMARK       I    between atoms: C8_9  and  N2_11 
REMARK    6  A    between atoms: N2_11  and  C9_12 
ROOT
HETATM    1  C8  UNL     1      24.454  -0.013  53.780  1.00  0.00     0.302 C 
HETATM    2  O1  UNL     1      24.753  -0.759  54.731  1.00  0.00    -0.258 OA
HETATM    3  N2  UNL     1      25.467   0.823  53.403  1.00  0.00    -0.299 N 
HETATM    4  H13 UNL     1      25.328   1.488  52.622  1.00  0.00     0.171 HD
ENDROOT
BRANCH   3   5
HETATM    5  C9  UNL     1      26.785   1.184  53.676  1.00  0.00     0.155 C 
HETATM    6  C10 UNL     1      27.392   0.018  53.808  1.00  0.00     0.087 C 
HETATM    7  C11 UNL     1      28.330   0.047  55.080  1.00  0.00     0.124 C 
HETATM    8  N4  UNL     1      27.705  -1.286  53.225  1.00  0.00    -0.242 NA
HETATM    9  C12 UNL     1      29.317   0.677  54.049  1.00  0.00     0.059 C 
HETATM   10  N3  UNL     1      30.047  -0.357  53.642  1.00  0.00    -0.245 NA
HETATM   11  C14 UNL     1      28.906   2.103  53.860  1.00  0.00     0.146 C 
HETATM   12  C13 UNL     1      29.092  -1.488  53.164  1.00  0.00     0.233 C 
HETATM   13  N5  UNL     1      27.591   2.401  53.709  1.00  0.00    -0.239 NA
ENDBRANCH   3   5
BRANCH   1  14
HETATM   14  C7  UNL     1      23.209   0.050  53.076  1.00  0.00    -0.004 C 
HETATM   15  C6  UNL     1      22.150   0.098  52.500  1.00  0.00    -0.077 C 
BRANCH  15  16
HETATM   16  C5  UNL     1      20.846   0.160  51.821  1.00  0.00     0.212 C 
BRANCH  16  17
HETATM   17  N1  UNL     1      20.880   1.149  50.831  1.00  0.00    -0.403 N 
BRANCH  17  18
HETATM   18  C2  UNL     1      20.935   2.459  51.299  1.00  0.00     0.113 C 
HETATM   19  C1  UNL     1      19.633   2.855  51.973  1.00  0.00     0.026 C 
ENDBRANCH  17  18
BRANCH  17  20
HETATM   20  C3  UNL     1      21.560   0.784  49.653  1.00  0.00     0.113 C 
HETATM   21  C4  UNL     1      21.205   1.724  48.517  1.00  0.00     0.026 C 
ENDBRANCH  17  20
ENDBRANCH  16  17
ENDBRANCH  15  16
ENDBRANCH   1  14
TORSDOF 6
ENDMDL
