MODEL 1
REMARK VINA RESULT:      -9.6      0.000      0.000
REMARK  0 active torsions:
REMARK  status: ('A' for Active; 'I' for Inactive)
ROOT
HETATM    1  C1  UNL     1      17.839   3.713  51.259  1.00  0.00     0.159 C 
HETATM    2  N1  UNL     1      18.985   2.939  50.826  1.00  0.00    -0.352 N 
HETATM    3  C2  UNL     1      20.082   3.480  51.353  1.00  0.00    -0.033 C 
HETATM    4  C3  UNL     1      21.030   3.929  51.818  1.00  0.00     0.068 A 
HETATM    5  C4  UNL     1      22.184   4.453  52.395  1.00  0.00     0.288 A 
HETATM    6  O1  UNL     1      22.514   3.279  51.963  1.00  0.00     0.000 OA
HETATM    7  N2  UNL     1      23.502   3.939  52.551  1.00  0.00     0.140 N 
HETATM    8  C5  UNL     1      24.528   2.929  52.399  1.00  0.00     0.169 A 
HETATM    9  C6  UNL     1      25.560   3.080  51.515  1.00  0.00     0.042 A 
HETATM   10  C7  UNL     1      26.425   2.014  51.451  1.00  0.00     0.035 A 
HETATM   11  C8  UNL     1      26.263   0.889  52.218  1.00  0.00     0.072 A 
HETATM   12  N3  UNL     1      27.228  -0.038  51.983  1.00  0.00    -0.241 NA
HETATM   13  C9  UNL     1      27.160  -1.207  52.686  1.00  0.00     0.236 A 
HETATM   14  N4  UNL     1      26.141  -1.388  53.580  1.00  0.00    -0.222 NA
HETATM   15  C10 UNL     1      25.204  -0.470  53.798  1.00  0.00     0.163 A 
HETATM   16  C11 UNL     1      25.232   0.723  53.111  1.00  0.00     0.043 A 
HETATM   17  C12 UNL     1      24.401   1.793  53.147  1.00  0.00     0.057 A 
HETATM   18  N5  UNL     1      24.276  -0.909  54.787  1.00  0.00    -0.241 NA
HETATM   19  C13 UNL     1      22.986  -0.861  54.603  1.00  0.00     0.115 C 
HETATM   20  C14 UNL     1      21.698  -0.593  53.884  1.00  0.00    -0.000 C 
HETATM   21  C15 UNL     1      20.326  -0.699  54.102  1.00  0.00     0.084 C 
HETATM   22  C16 UNL     1      20.082  -0.142  52.719  1.00  0.00     0.017 A 
HETATM   23 BR1  UNL     1      21.027   0.278  51.071  1.00  0.00    -0.155 Br
HETATM   24  C17 UNL     1      19.075   0.201  51.885  1.00  0.00     0.064 A 
HETATM   25  C18 UNL     1      18.152   0.640  50.814  1.00  0.00     0.036 C 
HETATM   26  C19 UNL     1      18.785   1.752  49.989  1.00  0.00     0.133 C 
HETATM   27  H4  UNL     1      24.052   4.697  53.074  1.00  0.00     0.325 HD
ENDROOT
TORSDOF 0
ENDMDL
MODEL 2
REMARK VINA RESULT:      -9.2      2.022      4.702
REMARK  0 active torsions:
REMARK  status: ('A' for Active; 'I' for Inactive)
ROOT
HETATM    1  C1  UNL     1      20.754   5.691  48.764  1.00  0.00     0.159 C 
HETATM    2  N1  UNL     1      21.017   5.203  50.103  1.00  0.00    -0.352 N 
HETATM    3  C2  UNL     1      20.747   3.900  50.137  1.00  0.00    -0.033 C 
HETATM    4  C3  UNL     1      20.534   2.773  50.170  1.00  0.00     0.068 A 
HETATM    5  C4  UNL     1      20.299   1.401  50.214  1.00  0.00     0.288 A 
HETATM    6  O1  UNL     1      20.981   1.671  51.280  1.00  0.00     0.000 OA
HETATM    7  N2  UNL     1      20.659   0.392  51.150  1.00  0.00     0.140 N 
HETATM    8  C5  UNL     1      21.287  -0.090  52.363  1.00  0.00     0.169 A 
HETATM    9  C6  UNL     1      20.550  -0.483  53.447  1.00  0.00     0.042 A 
HETATM   10  C7  UNL     1      21.291  -0.868  54.538  1.00  0.00     0.035 A 
HETATM   11  C8  UNL     1      22.663  -0.859  54.536  1.00  0.00     0.072 A 
HETATM   12  N3  UNL     1      23.182  -1.268  55.722  1.00  0.00    -0.241 NA
HETATM   13  C9  UNL     1      24.543  -1.289  55.838  1.00  0.00     0.236 A 
HETATM   14  N4  UNL     1      25.307  -0.905  54.772  1.00  0.00    -0.222 NA
HETATM   15  C10 UNL     1      24.783  -0.506  53.616  1.00  0.00     0.163 A 
HETATM   16  C11 UNL     1      23.415  -0.468  53.456  1.00  0.00     0.043 A 
HETATM   17  C12 UNL     1      22.653  -0.096  52.399  1.00  0.00     0.057 A 
HETATM   18  N5  UNL     1      25.802  -0.180  52.676  1.00  0.00    -0.241 NA
HETATM   19  C13 UNL     1      25.805   0.943  52.012  1.00  0.00     0.115 C 
HETATM   20  C14 UNL     1      25.325   2.294  51.573  1.00  0.00    -0.000 C 
HETATM   21  C15 UNL     1      25.689   3.306  50.686  1.00  0.00     0.084 C 
HETATM   22  C16 UNL     1      24.482   4.101  51.130  1.00  0.00     0.017 A 
HETATM   23 BR1  UNL     1      23.107   4.119  52.505  1.00  0.00    -0.155 Br
HETATM   24  C17 UNL     1      23.846   5.269  50.890  1.00  0.00     0.064 A 
HETATM   25  C18 UNL     1      22.988   6.473  50.798  1.00  0.00     0.036 C 
HETATM   26  C19 UNL     1      21.543   6.120  51.119  1.00  0.00     0.133 C 
HETATM   27  H4  UNL     1      20.270  -0.526  50.756  1.00  0.00     0.325 HD
ENDROOT
TORSDOF 0
ENDMDL
MODEL 3
REMARK VINA RESULT:      -8.4      2.995      6.777
REMARK  0 active torsions:
REMARK  status: ('A' for Active; 'I' for Inactive)
ROOT
HETATM    1  C1  UNL     1      26.785  -0.619  52.335  1.00  0.00     0.159 C 
HETATM    2  N1  UNL     1      26.018   0.564  52.671  1.00  0.00    -0.352 N 
HETATM    3  C2  UNL     1      26.299   1.516  51.783  1.00  0.00    -0.033 C 
HETATM    4  C3  UNL     1      26.521   2.334  51.011  1.00  0.00     0.068 A 
HETATM    5  C4  UNL     1      26.768   3.328  50.066  1.00  0.00     0.288 A 
HETATM    6  O1  UNL     1      25.702   3.703  50.696  1.00  0.00     0.000 OA
HETATM    7  N2  UNL     1      26.095   4.539  49.745  1.00  0.00     0.140 N 
HETATM    8  C5  UNL     1      25.046   5.525  49.907  1.00  0.00     0.169 A 
HETATM    9  C6  UNL     1      25.293   6.753  50.457  1.00  0.00     0.042 A 
HETATM   10  C7  UNL     1      24.186   7.557  50.589  1.00  0.00     0.035 A 
HETATM   11  C8  UNL     1      22.935   7.157  50.196  1.00  0.00     0.072 A 
HETATM   12  N3  UNL     1      21.993   8.108  50.429  1.00  0.00    -0.241 NA
HETATM   13  C9  UNL     1      20.705   7.813  50.085  1.00  0.00     0.236 A 
HETATM   14  N4  UNL     1      20.426   6.595  49.530  1.00  0.00    -0.222 NA
HETATM   15  C10 UNL     1      21.360   5.674  49.309  1.00  0.00     0.163 A 
HETATM   16  C11 UNL     1      22.673   5.928  49.641  1.00  0.00     0.043 A 
HETATM   17  C12 UNL     1      23.785   5.163  49.527  1.00  0.00     0.057 A 
HETATM   18  N5  UNL     1      20.801   4.509  48.710  1.00  0.00    -0.241 NA
HETATM   19  C13 UNL     1      21.027   3.310  49.171  1.00  0.00     0.115 C 
HETATM   20  C14 UNL     1      21.594   2.258  50.077  1.00  0.00    -0.000 C 
HETATM   21  C15 UNL     1      21.586   0.872  50.218  1.00  0.00     0.084 C 
HETATM   22  C16 UNL     1      22.478   1.011  51.430  1.00  0.00     0.017 A 
HETATM   23 BR1  UNL     1      23.174   2.358  52.648  1.00  0.00    -0.155 Br
HETATM   24  C17 UNL     1      23.114   0.263  52.360  1.00  0.00     0.064 A 
HETATM   25  C18 UNL     1      23.891  -0.341  53.467  1.00  0.00     0.036 C 
HETATM   26  C19 UNL     1      25.092   0.529  53.808  1.00  0.00     0.133 C 
HETATM   27  H4  UNL     1      26.643   4.973  48.932  1.00  0.00     0.325 HD
ENDROOT
TORSDOF 0
ENDMDL
MODEL 4
REMARK VINA RESULT:      -8.1      2.913      3.619
REMARK  0 active torsions:
REMARK  status: ('A' for Active; 'I' for Inactive)
ROOT
HETATM    1  C1  UNL     1      21.450   6.165  46.447  1.00  0.00     0.159 C 
HETATM    2  N1  UNL     1      22.075   4.909  46.810  1.00  0.00    -0.352 N 
HETATM    3  C2  UNL     1      22.925   5.134  47.810  1.00  0.00    -0.033 C 
HETATM    4  C3  UNL     1      23.645   5.317  48.684  1.00  0.00     0.068 A 
HETATM    5  C4  UNL     1      24.506   5.524  49.759  1.00  0.00     0.288 A 
HETATM    6  O1  UNL     1      24.327   4.244  49.699  1.00  0.00     0.000 OA
HETATM    7  N2  UNL     1      25.132   4.636  50.677  1.00  0.00     0.140 N 
HETATM    8  C5  UNL     1      25.423   3.326  51.224  1.00  0.00     0.169 A 
HETATM    9  C6  UNL     1      26.646   2.736  51.065  1.00  0.00     0.042 A 
HETATM   10  C7  UNL     1      26.751   1.475  51.599  1.00  0.00     0.035 A 
HETATM   11  C8  UNL     1      25.707   0.859  52.242  1.00  0.00     0.072 A 
HETATM   12  N3  UNL     1      26.033  -0.385  52.679  1.00  0.00    -0.241 NA
HETATM   13  C9  UNL     1      25.064  -1.097  53.326  1.00  0.00     0.236 A 
HETATM   14  N4  UNL     1      23.831  -0.534  53.503  1.00  0.00    -0.222 NA
HETATM   15  C10 UNL     1      23.528   0.686  53.069  1.00  0.00     0.163 A 
HETATM   16  C11 UNL     1      24.474   1.440  52.410  1.00  0.00     0.043 A 
HETATM   17  C12 UNL     1      24.407   2.681  51.872  1.00  0.00     0.057 A 
HETATM   18  N5  UNL     1      22.185   1.029  53.399  1.00  0.00    -0.241 NA
HETATM   19  C13 UNL     1      21.348   1.502  52.517  1.00  0.00     0.115 C 
HETATM   20  C14 UNL     1      20.865   1.967  51.176  1.00  0.00    -0.000 C 
HETATM   21  C15 UNL     1      19.712   2.487  50.593  1.00  0.00     0.084 C 
HETATM   22  C16 UNL     1      20.435   2.554  49.268  1.00  0.00     0.017 A 
HETATM   23 BR1  UNL     1      22.073   1.950  48.408  1.00  0.00    -0.155 Br
HETATM   24  C17 UNL     1      20.247   2.932  47.984  1.00  0.00     0.064 A 
HETATM   25  C18 UNL     1      20.275   3.276  46.544  1.00  0.00     0.036 C 
HETATM   26  C19 UNL     1      21.681   3.676  46.120  1.00  0.00     0.133 C 
HETATM   27  H4  UNL     1      25.697   5.254  51.345  1.00  0.00     0.325 HD
ENDROOT
TORSDOF 0
ENDMDL
MODEL 5
REMARK VINA RESULT:      -8.1      3.296      5.494
REMARK  0 active torsions:
REMARK  status: ('A' for Active; 'I' for Inactive)
ROOT
HETATM    1  C1  UNL     1      19.325   6.919  48.112  1.00  0.00     0.159 C 
HETATM    2  N1  UNL     1      20.143   6.623  49.271  1.00  0.00    -0.352 N 
HETATM    3  C2  UNL     1      20.335   5.307  49.327  1.00  0.00    -0.033 C 
HETATM    4  C3  UNL     1      20.521   4.176  49.371  1.00  0.00     0.068 A 
HETATM    5  C4  UNL     1      20.770   2.806  49.423  1.00  0.00     0.288 A 
HETATM    6  O1  UNL     1      21.630   3.346  50.225  1.00  0.00     0.000 OA
HETATM    7  N2  UNL     1      21.716   2.026  50.144  1.00  0.00     0.140 N 
HETATM    8  C5  UNL     1      22.817   1.846  51.068  1.00  0.00     0.169 A 
HETATM    9  C6  UNL     1      22.633   1.304  52.310  1.00  0.00     0.042 A 
HETATM   10  C7  UNL     1      23.765   1.246  53.086  1.00  0.00     0.035 A 
HETATM   11  C8  UNL     1      24.983   1.695  52.646  1.00  0.00     0.072 A 
HETATM   12  N3  UNL     1      25.956   1.548  53.582  1.00  0.00    -0.241 NA
HETATM   13  C9  UNL     1      27.212   1.973  53.255  1.00  0.00     0.236 A 
HETATM   14  N4  UNL     1      27.430   2.518  52.020  1.00  0.00    -0.222 NA
HETATM   15  C10 UNL     1      26.466   2.655  51.114  1.00  0.00     0.163 A 
HETATM   16  C11 UNL     1      25.184   2.241  51.402  1.00  0.00     0.043 A 
HETATM   17  C12 UNL     1      24.048   2.283  50.664  1.00  0.00     0.057 A 
HETATM   18  N5  UNL     1      26.969   3.235  49.914  1.00  0.00    -0.241 NA
HETATM   19  C13 UNL     1      26.396   4.256  49.339  1.00  0.00     0.115 C 
HETATM   20  C14 UNL     1      25.391   5.352  49.142  1.00  0.00    -0.000 C 
HETATM   21  C15 UNL     1      25.105   6.370  48.236  1.00  0.00     0.084 C 
HETATM   22  C16 UNL     1      23.914   6.760  49.080  1.00  0.00     0.017 A 
HETATM   23 BR1  UNL     1      23.120   6.418  50.822  1.00  0.00    -0.155 Br
HETATM   24  C17 UNL     1      22.892   7.645  49.113  1.00  0.00     0.064 A 
HETATM   25  C18 UNL     1      21.708   8.500  49.359  1.00  0.00     0.036 C 
HETATM   26  C19 UNL     1      20.637   7.721  50.109  1.00  0.00     0.133 C 
HETATM   27  H4  UNL     1      21.542   1.009  49.851  1.00  0.00     0.325 HD
ENDROOT
TORSDOF 0
ENDMDL
MODEL 6
REMARK VINA RESULT:      -7.3      3.597      5.959
REMARK  0 active torsions:
REMARK  status: ('A' for Active; 'I' for Inactive)
ROOT
HETATM    1  C1  UNL     1      23.632   9.083  47.679  1.00  0.00     0.159 C 
HETATM    2  N1  UNL     1      23.570   7.643  47.829  1.00  0.00    -0.352 N 
HETATM    3  C2  UNL     1      23.773   7.344  49.111  1.00  0.00    -0.033 C 
HETATM    4  C3  UNL     1      23.928   7.080  50.216  1.00  0.00     0.068 A 
HETATM    5  C4  UNL     1      24.094   6.749  51.559  1.00  0.00     0.288 A 
HETATM    6  O1  UNL     1      23.614   5.688  50.997  1.00  0.00     0.000 OA
HETATM    7  N2  UNL     1      23.842   5.560  52.297  1.00  0.00     0.140 N 
HETATM    8  C5  UNL     1      23.401   4.187  52.436  1.00  0.00     0.169 A 
HETATM    9  C6  UNL     1      24.286   3.165  52.642  1.00  0.00     0.042 A 
HETATM   10  C7  UNL     1      23.718   1.915  52.704  1.00  0.00     0.035 A 
HETATM   11  C8  UNL     1      22.368   1.713  52.572  1.00  0.00     0.072 A 
HETATM   12  N3  UNL     1      22.033   0.400  52.656  1.00  0.00    -0.241 NA
HETATM   13  C9  UNL     1      20.711   0.079  52.528  1.00  0.00     0.236 A 
HETATM   14  N4  UNL     1      19.801   1.079  52.324  1.00  0.00    -0.222 NA
HETATM   15  C10 UNL     1      20.146   2.361  52.244  1.00  0.00     0.163 A 
HETATM   16  C11 UNL     1      21.467   2.729  52.366  1.00  0.00     0.043 A 
HETATM   17  C12 UNL     1      22.062   3.946  52.310  1.00  0.00     0.057 A 
HETATM   18  N5  UNL     1      19.003   3.188  52.045  1.00  0.00    -0.241 NA
HETATM   19  C13 UNL     1      18.949   4.089  51.104  1.00  0.00     0.115 C 
HETATM   20  C14 UNL     1      19.420   4.900  49.933  1.00  0.00    -0.000 C 
HETATM   21  C15 UNL     1      18.968   5.935  49.117  1.00  0.00     0.084 C 
HETATM   22  C16 UNL     1      20.272   5.878  48.356  1.00  0.00     0.017 A 
HETATM   23 BR1  UNL     1      21.857   4.768  48.155  1.00  0.00    -0.155 Br
HETATM   24  C17 UNL     1      20.920   6.478  47.333  1.00  0.00     0.064 A 
HETATM   25  C18 UNL     1      21.814   6.978  46.263  1.00  0.00     0.036 C 
HETATM   26  C19 UNL     1      23.272   6.804  46.664  1.00  0.00     0.133 C 
HETATM   27  H4  UNL     1      24.110   5.780  53.311  1.00  0.00     0.325 HD
ENDROOT
TORSDOF 0
ENDMDL
MODEL 7
REMARK VINA RESULT:      -7.3      6.025      9.087
REMARK  0 active torsions:
REMARK  status: ('A' for Active; 'I' for Inactive)
ROOT
HETATM    1  C1  UNL     1      27.948  10.222  45.063  1.00  0.00     0.159 C 
HETATM    2  N1  UNL     1      27.416   9.930  46.379  1.00  0.00    -0.352 N 
HETATM    3  C2  UNL     1      26.276   9.256  46.233  1.00  0.00    -0.033 C 
HETATM    4  C3  UNL     1      25.304   8.659  46.116  1.00  0.00     0.068 A 
HETATM    5  C4  UNL     1      24.134   7.915  45.985  1.00  0.00     0.288 A 
HETATM    6  O1  UNL     1      24.493   7.784  47.221  1.00  0.00     0.000 OA
HETATM    7  N2  UNL     1      23.380   7.135  46.906  1.00  0.00     0.140 N 
HETATM    8  C5  UNL     1      23.113   6.564  48.210  1.00  0.00     0.169 A 
HETATM    9  C6  UNL     1      22.089   7.014  48.996  1.00  0.00     0.042 A 
HETATM   10  C7  UNL     1      21.995   6.405  50.224  1.00  0.00     0.035 A 
HETATM   11  C8  UNL     1      22.861   5.421  50.626  1.00  0.00     0.072 A 
HETATM   12  N3  UNL     1      22.587   4.972  51.878  1.00  0.00    -0.241 NA
HETATM   13  C9  UNL     1      23.395   3.995  52.386  1.00  0.00     0.236 A 
HETATM   14  N4  UNL     1      24.426   3.521  51.623  1.00  0.00    -0.222 NA
HETATM   15  C10 UNL     1      24.682   3.973  50.398  1.00  0.00     0.163 A 
HETATM   16  C11 UNL     1      23.893   4.958  49.847  1.00  0.00     0.043 A 
HETATM   17  C12 UNL     1      23.956   5.580  48.645  1.00  0.00     0.057 A 
HETATM   18  N5  UNL     1      25.799   3.298  49.826  1.00  0.00    -0.241 NA
HETATM   19  C13 UNL     1      26.795   3.937  49.280  1.00  0.00     0.115 C 
HETATM   20  C14 UNL     1      27.602   5.117  48.824  1.00  0.00    -0.000 C 
HETATM   21  C15 UNL     1      28.799   5.384  48.162  1.00  0.00     0.084 C 
HETATM   22  C16 UNL     1      28.517   6.863  48.291  1.00  0.00     0.017 A 
HETATM   23 BR1  UNL     1      27.321   8.100  49.199  1.00  0.00    -0.155 Br
HETATM   24  C17 UNL     1      29.040   8.066  47.964  1.00  0.00     0.064 A 
HETATM   25  C18 UNL     1      29.412   9.478  47.716  1.00  0.00     0.036 C 
HETATM   26  C19 UNL     1      28.165  10.338  47.571  1.00  0.00     0.133 C 
HETATM   27  H4  UNL     1      22.559   6.733  46.347  1.00  0.00     0.325 HD
ENDROOT
TORSDOF 0
ENDMDL
MODEL 8
REMARK VINA RESULT:      -7.3      3.180      7.283
REMARK  0 active torsions:
REMARK  status: ('A' for Active; 'I' for Inactive)
ROOT
HETATM    1  C1  UNL     1      24.387   3.190  49.659  1.00  0.00     0.159 C 
HETATM    2  N1  UNL     1      23.150   3.495  50.348  1.00  0.00    -0.352 N 
HETATM    3  C2  UNL     1      22.133   3.131  49.569  1.00  0.00    -0.033 C 
HETATM    4  C3  UNL     1      21.252   2.803  48.911  1.00  0.00     0.068 A 
HETATM    5  C4  UNL     1      20.176   2.389  48.130  1.00  0.00     0.288 A 
HETATM    6  O1  UNL     1      19.692   2.582  49.314  1.00  0.00     0.000 OA
HETATM    7  N2  UNL     1      18.799   2.179  48.420  1.00  0.00     0.140 N 
HETATM    8  C5  UNL     1      17.645   2.157  49.295  1.00  0.00     0.169 A 
HETATM    9  C6  UNL     1      16.650   3.090  49.197  1.00  0.00     0.042 A 
HETATM   10  C7  UNL     1      15.649   2.964  50.129  1.00  0.00     0.035 A 
HETATM   11  C8  UNL     1      15.649   1.976  51.080  1.00  0.00     0.072 A 
HETATM   12  N3  UNL     1      14.568   2.050  51.900  1.00  0.00    -0.241 NA
HETATM   13  C9  UNL     1      14.469   1.120  52.894  1.00  0.00     0.236 A 
HETATM   14  N4  UNL     1      15.446   0.171  53.018  1.00  0.00    -0.222 NA
HETATM   15  C10 UNL     1      16.499   0.113  52.207  1.00  0.00     0.163 A 
HETATM   16  C11 UNL     1      16.640   1.032  51.190  1.00  0.00     0.043 A 
HETATM   17  C12 UNL     1      17.610   1.187  50.257  1.00  0.00     0.057 A 
HETATM   18  N5  UNL     1      17.350  -0.978  52.548  1.00  0.00    -0.241 NA
HETATM   19  C13 UNL     1      18.636  -0.835  52.711  1.00  0.00     0.115 C 
HETATM   20  C14 UNL     1      19.954  -0.123  52.772  1.00  0.00    -0.000 C 
HETATM   21  C15 UNL     1      21.297  -0.409  53.010  1.00  0.00     0.084 C 
HETATM   22  C16 UNL     1      21.625   1.050  52.792  1.00  0.00     0.017 A 
HETATM   23 BR1  UNL     1      20.760   2.782  52.605  1.00  0.00    -0.155 Br
HETATM   24  C17 UNL     1      22.677   1.900  52.768  1.00  0.00     0.064 A 
HETATM   25  C18 UNL     1      23.660   3.004  52.688  1.00  0.00     0.036 C 
HETATM   26  C19 UNL     1      23.192   4.062  51.700  1.00  0.00     0.133 C 
HETATM   27  H4  UNL     1      18.354   1.844  47.505  1.00  0.00     0.325 HD
ENDROOT
TORSDOF 0
ENDMDL
MODEL 9
REMARK VINA RESULT:      -7.2      9.150     11.327
REMARK  0 active torsions:
REMARK  status: ('A' for Active; 'I' for Inactive)
ROOT
HETATM    1  C1  UNL     1      25.728  12.046  48.037  1.00  0.00     0.159 C 
HETATM    2  N1  UNL     1      26.637  11.307  47.184  1.00  0.00    -0.352 N 
HETATM    3  C2  UNL     1      27.846  11.324  47.741  1.00  0.00    -0.033 C 
HETATM    4  C3  UNL     1      28.887  11.318  48.225  1.00  0.00     0.068 A 
HETATM    5  C4  UNL     1      30.149  11.286  48.814  1.00  0.00     0.288 A 
HETATM    6  O1  UNL     1      30.168  10.369  47.901  1.00  0.00     0.000 OA
HETATM    7  N2  UNL     1      31.302  10.488  48.577  1.00  0.00     0.140 N 
HETATM    8  C5  UNL     1      32.044   9.447  47.895  1.00  0.00     0.169 A 
HETATM    9  C6  UNL     1      33.059   9.738  47.027  1.00  0.00     0.042 A 
HETATM   10  C7  UNL     1      33.632   8.645  46.423  1.00  0.00     0.035 A 
HETATM   11  C8  UNL     1      33.216   7.363  46.676  1.00  0.00     0.072 A 
HETATM   12  N3  UNL     1      33.917   6.444  45.962  1.00  0.00    -0.241 NA
HETATM   13  C9  UNL     1      33.580   5.130  46.128  1.00  0.00     0.236 A 
HETATM   14  N4  UNL     1      32.571   4.806  46.991  1.00  0.00    -0.222 NA
HETATM   15  C10 UNL     1      31.894   5.719  47.683  1.00  0.00     0.163 A 
HETATM   16  C11 UNL     1      32.199   7.055  47.546  1.00  0.00     0.043 A 
HETATM   17  C12 UNL     1      31.658   8.155  48.122  1.00  0.00     0.057 A 
HETATM   18  N5  UNL     1      30.912   5.107  48.515  1.00  0.00    -0.241 NA
HETATM   19  C13 UNL     1      29.669   5.502  48.532  1.00  0.00     0.115 C 
HETATM   20  C14 UNL     1      28.470   6.320  48.156  1.00  0.00    -0.000 C 
HETATM   21  C15 UNL     1      27.120   6.425  48.485  1.00  0.00     0.084 C 
HETATM   22  C16 UNL     1      26.987   7.558  47.494  1.00  0.00     0.017 A 
HETATM   23 BR1  UNL     1      27.965   8.431  46.056  1.00  0.00    -0.155 Br
HETATM   24  C17 UNL     1      26.075   8.430  47.008  1.00  0.00     0.064 A 
HETATM   25  C18 UNL     1      25.262   9.471  46.338  1.00  0.00     0.036 C 
HETATM   26  C19 UNL     1      26.130  10.665  45.967  1.00  0.00     0.133 C 
HETATM   27  H4  UNL     1      32.035  10.812  49.289  1.00  0.00     0.325 HD
ENDROOT
TORSDOF 0
ENDMDL
