MODEL 1
REMARK VINA RESULT:      -8.7      0.000      0.000
REMARK  1 active torsions:
REMARK  status: ('A' for Active; 'I' for Inactive)
REMARK    1  A    between atoms: C6_6  and  N1_7 
REMARK       I    between atoms: N1_7  and  C7_8 
REMARK       I    between atoms: C7_8  and  N2_10 
ROOT
HETATM    1  N1  UNL     1      24.852  -0.277  53.793  1.00  0.00    -0.307 N 
HETATM    2  C7  UNL     1      24.240   0.720  53.037  1.00  0.00     0.333 C 
HETATM    3  O1  UNL     1      24.701   1.666  52.346  1.00  0.00    -0.246 OA
HETATM    4  N2  UNL     1      22.799   0.810  52.933  1.00  0.00    -0.254 N 
HETATM    5  C8  UNL     1      21.665   0.099  53.509  1.00  0.00     0.137 C 
HETATM    6  C9  UNL     1      21.775  -1.000  54.432  1.00  0.00     0.119 C 
HETATM    7  N3  UNL     1      21.862  -1.878  55.195  1.00  0.00    -0.190 NA
HETATM    8  C10 UNL     1      20.353   0.316  53.308  1.00  0.00     0.032 C 
HETATM    9  C11 UNL     1      20.164   0.759  52.074  1.00  0.00     0.103 C 
HETATM   10  N4  UNL     1      21.025   1.064  50.939  1.00  0.00    -0.365 N 
HETATM   11  C12 UNL     1      21.424   2.556  50.683  1.00  0.00     0.032 A 
HETATM   12  C13 UNL     1      22.155   1.682  49.840  1.00  0.00     0.031 A 
HETATM   13  C14 UNL     1      22.734   1.096  51.019  1.00  0.00     0.032 A 
HETATM   14  C15 UNL     1      22.173   1.785  52.124  1.00  0.00     0.045 A 
HETATM   15  C16 UNL     1      21.333   2.762  52.606  1.00  0.00     0.032 A 
HETATM   16  C17 UNL     1      20.725   3.393  51.534  1.00  0.00     0.031 A 
HETATM   17  H6  UNL     1      24.283  -0.981  54.296  1.00  0.00     0.170 HD
HETATM   18  H8  UNL     1      20.870  -0.004  50.938  1.00  0.00     0.165 HD
ENDROOT
BRANCH   1  19
HETATM   19  C6  UNL     1      26.276  -0.301  53.847  1.00  0.00     0.045 A 
HETATM   20  C2  UNL     1      27.188  -1.149  53.068  1.00  0.00    -0.019 A 
HETATM   21  C1  UNL     1      26.858  -2.048  52.172  1.00  0.00     0.026 C 
HETATM   22  C3  UNL     1      28.531  -0.794  53.488  1.00  0.00     0.013 A 
HETATM   23  C4  UNL     1      28.440   0.165  54.421  1.00  0.00     0.003 A 
HETATM   24  C5  UNL     1      27.025   0.457  54.629  1.00  0.00     0.030 A 
ENDBRANCH   1  19
TORSDOF 1
ENDMDL
MODEL 2
REMARK VINA RESULT:      -8.6      3.425      6.262
REMARK  1 active torsions:
REMARK  status: ('A' for Active; 'I' for Inactive)
REMARK    1  A    between atoms: C6_6  and  N1_7 
REMARK       I    between atoms: N1_7  and  C7_8 
REMARK       I    between atoms: C7_8  and  N2_10 
ROOT
HETATM    1  N1  UNL     1      25.141   3.809  50.890  1.00  0.00    -0.307 N 
HETATM    2  C7  UNL     1      26.065   2.840  51.276  1.00  0.00     0.333 C 
HETATM    3  O1  UNL     1      27.302   2.719  51.078  1.00  0.00    -0.246 OA
HETATM    4  N2  UNL     1      25.669   1.692  52.064  1.00  0.00    -0.254 N 
HETATM    5  C8  UNL     1      24.414   1.168  52.585  1.00  0.00     0.137 C 
HETATM    6  C9  UNL     1      23.129   1.787  52.393  1.00  0.00     0.119 C 
HETATM    7  N3  UNL     1      22.084   2.276  52.220  1.00  0.00    -0.190 NA
HETATM    8  C10 UNL     1      24.211   0.055  53.314  1.00  0.00     0.032 C 
HETATM    9  C11 UNL     1      25.269  -0.169  54.079  1.00  0.00     0.103 C 
HETATM   10  N4  UNL     1      26.555   0.485  54.287  1.00  0.00    -0.365 N 
HETATM   11  C12 UNL     1      27.813  -0.091  53.556  1.00  0.00     0.032 A 
HETATM   12  C13 UNL     1      28.110   1.146  54.181  1.00  0.00     0.031 A 
HETATM   13  C14 UNL     1      27.141   1.767  53.319  1.00  0.00     0.032 A 
HETATM   14  C15 UNL     1      26.610   0.735  52.505  1.00  0.00     0.045 A 
HETATM   15  C16 UNL     1      26.587  -0.592  52.143  1.00  0.00     0.032 A 
HETATM   16  C17 UNL     1      27.500  -1.281  52.924  1.00  0.00     0.031 A 
HETATM   17  H6  UNL     1      24.146   3.726  51.164  1.00  0.00     0.170 HD
HETATM   18  H8  UNL     1      25.828   1.026  54.874  1.00  0.00     0.165 HD
ENDROOT
BRANCH   1  19
HETATM   19  C6  UNL     1      25.607   4.910  50.115  1.00  0.00     0.045 A 
HETATM   20  C2  UNL     1      25.235   6.325  50.256  1.00  0.00    -0.019 A 
HETATM   21  C1  UNL     1      24.399   6.838  51.127  1.00  0.00     0.026 C 
HETATM   22  C3  UNL     1      25.977   7.043  49.236  1.00  0.00     0.013 A 
HETATM   23  C4  UNL     1      26.717   6.158  48.553  1.00  0.00     0.003 A 
HETATM   24  C5  UNL     1      26.471   4.835  49.119  1.00  0.00     0.030 A 
ENDBRANCH   1  19
TORSDOF 1
ENDMDL
MODEL 3
REMARK VINA RESULT:      -8.6      2.290      6.214
REMARK  1 active torsions:
REMARK  status: ('A' for Active; 'I' for Inactive)
REMARK    1  A    between atoms: C6_6  and  N1_7 
REMARK       I    between atoms: N1_7  and  C7_8 
REMARK       I    between atoms: C7_8  and  N2_10 
ROOT
HETATM    1  N1  UNL     1      24.205   2.647  51.188  1.00  0.00    -0.307 N 
HETATM    2  C7  UNL     1      25.500   2.204  51.448  1.00  0.00     0.333 C 
HETATM    3  O1  UNL     1      26.613   2.481  50.929  1.00  0.00    -0.246 OA
HETATM    4  N2  UNL     1      25.772   1.239  52.491  1.00  0.00    -0.254 N 
HETATM    5  C8  UNL     1      24.971   0.460  53.426  1.00  0.00     0.137 C 
HETATM    6  C9  UNL     1      23.535   0.511  53.508  1.00  0.00     0.119 C 
HETATM    7  N3  UNL     1      22.369   0.535  53.562  1.00  0.00    -0.190 NA
HETATM    8  C10 UNL     1      25.388  -0.420  54.354  1.00  0.00     0.032 C 
HETATM    9  C11 UNL     1      26.573  -0.047  54.812  1.00  0.00     0.103 C 
HETATM   10  N4  UNL     1      27.493   1.049  54.538  1.00  0.00    -0.365 N 
HETATM   11  C12 UNL     1      28.706   0.786  53.583  1.00  0.00     0.032 A 
HETATM   12  C13 UNL     1      28.588   2.165  53.888  1.00  0.00     0.031 A 
HETATM   13  C14 UNL     1      27.301   2.155  53.247  1.00  0.00     0.032 A 
HETATM   14  C15 UNL     1      27.089   0.828  52.797  1.00  0.00     0.045 A 
HETATM   15  C16 UNL     1      27.539  -0.466  52.678  1.00  0.00     0.032 A 
HETATM   16  C17 UNL     1      28.788  -0.559  53.269  1.00  0.00     0.031 A 
HETATM   17  H6  UNL     1      23.406   2.292  51.742  1.00  0.00     0.170 HD
HETATM   18  H8  UNL     1      26.740   1.431  55.210  1.00  0.00     0.165 HD
ENDROOT
BRANCH   1  19
HETATM   19  C6  UNL     1      24.018   3.599  50.144  1.00  0.00     0.045 A 
HETATM   20  C2  UNL     1      23.239   3.431  48.909  1.00  0.00    -0.019 A 
HETATM   21  C1  UNL     1      22.568   2.367  48.537  1.00  0.00     0.026 C 
HETATM   22  C3  UNL     1      23.360   4.681  48.180  1.00  0.00     0.013 A 
HETATM   23  C4  UNL     1      24.129   5.513  48.897  1.00  0.00     0.003 A 
HETATM   24  C5  UNL     1      24.527   4.817  50.117  1.00  0.00     0.030 A 
ENDBRANCH   1  19
TORSDOF 1
ENDMDL
MODEL 4
REMARK VINA RESULT:      -8.2      3.276      4.611
REMARK  1 active torsions:
REMARK  status: ('A' for Active; 'I' for Inactive)
REMARK    1  A    between atoms: C6_6  and  N1_7 
REMARK       I    between atoms: N1_7  and  C7_8 
REMARK       I    between atoms: C7_8  and  N2_10 
ROOT
HETATM    1  N1  UNL     1      27.019   2.547  51.800  1.00  0.00    -0.307 N 
HETATM    2  C7  UNL     1      25.629   2.635  51.830  1.00  0.00     0.333 C 
HETATM    3  O1  UNL     1      24.761   2.119  52.581  1.00  0.00    -0.246 OA
HETATM    4  N2  UNL     1      24.904   3.444  50.873  1.00  0.00    -0.254 N 
HETATM    5  C8  UNL     1      25.254   4.247  49.709  1.00  0.00     0.137 C 
HETATM    6  C9  UNL     1      26.593   4.422  49.212  1.00  0.00     0.119 C 
HETATM    7  N3  UNL     1      27.675   4.548  48.795  1.00  0.00    -0.190 NA
HETATM    8  C10 UNL     1      24.439   4.951  48.903  1.00  0.00     0.032 C 
HETATM    9  C11 UNL     1      23.411   5.405  49.605  1.00  0.00     0.103 C 
HETATM   10  N4  UNL     1      22.978   5.305  50.993  1.00  0.00    -0.365 N 
HETATM   11  C12 UNL     1      21.884   4.247  51.361  1.00  0.00     0.032 A 
HETATM   12  C13 UNL     1      22.438   4.831  52.527  1.00  0.00     0.031 A 
HETATM   13  C14 UNL     1      23.711   4.278  52.149  1.00  0.00     0.032 A 
HETATM   14  C15 UNL     1      23.500   3.582  50.933  1.00  0.00     0.045 A 
HETATM   15  C16 UNL     1      22.643   3.177  49.936  1.00  0.00     0.032 A 
HETATM   16  C17 UNL     1      21.376   3.663  50.214  1.00  0.00     0.031 A 
HETATM   17  H6  UNL     1      27.565   3.064  51.088  1.00  0.00     0.170 HD
HETATM   18  H8  UNL     1      23.724   6.084  50.952  1.00  0.00     0.165 HD
ENDROOT
BRANCH   1  19
HETATM   19  C6  UNL     1      27.662   1.730  52.775  1.00  0.00     0.045 A 
HETATM   20  C2  UNL     1      27.559   0.273  52.931  1.00  0.00    -0.019 A 
HETATM   21  C1  UNL     1      26.851  -0.552  52.196  1.00  0.00     0.026 C 
HETATM   22  C3  UNL     1      28.398  -0.075  54.063  1.00  0.00     0.013 A 
HETATM   23  C4  UNL     1      28.948   1.051  54.540  1.00  0.00     0.003 A 
HETATM   24  C5  UNL     1      28.475   2.164  53.721  1.00  0.00     0.030 A 
ENDBRANCH   1  19
TORSDOF 1
ENDMDL
MODEL 5
REMARK VINA RESULT:      -7.9      1.657      3.366
REMARK  1 active torsions:
REMARK  status: ('A' for Active; 'I' for Inactive)
REMARK    1  A    between atoms: C6_6  and  N1_7 
REMARK       I    between atoms: N1_7  and  C7_8 
REMARK       I    between atoms: C7_8  and  N2_10 
ROOT
HETATM    1  N1  UNL     1      25.629   1.155  52.431  1.00  0.00    -0.307 N 
HETATM    2  C7  UNL     1      24.399   0.511  52.538  1.00  0.00     0.333 C 
HETATM    3  O1  UNL     1      24.076  -0.647  52.914  1.00  0.00    -0.246 OA
HETATM    4  N2  UNL     1      23.164   1.179  52.186  1.00  0.00    -0.254 N 
HETATM    5  C8  UNL     1      22.803   2.476  51.630  1.00  0.00     0.137 C 
HETATM    6  C9  UNL     1      23.746   3.502  51.272  1.00  0.00     0.119 C 
HETATM    7  N3  UNL     1      24.511   4.327  50.963  1.00  0.00    -0.190 NA
HETATM    8  C10 UNL     1      21.576   2.953  51.351  1.00  0.00     0.032 C 
HETATM    9  C11 UNL     1      20.703   2.453  52.212  1.00  0.00     0.103 C 
HETATM   10  N4  UNL     1      20.769   1.529  53.337  1.00  0.00    -0.365 N 
HETATM   11  C12 UNL     1      20.362   0.035  53.103  1.00  0.00     0.032 A 
HETATM   12  C13 UNL     1      20.937   0.211  54.386  1.00  0.00     0.031 A 
HETATM   13  C14 UNL     1      22.157   0.613  53.739  1.00  0.00     0.032 A 
HETATM   14  C15 UNL     1      21.910   0.550  52.345  1.00  0.00     0.045 A 
HETATM   15  C16 UNL     1      21.047   0.278  51.308  1.00  0.00     0.032 A 
HETATM   16  C17 UNL     1      19.832  -0.126  51.835  1.00  0.00     0.031 A 
HETATM   17  H6  UNL     1      25.684   2.133  52.097  1.00  0.00     0.170 HD
HETATM   18  H8  UNL     1      21.083   2.494  53.703  1.00  0.00     0.165 HD
ENDROOT
BRANCH   1  19
HETATM   19  C6  UNL     1      26.801   0.431  52.797  1.00  0.00     0.045 A 
HETATM   20  C2  UNL     1      28.052   0.971  53.346  1.00  0.00    -0.019 A 
HETATM   21  C1  UNL     1      28.323   2.229  53.604  1.00  0.00     0.026 C 
HETATM   22  C3  UNL     1      28.932  -0.166  53.548  1.00  0.00     0.013 A 
HETATM   23  C4  UNL     1      28.282  -1.273  53.161  1.00  0.00     0.003 A 
HETATM   24  C5  UNL     1      26.956  -0.877  52.697  1.00  0.00     0.030 A 
ENDBRANCH   1  19
TORSDOF 1
ENDMDL
MODEL 6
REMARK VINA RESULT:      -7.8      1.861      6.268
REMARK  1 active torsions:
REMARK  status: ('A' for Active; 'I' for Inactive)
REMARK    1  A    between atoms: C6_6  and  N1_7 
REMARK       I    between atoms: N1_7  and  C7_8 
REMARK       I    between atoms: C7_8  and  N2_10 
ROOT
HETATM    1  N1  UNL     1      22.257   0.951  52.615  1.00  0.00    -0.307 N 
HETATM    2  C7  UNL     1      23.376   0.342  53.177  1.00  0.00     0.333 C 
HETATM    3  O1  UNL     1      23.526  -0.721  53.834  1.00  0.00    -0.246 OA
HETATM    4  N2  UNL     1      24.693   0.932  53.061  1.00  0.00    -0.254 N 
HETATM    5  C8  UNL     1      25.240   2.161  52.503  1.00  0.00     0.137 C 
HETATM    6  C9  UNL     1      24.458   3.182  51.855  1.00  0.00     0.119 C 
HETATM    7  N3  UNL     1      23.823   4.019  51.348  1.00  0.00    -0.190 NA
HETATM    8  C10 UNL     1      26.521   2.573  52.480  1.00  0.00     0.032 C 
HETATM    9  C11 UNL     1      27.319   1.520  52.398  1.00  0.00     0.103 C 
HETATM   10  N4  UNL     1      27.130   0.076  52.342  1.00  0.00    -0.365 N 
HETATM   11  C12 UNL     1      27.302  -0.753  53.659  1.00  0.00     0.032 A 
HETATM   12  C13 UNL     1      26.778  -1.557  52.617  1.00  0.00     0.031 A 
HETATM   13  C14 UNL     1      25.625  -0.699  52.590  1.00  0.00     0.032 A 
HETATM   14  C15 UNL     1      25.841   0.292  53.580  1.00  0.00     0.045 A 
HETATM   15  C16 UNL     1      26.637   0.823  54.568  1.00  0.00     0.032 A 
HETATM   16  C17 UNL     1      27.785   0.054  54.675  1.00  0.00     0.031 A 
HETATM   17  H6  UNL     1      22.346   1.843  52.097  1.00  0.00     0.170 HD
HETATM   18  H8  UNL     1      26.971   0.453  51.343  1.00  0.00     0.165 HD
ENDROOT
BRANCH   1  19
HETATM   19  C6  UNL     1      20.994   0.310  52.771  1.00  0.00     0.045 A 
HETATM   20  C2  UNL     1      19.887   0.265  51.806  1.00  0.00    -0.019 A 
HETATM   21  C1  UNL     1      19.857   0.811  50.613  1.00  0.00     0.026 C 
HETATM   22  C3  UNL     1      18.830  -0.506  52.435  1.00  0.00     0.013 A 
HETATM   23  C4  UNL     1      19.253  -0.885  53.650  1.00  0.00     0.003 A 
HETATM   24  C5  UNL     1      20.604  -0.365  53.838  1.00  0.00     0.030 A 
ENDBRANCH   1  19
TORSDOF 1
ENDMDL
MODEL 7
REMARK VINA RESULT:      -7.7      1.603      5.911
REMARK  1 active torsions:
REMARK  status: ('A' for Active; 'I' for Inactive)
REMARK    1  A    between atoms: C6_6  and  N1_7 
REMARK       I    between atoms: N1_7  and  C7_8 
REMARK       I    between atoms: C7_8  and  N2_10 
ROOT
HETATM    1  N1  UNL     1      21.562   1.201  52.935  1.00  0.00    -0.307 N 
HETATM    2  C7  UNL     1      22.899   1.379  52.587  1.00  0.00     0.333 C 
HETATM    3  O1  UNL     1      23.468   2.142  51.763  1.00  0.00    -0.246 OA
HETATM    4  N2  UNL     1      23.951   0.608  53.213  1.00  0.00    -0.254 N 
HETATM    5  C8  UNL     1      24.012  -0.476  54.185  1.00  0.00     0.137 C 
HETATM    6  C9  UNL     1      22.863  -1.078  54.809  1.00  0.00     0.119 C 
HETATM    7  N3  UNL     1      21.932  -1.581  55.300  1.00  0.00    -0.190 NA
HETATM    8  C10 UNL     1      25.098  -1.103  54.672  1.00  0.00     0.032 C 
HETATM    9  C11 UNL     1      26.112  -0.252  54.722  1.00  0.00     0.103 C 
HETATM   10  N4  UNL     1      26.308   1.149  54.370  1.00  0.00    -0.365 N 
HETATM   11  C12 UNL     1      26.981   1.488  52.997  1.00  0.00     0.032 A 
HETATM   12  C13 UNL     1      26.476   2.657  53.619  1.00  0.00     0.031 A 
HETATM   13  C14 UNL     1      25.158   2.089  53.522  1.00  0.00     0.032 A 
HETATM   14  C15 UNL     1      25.313   0.823  52.905  1.00  0.00     0.045 A 
HETATM   15  C16 UNL     1      26.135  -0.128  52.346  1.00  0.00     0.032 A 
HETATM   16  C17 UNL     1      27.440   0.333  52.389  1.00  0.00     0.031 A 
HETATM   17  H6  UNL     1      21.293   0.508  53.656  1.00  0.00     0.170 HD
HETATM   18  H8  UNL     1      25.838   1.131  55.341  1.00  0.00     0.165 HD
ENDROOT
BRANCH   1  19
HETATM   19  C6  UNL     1      20.583   1.998  52.274  1.00  0.00     0.045 A 
HETATM   20  C2  UNL     1      19.454   1.534  51.456  1.00  0.00    -0.019 A 
HETATM   21  C1  UNL     1      19.136   0.291  51.183  1.00  0.00     0.026 C 
HETATM   22  C3  UNL     1      18.758   2.727  51.010  1.00  0.00     0.013 A 
HETATM   23  C4  UNL     1      19.398   3.796  51.504  1.00  0.00     0.003 A 
HETATM   24  C5  UNL     1      20.533   3.318  52.289  1.00  0.00     0.030 A 
ENDBRANCH   1  19
TORSDOF 1
ENDMDL
MODEL 8
REMARK VINA RESULT:      -7.4      3.660      5.103
REMARK  1 active torsions:
REMARK  status: ('A' for Active; 'I' for Inactive)
REMARK    1  A    between atoms: C6_6  and  N1_7 
REMARK       I    between atoms: N1_7  and  C7_8 
REMARK       I    between atoms: C7_8  and  N2_10 
ROOT
HETATM    1  N1  UNL     1      25.427   4.103  50.836  1.00  0.00    -0.307 N 
HETATM    2  C7  UNL     1      24.094   3.738  50.660  1.00  0.00     0.333 C 
HETATM    3  O1  UNL     1      23.215   4.102  49.836  1.00  0.00    -0.246 OA
HETATM    4  N2  UNL     1      23.462   2.756  51.516  1.00  0.00    -0.254 N 
HETATM    5  C8  UNL     1      23.855   1.988  52.690  1.00  0.00     0.137 C 
HETATM    6  C9  UNL     1      25.148   2.065  53.319  1.00  0.00     0.119 C 
HETATM    7  N3  UNL     1      26.187   2.141  53.843  1.00  0.00    -0.190 NA
HETATM    8  C10 UNL     1      23.128   1.098  53.389  1.00  0.00     0.032 C 
HETATM    9  C11 UNL     1      22.289   0.478  52.573  1.00  0.00     0.103 C 
HETATM   10  N4  UNL     1      21.980   0.552  51.151  1.00  0.00    -0.365 N 
HETATM   11  C12 UNL     1      20.733   1.383  50.698  1.00  0.00     0.032 A 
HETATM   12  C13 UNL     1      21.505   0.976  49.582  1.00  0.00     0.031 A 
HETATM   13  C14 UNL     1      22.594   1.757  50.103  1.00  0.00     0.032 A 
HETATM   14  C15 UNL     1      22.128   2.340  51.308  1.00  0.00     0.045 A 
HETATM   15  C16 UNL     1      21.114   2.518  52.221  1.00  0.00     0.032 A 
HETATM   16  C17 UNL     1      20.007   1.799  51.800  1.00  0.00     0.031 A 
HETATM   17  H6  UNL     1      25.995   3.675  51.588  1.00  0.00     0.170 HD
HETATM   18  H8  UNL     1      22.863  -0.061  51.250  1.00  0.00     0.165 HD
ENDROOT
BRANCH   1  19
HETATM   19  C6  UNL     1      25.979   5.077  49.954  1.00  0.00     0.045 A 
HETATM   20  C2  UNL     1      25.692   6.517  49.917  1.00  0.00    -0.019 A 
HETATM   21  C1  UNL     1      24.869   7.178  50.696  1.00  0.00     0.026 C 
HETATM   22  C3  UNL     1      26.502   7.065  48.845  1.00  0.00     0.013 A 
HETATM   23  C4  UNL     1      27.202   6.064  48.293  1.00  0.00     0.003 A 
HETATM   24  C5  UNL     1      26.860   4.833  49.000  1.00  0.00     0.030 A 
ENDBRANCH   1  19
TORSDOF 1
ENDMDL
MODEL 9
REMARK VINA RESULT:      -7.4      4.618      5.919
REMARK  1 active torsions:
REMARK  status: ('A' for Active; 'I' for Inactive)
REMARK    1  A    between atoms: C6_6  and  N1_7 
REMARK       I    between atoms: N1_7  and  C7_8 
REMARK       I    between atoms: C7_8  and  N2_10 
ROOT
HETATM    1  N1  UNL     1      26.398   4.815  49.909  1.00  0.00    -0.307 N 
HETATM    2  C7  UNL     1      25.048   4.531  50.103  1.00  0.00     0.333 C 
HETATM    3  O1  UNL     1      23.996   5.045  49.641  1.00  0.00    -0.246 OA
HETATM    4  N2  UNL     1      24.622   3.460  50.979  1.00  0.00    -0.254 N 
HETATM    5  C8  UNL     1      25.283   2.514  51.868  1.00  0.00     0.137 C 
HETATM    6  C9  UNL     1      26.706   2.448  52.076  1.00  0.00     0.119 C 
HETATM    7  N3  UNL     1      27.857   2.406  52.262  1.00  0.00    -0.190 NA
HETATM    8  C10 UNL     1      24.727   1.560  52.637  1.00  0.00     0.032 C 
HETATM    9  C11 UNL     1      23.636   1.099  52.045  1.00  0.00     0.103 C 
HETATM   10  N4  UNL     1      22.925   1.392  50.807  1.00  0.00    -0.365 N 
HETATM   11  C12 UNL     1      21.671   2.328  50.867  1.00  0.00     0.032 A 
HETATM   12  C13 UNL     1      22.040   2.059  49.526  1.00  0.00     0.031 A 
HETATM   13  C14 UNL     1      23.295   2.712  49.784  1.00  0.00     0.032 A 
HETATM   14  C15 UNL     1      23.257   3.131  51.137  1.00  0.00     0.045 A 
HETATM   15  C16 UNL     1      22.579   3.212  52.332  1.00  0.00     0.032 A 
HETATM   16  C17 UNL     1      21.343   2.606  52.182  1.00  0.00     0.031 A 
HETATM   17  H6  UNL     1      27.128   4.260  50.389  1.00  0.00     0.170 HD
HETATM   18  H8  UNL     1      23.744   0.737  50.552  1.00  0.00     0.165 HD
ENDROOT
BRANCH   1  19
HETATM   19  C6  UNL     1      26.740   5.885  49.031  1.00  0.00     0.045 A 
HETATM   20  C2  UNL     1      27.990   6.063  48.282  1.00  0.00    -0.019 A 
HETATM   21  C1  UNL     1      29.032   5.265  48.282  1.00  0.00     0.026 C 
HETATM   22  C3  UNL     1      27.846   7.302  47.539  1.00  0.00     0.013 A 
HETATM   23  C4  UNL     1      26.638   7.816  47.811  1.00  0.00     0.003 A 
HETATM   24  C5  UNL     1      25.966   6.916  48.743  1.00  0.00     0.030 A 
ENDBRANCH   1  19
TORSDOF 1
ENDMDL
