MODEL 1
REMARK VINA RESULT:      -9.2      0.000      0.000
REMARK  7 active torsions:
REMARK  status: ('A' for Active; 'I' for Inactive)
REMARK    1  A    between atoms: N1_2  and  C2_3 
REMARK    2  A    between atoms: C2_3  and  C3_4 
REMARK    3  A    between atoms: C3_4  and  C4_5 
REMARK    4  A    between atoms: C4_5  and  O1_6 
REMARK    5  A    between atoms: C6_8  and  O2_9 
REMARK    6  A    between atoms: C9_13  and  C10_14 
REMARK    7  A    between atoms: C20_26  and  O5_27 
ROOT
HETATM    1  C4  UNL     1      20.291   1.194  52.067  1.00  0.00     0.106 C 
HETATM    2  C5  UNL     1      20.246   0.216  53.265  1.00  0.00     0.051 C 
HETATM    3  C6  UNL     1      21.264  -0.322  53.918  1.00  0.00     0.081 C 
HETATM    4  C7  UNL     1      22.694  -0.209  53.774  1.00  0.00     0.077 A 
HETATM    5  C8  UNL     1      23.499   0.503  52.876  1.00  0.00     0.077 A 
HETATM    6  O3  UNL     1      24.774   0.442  52.950  1.00  0.00    -0.312 OA
HETATM    7  C9  UNL     1      25.486  -0.228  53.794  1.00  0.00     0.091 A 
HETATM    8  C16 UNL     1      24.746  -0.949  54.704  1.00  0.00     0.094 A 
HETATM    9  C17 UNL     1      23.360  -0.961  54.720  1.00  0.00     0.190 A 
HETATM   10  O4  UNL     1      22.700  -1.634  55.567  1.00  0.00    -0.287 OA
HETATM   11  C18 UNL     1      23.041   1.416  51.727  1.00  0.00     0.072 C 
HETATM   12  C19 UNL     1      23.709   2.765  51.926  1.00  0.00     0.020 C 
HETATM   13  C20 UNL     1      21.622   1.347  51.687  1.00  0.00     0.166 C 
ENDROOT
BRANCH   1  14
HETATM   14  C3  UNL     1      19.285   0.762  51.032  1.00  0.00     0.075 C 
BRANCH  14  15
HETATM   15  C2  UNL     1      18.205  -0.155  51.456  1.00  0.00     0.272 C 
BRANCH  15  16
HETATM   16  N1  UNL     1      17.018   0.720  51.671  1.00  0.00     0.079 N 
HETATM   17  C1  UNL     1      15.998   0.023  52.402  1.00  0.00     0.306 C 
HETATM   18  H4  UNL     1      17.346   1.558  52.204  1.00  0.00     0.315 HD
ENDBRANCH  15  16
ENDBRANCH  14  15
ENDBRANCH   1  14
BRANCH   1  19
HETATM   19  O1  UNL     1      19.610   2.320  52.664  1.00  0.00    -0.383 OA
HETATM   20  H9  UNL     1      18.955   2.555  51.983  1.00  0.00     0.211 HD
ENDBRANCH   1  19
BRANCH  13  21
HETATM   21  O5  UNL     1      21.673  -0.038  51.513  1.00  0.00    -0.391 OA
HETATM   22  H22 UNL     1      22.575  -0.296  51.333  1.00  0.00     0.210 HD
ENDBRANCH  13  21
BRANCH   3  23
HETATM   23  O2  UNL     1      20.880  -1.166  54.953  1.00  0.00    -0.360 OA
HETATM   24  H11 UNL     1      20.286  -0.805  55.697  1.00  0.00     0.217 HD
ENDBRANCH   3  23
BRANCH   7  25
HETATM   25  C10 UNL     1      26.937  -0.246  53.814  1.00  0.00     0.020 A 
HETATM   26  C11 UNL     1      27.716   0.666  54.483  1.00  0.00     0.016 A 
HETATM   27  C12 UNL     1      29.093   0.668  54.513  1.00  0.00     0.001 A 
HETATM   28  C13 UNL     1      29.771  -0.314  53.826  1.00  0.00     0.002 A 
HETATM   29  C14 UNL     1      29.045  -1.266  53.130  1.00  0.00     0.025 A 
HETATM   30  C15 UNL     1      27.657  -1.207  53.143  1.00  0.00     0.047 A 
HETATM   31 CL1  UNL     1      26.882  -2.467  52.232  1.00  0.00    -0.083 Cl
ENDBRANCH   7  25
TORSDOF 7
ENDMDL
MODEL 2
REMARK VINA RESULT:      -8.4      3.291      7.919
REMARK  7 active torsions:
REMARK  status: ('A' for Active; 'I' for Inactive)
REMARK    1  A    between atoms: N1_2  and  C2_3 
REMARK    2  A    between atoms: C2_3  and  C3_4 
REMARK    3  A    between atoms: C3_4  and  C4_5 
REMARK    4  A    between atoms: C4_5  and  O1_6 
REMARK    5  A    between atoms: C6_8  and  O2_9 
REMARK    6  A    between atoms: C9_13  and  C10_14 
REMARK    7  A    between atoms: C20_26  and  O5_27 
ROOT
HETATM    1  C4  UNL     1      26.230   0.686  53.941  1.00  0.00     0.106 C 
HETATM    2  C5  UNL     1      25.891   2.112  53.445  1.00  0.00     0.051 C 
HETATM    3  C6  UNL     1      24.757   2.545  52.915  1.00  0.00     0.081 C 
HETATM    4  C7  UNL     1      23.501   1.900  52.622  1.00  0.00     0.077 A 
HETATM    5  C8  UNL     1      23.054   0.583  52.787  1.00  0.00     0.077 A 
HETATM    6  O3  UNL     1      21.870   0.245  52.443  1.00  0.00    -0.312 OA
HETATM    7  C9  UNL     1      20.952   0.995  51.929  1.00  0.00     0.091 A 
HETATM    8  C16 UNL     1      21.336   2.304  51.744  1.00  0.00     0.094 A 
HETATM    9  C17 UNL     1      22.593   2.784  52.077  1.00  0.00     0.190 A 
HETATM   10  O4  UNL     1      22.923   3.994  51.897  1.00  0.00    -0.287 OA
HETATM   11  C18 UNL     1      23.839  -0.608  53.363  1.00  0.00     0.072 C 
HETATM   12  C19 UNL     1      23.013  -1.189  54.497  1.00  0.00     0.020 C 
HETATM   13  C20 UNL     1      25.154  -0.143  53.633  1.00  0.00     0.166 C 
ENDROOT
BRANCH   1  14
HETATM   14  C3  UNL     1      27.604   0.303  53.458  1.00  0.00     0.075 C 
BRANCH  14  15
HETATM   15  C2  UNL     1      28.662   1.337  53.487  1.00  0.00     0.272 C 
BRANCH  15  16
HETATM   16  N1  UNL     1      29.944   0.577  53.486  1.00  0.00     0.079 N 
HETATM   17  C1  UNL     1      29.716  -0.805  53.800  1.00  0.00     0.306 C 
HETATM   18  H4  UNL     1      30.359   0.675  52.531  1.00  0.00     0.315 HD
ENDBRANCH  15  16
ENDBRANCH  14  15
ENDBRANCH   1  14
BRANCH   1  19
HETATM   19  O1  UNL     1      26.496   0.985  55.330  1.00  0.00    -0.383 OA
HETATM   20  H9  UNL     1      26.154   1.891  55.420  1.00  0.00     0.211 HD
ENDBRANCH   1  19
BRANCH  13  21
HETATM   21  O5  UNL     1      25.319   0.235  52.298  1.00  0.00    -0.391 OA
HETATM   22  H22 UNL     1      25.318   1.188  52.242  1.00  0.00     0.210 HD
ENDBRANCH  13  21
BRANCH   3  23
HETATM   23  O2  UNL     1      24.778   3.891  52.571  1.00  0.00    -0.360 OA
HETATM   24  H11 UNL     1      24.900   4.154  51.595  1.00  0.00     0.217 HD
ENDBRANCH   3  23
BRANCH   7  25
HETATM   25  C10 UNL     1      19.625   0.536  51.565  1.00  0.00     0.020 A 
HETATM   26  C11 UNL     1      18.965   0.898  50.416  1.00  0.00     0.016 A 
HETATM   27  C12 UNL     1      17.706   0.476  50.054  1.00  0.00     0.001 A 
HETATM   28  C13 UNL     1      17.028  -0.382  50.892  1.00  0.00     0.002 A 
HETATM   29  C14 UNL     1      17.637  -0.787  52.067  1.00  0.00     0.025 A 
HETATM   30  C15 UNL     1      18.910  -0.320  52.370  1.00  0.00     0.047 A 
HETATM   31 CL1  UNL     1      19.548  -0.916  53.872  1.00  0.00    -0.083 Cl
ENDBRANCH   7  25
TORSDOF 7
ENDMDL
MODEL 3
REMARK VINA RESULT:      -7.9      1.992      2.342
REMARK  7 active torsions:
REMARK  status: ('A' for Active; 'I' for Inactive)
REMARK    1  A    between atoms: N1_2  and  C2_3 
REMARK    2  A    between atoms: C2_3  and  C3_4 
REMARK    3  A    between atoms: C3_4  and  C4_5 
REMARK    4  A    between atoms: C4_5  and  O1_6 
REMARK    5  A    between atoms: C6_8  and  O2_9 
REMARK    6  A    between atoms: C9_13  and  C10_14 
REMARK    7  A    between atoms: C20_26  and  O5_27 
ROOT
HETATM    1  C4  UNL     1      21.351   2.754  50.733  1.00  0.00     0.106 C 
HETATM    2  C5  UNL     1      20.937   1.774  51.858  1.00  0.00     0.051 C 
HETATM    3  C6  UNL     1      21.718   0.993  52.589  1.00  0.00     0.081 C 
HETATM    4  C7  UNL     1      23.143   0.775  52.614  1.00  0.00     0.077 A 
HETATM    5  C8  UNL     1      24.194   1.310  51.857  1.00  0.00     0.077 A 
HETATM    6  O3  UNL     1      25.402   0.952  52.071  1.00  0.00    -0.312 OA
HETATM    7  C9  UNL     1      25.834   0.107  52.948  1.00  0.00     0.091 A 
HETATM    8  C16 UNL     1      24.843  -0.451  53.723  1.00  0.00     0.094 A 
HETATM    9  C17 UNL     1      23.499  -0.141  53.582  1.00  0.00     0.190 A 
HETATM   10  O4  UNL     1      22.604  -0.670  54.307  1.00  0.00    -0.287 OA
HETATM   11  C18 UNL     1      24.100   2.341  50.720  1.00  0.00     0.072 C 
HETATM   12  C19 UNL     1      25.027   3.491  51.074  1.00  0.00     0.020 C 
HETATM   13  C20 UNL     1      22.719   2.605  50.516  1.00  0.00     0.166 C 
ENDROOT
BRANCH   1  14
HETATM   14  C3  UNL     1      20.409   2.601  49.567  1.00  0.00     0.075 C 
BRANCH  14  15
HETATM   15  C2  UNL     1      19.125   1.905  49.800  1.00  0.00     0.272 C 
BRANCH  15  16
HETATM   16  N1  UNL     1      18.351   2.092  48.542  1.00  0.00     0.079 N 
HETATM   17  C1  UNL     1      16.973   2.373  48.829  1.00  0.00     0.306 C 
HETATM   18  H4  UNL     1      18.790   2.889  48.025  1.00  0.00     0.315 HD
ENDBRANCH  15  16
ENDBRANCH  14  15
ENDBRANCH   1  14
BRANCH   1  19
HETATM   19  O1  UNL     1      20.874   3.987  51.317  1.00  0.00    -0.383 OA
HETATM   20  H9  UNL     1      20.643   3.715  52.223  1.00  0.00     0.211 HD
ENDBRANCH   1  19
BRANCH  13  21
HETATM   21  O5  UNL     1      22.475   1.252  50.266  1.00  0.00    -0.391 OA
HETATM   22  H22 UNL     1      22.085   1.161  49.399  1.00  0.00     0.210 HD
ENDBRANCH  13  21
BRANCH   3  23
HETATM   23  O2  UNL     1      21.028   0.228  53.521  1.00  0.00    -0.360 OA
HETATM   24  H11 UNL     1      20.658  -0.680  53.245  1.00  0.00     0.217 HD
ENDBRANCH   3  23
BRANCH   7  25
HETATM   25  C10 UNL     1      27.228  -0.247  53.131  1.00  0.00     0.020 A 
HETATM   26  C11 UNL     1      27.731  -1.520  53.002  1.00  0.00     0.016 A 
HETATM   27  C12 UNL     1      29.049  -1.877  53.173  1.00  0.00     0.001 A 
HETATM   28  C13 UNL     1      29.963  -0.900  53.500  1.00  0.00     0.002 A 
HETATM   29  C14 UNL     1      29.522   0.405  53.645  1.00  0.00     0.025 A 
HETATM   30  C15 UNL     1      28.177   0.694  53.458  1.00  0.00     0.047 A 
HETATM   31 CL1  UNL     1      27.772   2.371  53.667  1.00  0.00    -0.083 Cl
ENDBRANCH   7  25
TORSDOF 7
ENDMDL
MODEL 4
REMARK VINA RESULT:      -7.7      4.699      7.531
REMARK  7 active torsions:
REMARK  status: ('A' for Active; 'I' for Inactive)
REMARK    1  A    between atoms: N1_2  and  C2_3 
REMARK    2  A    between atoms: C2_3  and  C3_4 
REMARK    3  A    between atoms: C3_4  and  C4_5 
REMARK    4  A    between atoms: C4_5  and  O1_6 
REMARK    5  A    between atoms: C6_8  and  O2_9 
REMARK    6  A    between atoms: C9_13  and  C10_14 
REMARK    7  A    between atoms: C20_26  and  O5_27 
ROOT
HETATM    1  C4  UNL     1      24.463   6.630  49.940  1.00  0.00     0.106 C 
HETATM    2  C5  UNL     1      25.684   5.690  49.793  1.00  0.00     0.051 C 
HETATM    3  C6  UNL     1      25.818   4.450  50.238  1.00  0.00     0.081 C 
HETATM    4  C7  UNL     1      24.942   3.569  50.971  1.00  0.00     0.077 A 
HETATM    5  C8  UNL     1      23.648   3.733  51.480  1.00  0.00     0.077 A 
HETATM    6  O3  UNL     1      23.067   2.785  52.110  1.00  0.00    -0.312 OA
HETATM    7  C9  UNL     1      23.530   1.606  52.367  1.00  0.00     0.091 A 
HETATM    8  C16 UNL     1      24.802   1.387  51.889  1.00  0.00     0.094 A 
HETATM    9  C17 UNL     1      25.529   2.341  51.194  1.00  0.00     0.190 A 
HETATM   10  O4  UNL     1      26.701   2.116  50.764  1.00  0.00    -0.287 OA
HETATM   11  C18 UNL     1      22.754   4.981  51.385  1.00  0.00     0.072 C 
HETATM   12  C19 UNL     1      21.437   4.550  50.766  1.00  0.00     0.020 C 
HETATM   13  C20 UNL     1      23.522   5.990  50.743  1.00  0.00     0.166 C 
ENDROOT
BRANCH   1  14
HETATM   14  C3  UNL     1      24.937   8.005  50.333  1.00  0.00     0.075 C 
BRANCH  14  15
HETATM   15  C2  UNL     1      26.042   8.606  49.553  1.00  0.00     0.272 C 
BRANCH  15  16
HETATM   16  N1  UNL     1      27.116   8.875  50.550  1.00  0.00     0.079 N 
HETATM   17  C1  UNL     1      28.260   9.467  49.918  1.00  0.00     0.306 C 
HETATM   18  H4  UNL     1      26.715   9.521  51.268  1.00  0.00     0.315 HD
ENDBRANCH  15  16
ENDBRANCH  14  15
ENDBRANCH   1  14
BRANCH   1  19
HETATM   19  O1  UNL     1      24.158   6.829  48.542  1.00  0.00    -0.383 OA
HETATM   20  H9  UNL     1      23.187   6.762  48.527  1.00  0.00     0.211 HD
ENDBRANCH   1  19
BRANCH  13  21
HETATM   21  O5  UNL     1      24.508   5.898  51.728  1.00  0.00    -0.391 OA
HETATM   22  H22 UNL     1      25.358   5.785  51.308  1.00  0.00     0.210 HD
ENDBRANCH  13  21
BRANCH   3  23
HETATM   23  O2  UNL     1      27.048   3.878  49.938  1.00  0.00    -0.360 OA
HETATM   24  H11 UNL     1      27.864   4.133  50.491  1.00  0.00     0.217 HD
ENDBRANCH   3  23
BRANCH   7  25
HETATM   25  C10 UNL     1      22.806   0.579  53.092  1.00  0.00     0.020 A 
HETATM   26  C11 UNL     1      23.343  -0.189  54.096  1.00  0.00     0.016 A 
HETATM   27  C12 UNL     1      22.673  -1.170  54.794  1.00  0.00     0.001 A 
HETATM   28  C13 UNL     1      21.357  -1.423  54.480  1.00  0.00     0.002 A 
HETATM   29  C14 UNL     1      20.755  -0.685  53.476  1.00  0.00     0.025 A 
HETATM   30  C15 UNL     1      21.490   0.290  52.813  1.00  0.00     0.047 A 
HETATM   31 CL1  UNL     1      20.604   1.138  51.584  1.00  0.00    -0.083 Cl
ENDBRANCH   7  25
TORSDOF 7
ENDMDL
MODEL 5
REMARK VINA RESULT:      -7.7      2.127      3.444
REMARK  7 active torsions:
REMARK  status: ('A' for Active; 'I' for Inactive)
REMARK    1  A    between atoms: N1_2  and  C2_3 
REMARK    2  A    between atoms: C2_3  and  C3_4 
REMARK    3  A    between atoms: C3_4  and  C4_5 
REMARK    4  A    between atoms: C4_5  and  O1_6 
REMARK    5  A    between atoms: C6_8  and  O2_9 
REMARK    6  A    between atoms: C9_13  and  C10_14 
REMARK    7  A    between atoms: C20_26  and  O5_27 
ROOT
HETATM    1  C4  UNL     1      20.857   1.961  51.716  1.00  0.00     0.106 C 
HETATM    2  C5  UNL     1      21.697   2.766  50.696  1.00  0.00     0.051 C 
HETATM    3  C6  UNL     1      23.013   2.772  50.545  1.00  0.00     0.081 C 
HETATM    4  C7  UNL     1      24.082   2.080  51.221  1.00  0.00     0.077 A 
HETATM    5  C8  UNL     1      24.094   1.171  52.287  1.00  0.00     0.077 A 
HETATM    6  O3  UNL     1      25.194   0.684  52.720  1.00  0.00    -0.312 OA
HETATM    7  C9  UNL     1      26.388   0.922  52.289  1.00  0.00     0.091 A 
HETATM    8  C16 UNL     1      26.438   1.810  51.238  1.00  0.00     0.094 A 
HETATM    9  C17 UNL     1      25.312   2.402  50.687  1.00  0.00     0.190 A 
HETATM   10  O4  UNL     1      25.384   3.219  49.720  1.00  0.00    -0.287 OA
HETATM   11  C18 UNL     1      22.887   0.632  53.073  1.00  0.00     0.072 C 
HETATM   12  C19 UNL     1      22.951  -0.884  53.018  1.00  0.00     0.020 C 
HETATM   13  C20 UNL     1      21.736   1.294  52.566  1.00  0.00     0.166 C 
ENDROOT
BRANCH   1  14
HETATM   14  C3  UNL     1      19.807   2.859  52.316  1.00  0.00     0.075 C 
BRANCH  14  15
HETATM   15  C2  UNL     1      18.954   3.641  51.394  1.00  0.00     0.272 C 
BRANCH  15  16
HETATM   16  N1  UNL     1      17.586   3.076  51.562  1.00  0.00     0.079 N 
HETATM   17  C1  UNL     1      16.605   4.124  51.594  1.00  0.00     0.306 C 
HETATM   18  H4  UNL     1      17.415   2.435  50.753  1.00  0.00     0.315 HD
ENDBRANCH  15  16
ENDBRANCH  14  15
ENDBRANCH   1  14
BRANCH   1  19
HETATM   19  O1  UNL     1      20.063   1.181  50.794  1.00  0.00    -0.383 OA
HETATM   20  H9  UNL     1      19.202   1.135  51.245  1.00  0.00     0.211 HD
ENDBRANCH   1  19
BRANCH  13  21
HETATM   21  O5  UNL     1      22.287   2.539  52.880  1.00  0.00    -0.391 OA
HETATM   22  H22 UNL     1      21.850   3.212  52.363  1.00  0.00     0.210 HD
ENDBRANCH  13  21
BRANCH   3  23
HETATM   23  O2  UNL     1      23.456   3.611  49.530  1.00  0.00    -0.360 OA
HETATM   24  H11 UNL     1      22.785   4.206  49.047  1.00  0.00     0.217 HD
ENDBRANCH   3  23
BRANCH   7  25
HETATM   25  C10 UNL     1      27.593   0.327  52.835  1.00  0.00     0.020 A 
HETATM   26  C11 UNL     1      28.622   1.037  53.405  1.00  0.00     0.016 A 
HETATM   27  C12 UNL     1      29.773   0.491  53.926  1.00  0.00     0.001 A 
HETATM   28  C13 UNL     1      29.935  -0.876  53.888  1.00  0.00     0.002 A 
HETATM   29  C14 UNL     1      28.934  -1.651  53.326  1.00  0.00     0.025 A 
HETATM   30  C15 UNL     1      27.799  -1.033  52.818  1.00  0.00     0.047 A 
HETATM   31 CL1  UNL     1      26.629  -2.131  52.151  1.00  0.00    -0.083 Cl
ENDBRANCH   7  25
TORSDOF 7
ENDMDL
MODEL 6
REMARK VINA RESULT:      -7.6      1.775      2.321
REMARK  7 active torsions:
REMARK  status: ('A' for Active; 'I' for Inactive)
REMARK    1  A    between atoms: N1_2  and  C2_3 
REMARK    2  A    between atoms: C2_3  and  C3_4 
REMARK    3  A    between atoms: C3_4  and  C4_5 
REMARK    4  A    between atoms: C4_5  and  O1_6 
REMARK    5  A    between atoms: C6_8  and  O2_9 
REMARK    6  A    between atoms: C9_13  and  C10_14 
REMARK    7  A    between atoms: C20_26  and  O5_27 
ROOT
HETATM    1  C4  UNL     1      18.679   1.058  51.187  1.00  0.00     0.106 C 
HETATM    2  C5  UNL     1      18.665   0.071  52.379  1.00  0.00     0.051 C 
HETATM    3  C6  UNL     1      19.697  -0.394  53.066  1.00  0.00     0.081 C 
HETATM    4  C7  UNL     1      21.119  -0.171  52.974  1.00  0.00     0.077 A 
HETATM    5  C8  UNL     1      21.900   0.606  52.109  1.00  0.00     0.077 A 
HETATM    6  O3  UNL     1      23.172   0.641  52.228  1.00  0.00    -0.312 OA
HETATM    7  C9  UNL     1      23.902   0.021  53.095  1.00  0.00     0.091 A 
HETATM    8  C16 UNL     1      23.187  -0.760  53.974  1.00  0.00     0.094 A 
HETATM    9  C17 UNL     1      21.806  -0.877  53.940  1.00  0.00     0.190 A 
HETATM   10  O4  UNL     1      21.169  -1.604  54.760  1.00  0.00    -0.287 OA
HETATM   11  C18 UNL     1      21.415   1.489  50.947  1.00  0.00     0.072 C 
HETATM   12  C19 UNL     1      21.971   2.884  51.176  1.00  0.00     0.020 C 
HETATM   13  C20 UNL     1      20.007   1.313  50.856  1.00  0.00     0.166 C 
ENDROOT
BRANCH   1  14
HETATM   14  C3  UNL     1      17.746   0.558  50.114  1.00  0.00     0.075 C 
BRANCH  14  15
HETATM   15  C2  UNL     1      16.591  -0.267  50.530  1.00  0.00     0.272 C 
BRANCH  15  16
HETATM   16  N1  UNL     1      15.456   0.690  50.648  1.00  0.00     0.079 N 
HETATM   17  C1  UNL     1      15.358   1.510  49.474  1.00  0.00     0.306 C 
HETATM   18  H4  UNL     1      14.586   0.123  50.775  1.00  0.00     0.315 HD
ENDBRANCH  15  16
ENDBRANCH  14  15
ENDBRANCH   1  14
BRANCH   1  19
HETATM   19  O1  UNL     1      17.894   2.125  51.764  1.00  0.00    -0.383 OA
HETATM   20  H9  UNL     1      18.576   2.717  52.125  1.00  0.00     0.211 HD
ENDBRANCH   1  19
BRANCH  13  21
HETATM   21  O5  UNL     1      20.169  -0.063  50.679  1.00  0.00    -0.391 OA
HETATM   22  H22 UNL     1      19.763  -0.320  49.853  1.00  0.00     0.210 HD
ENDBRANCH  13  21
BRANCH   3  23
HETATM   23  O2  UNL     1      19.342  -1.271  54.083  1.00  0.00    -0.360 OA
HETATM   24  H11 UNL     1      20.073  -1.752  54.605  1.00  0.00     0.217 HD
ENDBRANCH   3  23
BRANCH   7  25
HETATM   25  C10 UNL     1      25.348   0.112  53.167  1.00  0.00     0.020 A 
HETATM   26  C11 UNL     1      26.206  -0.943  52.972  1.00  0.00     0.016 A 
HETATM   27  C12 UNL     1      27.579  -0.877  53.039  1.00  0.00     0.001 A 
HETATM   28  C13 UNL     1      28.170   0.334  53.322  1.00  0.00     0.002 A 
HETATM   29  C14 UNL     1      27.363   1.440  53.530  1.00  0.00     0.025 A 
HETATM   30  C15 UNL     1      25.983   1.300  53.448  1.00  0.00     0.047 A 
HETATM   31 CL1  UNL     1      25.101   2.770  53.726  1.00  0.00    -0.083 Cl
ENDBRANCH   7  25
TORSDOF 7
ENDMDL
MODEL 7
REMARK VINA RESULT:      -7.6      3.247      7.717
REMARK  7 active torsions:
REMARK  status: ('A' for Active; 'I' for Inactive)
REMARK    1  A    between atoms: N1_2  and  C2_3 
REMARK    2  A    between atoms: C2_3  and  C3_4 
REMARK    3  A    between atoms: C3_4  and  C4_5 
REMARK    4  A    between atoms: C4_5  and  O1_6 
REMARK    5  A    between atoms: C6_8  and  O2_9 
REMARK    6  A    between atoms: C9_13  and  C10_14 
REMARK    7  A    between atoms: C20_26  and  O5_27 
ROOT
HETATM    1  C4  UNL     1      25.122   1.094  52.645  1.00  0.00     0.106 C 
HETATM    2  C5  UNL     1      24.848   0.043  53.747  1.00  0.00     0.051 C 
HETATM    3  C6  UNL     1      23.692  -0.515  54.074  1.00  0.00     0.081 C 
HETATM    4  C7  UNL     1      22.351  -0.368  53.564  1.00  0.00     0.077 A 
HETATM    5  C8  UNL     1      21.809   0.433  52.552  1.00  0.00     0.077 A 
HETATM    6  O3  UNL     1      20.561   0.387  52.278  1.00  0.00    -0.312 OA
HETATM    7  C9  UNL     1      19.655  -0.346  52.837  1.00  0.00     0.091 A 
HETATM    8  C16 UNL     1      20.133  -1.157  53.842  1.00  0.00     0.094 A 
HETATM    9  C17 UNL     1      21.464  -1.191  54.226  1.00  0.00     0.190 A 
HETATM   10  O4  UNL     1      21.880  -1.946  55.156  1.00  0.00    -0.287 OA
HETATM   11  C18 UNL     1      22.549   1.439  51.653  1.00  0.00     0.072 C 
HETATM   12  C19 UNL     1      22.250   1.064  50.212  1.00  0.00     0.020 C 
HETATM   13  C20 UNL     1      23.900   1.468  52.094  1.00  0.00     0.166 C 
ENDROOT
BRANCH   1  14
HETATM   14  C3  UNL     1      26.030   2.165  53.193  1.00  0.00     0.075 C 
BRANCH  14  15
HETATM   15  C2  UNL     1      27.393   2.273  52.628  1.00  0.00     0.272 C 
BRANCH  15  16
HETATM   16  N1  UNL     1      28.268   2.593  53.791  1.00  0.00     0.079 N 
HETATM   17  C1  UNL     1      29.001   1.432  54.210  1.00  0.00     0.306 C 
HETATM   18  H4  UNL     1      28.920   3.352  53.486  1.00  0.00     0.315 HD
ENDBRANCH  15  16
ENDBRANCH  14  15
ENDBRANCH   1  14
BRANCH   1  19
HETATM   19  O1  UNL     1      26.045   0.337  51.830  1.00  0.00    -0.383 OA
HETATM   20  H9  UNL     1      25.979  -0.556  52.213  1.00  0.00     0.211 HD
ENDBRANCH   1  19
BRANCH  13  21
HETATM   21  O5  UNL     1      23.495   1.833  53.380  1.00  0.00    -0.391 OA
HETATM   22  H22 UNL     1      24.148   1.532  54.009  1.00  0.00     0.210 HD
ENDBRANCH  13  21
BRANCH   3  23
HETATM   23  O2  UNL     1      23.788  -1.429  55.117  1.00  0.00    -0.360 OA
HETATM   24  H11 UNL     1      23.581  -1.124  56.066  1.00  0.00     0.217 HD
ENDBRANCH   3  23
BRANCH   7  25
HETATM   25  C10 UNL     1      18.253  -0.343  52.469  1.00  0.00     0.020 A 
HETATM   26  C11 UNL     1      17.382  -1.378  52.714  1.00  0.00     0.016 A 
HETATM   27  C12 UNL     1      16.049  -1.395  52.370  1.00  0.00     0.001 A 
HETATM   28  C13 UNL     1      15.516  -0.299  51.728  1.00  0.00     0.002 A 
HETATM   29  C14 UNL     1      16.340   0.779  51.451  1.00  0.00     0.025 A 
HETATM   30  C15 UNL     1      17.676   0.728  51.826  1.00  0.00     0.047 A 
HETATM   31 CL1  UNL     1      18.585   2.152  51.419  1.00  0.00    -0.083 Cl
ENDBRANCH   7  25
TORSDOF 7
ENDMDL
MODEL 8
REMARK VINA RESULT:      -7.5      7.035      9.890
REMARK  7 active torsions:
REMARK  status: ('A' for Active; 'I' for Inactive)
REMARK    1  A    between atoms: N1_2  and  C2_3 
REMARK    2  A    between atoms: C2_3  and  C3_4 
REMARK    3  A    between atoms: C3_4  and  C4_5 
REMARK    4  A    between atoms: C4_5  and  O1_6 
REMARK    5  A    between atoms: C6_8  and  O2_9 
REMARK    6  A    between atoms: C9_13  and  C10_14 
REMARK    7  A    between atoms: C20_26  and  O5_27 
ROOT
HETATM    1  C4  UNL     1      26.654   9.201  48.877  1.00  0.00     0.106 C 
HETATM    2  C5  UNL     1      27.636   8.132  48.343  1.00  0.00     0.051 C 
HETATM    3  C6  UNL     1      27.589   6.820  48.517  1.00  0.00     0.081 C 
HETATM    4  C7  UNL     1      26.672   5.954  49.216  1.00  0.00     0.077 A 
HETATM    5  C8  UNL     1      25.519   6.210  49.968  1.00  0.00     0.077 A 
HETATM    6  O3  UNL     1      24.861   5.254  50.504  1.00  0.00    -0.312 OA
HETATM    7  C9  UNL     1      25.119   3.989  50.450  1.00  0.00     0.091 A 
HETATM    8  C16 UNL     1      26.244   3.677  49.721  1.00  0.00     0.094 A 
HETATM    9  C17 UNL     1      27.036   4.629  49.098  1.00  0.00     0.190 A 
HETATM   10  O4  UNL     1      28.070   4.317  48.433  1.00  0.00    -0.287 OA
HETATM   11  C18 UNL     1      24.880   7.576  50.269  1.00  0.00     0.072 C 
HETATM   12  C19 UNL     1      23.429   7.506  49.824  1.00  0.00     0.020 C 
HETATM   13  C20 UNL     1      25.729   8.563  49.700  1.00  0.00     0.166 C 
ENDROOT
BRANCH   1  14
HETATM   14  C3  UNL     1      27.435  10.366  49.428  1.00  0.00     0.075 C 
BRANCH  14  15
HETATM   15  C2  UNL     1      28.798  10.597  48.901  1.00  0.00     0.272 C 
BRANCH  15  16
HETATM   16  N1  UNL     1      29.173  11.955  49.385  1.00  0.00     0.079 N 
HETATM   17  C1  UNL     1      30.541  12.250  49.064  1.00  0.00     0.306 C 
HETATM   18  H4  UNL     1      28.530  12.637  48.921  1.00  0.00     0.315 HD
ENDBRANCH  15  16
ENDBRANCH  14  15
ENDBRANCH   1  14
BRANCH   1  19
HETATM   19  O1  UNL     1      26.198   9.744  47.617  1.00  0.00    -0.383 OA
HETATM   20  H9  UNL     1      26.034  10.677  47.837  1.00  0.00     0.211 HD
ENDBRANCH   1  19
BRANCH  13  21
HETATM   21  O5  UNL     1      26.808   8.103  50.460  1.00  0.00    -0.391 OA
HETATM   22  H22 UNL     1      27.591   8.093  49.913  1.00  0.00     0.210 HD
ENDBRANCH  13  21
BRANCH   3  23
HETATM   23  O2  UNL     1      28.631   6.136  47.902  1.00  0.00    -0.360 OA
HETATM   24  H11 UNL     1      29.502   6.627  47.705  1.00  0.00     0.217 HD
ENDBRANCH   3  23
BRANCH   7  25
HETATM   25  C10 UNL     1      24.320   2.959  51.086  1.00  0.00     0.020 A 
HETATM   26  C11 UNL     1      24.491   2.530  52.380  1.00  0.00     0.016 A 
HETATM   27  C12 UNL     1      23.745   1.554  53.001  1.00  0.00     0.001 A 
HETATM   28  C13 UNL     1      22.737   0.940  52.292  1.00  0.00     0.002 A 
HETATM   29  C14 UNL     1      22.510   1.326  50.982  1.00  0.00     0.025 A 
HETATM   30  C15 UNL     1      23.302   2.318  50.418  1.00  0.00     0.047 A 
HETATM   31 CL1  UNL     1      22.900   2.701  48.772  1.00  0.00    -0.083 Cl
ENDBRANCH   7  25
TORSDOF 7
ENDMDL
MODEL 9
REMARK VINA RESULT:      -7.3      5.780      8.477
REMARK  7 active torsions:
REMARK  status: ('A' for Active; 'I' for Inactive)
REMARK    1  A    between atoms: N1_2  and  C2_3 
REMARK    2  A    between atoms: C2_3  and  C3_4 
REMARK    3  A    between atoms: C3_4  and  C4_5 
REMARK    4  A    between atoms: C4_5  and  O1_6 
REMARK    5  A    between atoms: C6_8  and  O2_9 
REMARK    6  A    between atoms: C9_13  and  C10_14 
REMARK    7  A    between atoms: C20_26  and  O5_27 
ROOT
HETATM    1  C4  UNL     1      25.265   8.091  49.445  1.00  0.00     0.106 C 
HETATM    2  C5  UNL     1      26.304   7.106  48.857  1.00  0.00     0.051 C 
HETATM    3  C6  UNL     1      26.430   5.811  49.101  1.00  0.00     0.081 C 
HETATM    4  C7  UNL     1      25.700   4.894  49.942  1.00  0.00     0.077 A 
HETATM    5  C8  UNL     1      24.612   5.067  50.806  1.00  0.00     0.077 A 
HETATM    6  O3  UNL     1      24.131   4.079  51.459  1.00  0.00    -0.312 OA
HETATM    7  C9  UNL     1      24.528   2.850  51.440  1.00  0.00     0.091 A 
HETATM    8  C16 UNL     1      25.598   2.620  50.606  1.00  0.00     0.094 A 
HETATM    9  C17 UNL     1      26.203   3.612  49.850  1.00  0.00     0.190 A 
HETATM   10  O4  UNL     1      27.188   3.376  49.089  1.00  0.00    -0.287 OA
HETATM   11  C18 UNL     1      23.852   6.370  51.108  1.00  0.00     0.072 C 
HETATM   12  C19 UNL     1      22.382   6.111  50.834  1.00  0.00     0.020 C 
HETATM   13  C20 UNL     1      24.515   7.407  50.398  1.00  0.00     0.166 C 
ENDROOT
BRANCH   1  14
HETATM   14  C3  UNL     1      25.959   9.367  49.845  1.00  0.00     0.075 C 
BRANCH  14  15
HETATM   15  C2  UNL     1      27.237   9.700  49.178  1.00  0.00     0.272 C 
BRANCH  15  16
HETATM   16  N1  UNL     1      26.869  10.646  48.089  1.00  0.00     0.079 N 
HETATM   17  C1  UNL     1      27.490  10.263  46.852  1.00  0.00     0.306 C 
HETATM   18  H4  UNL     1      25.827  10.625  48.001  1.00  0.00     0.315 HD
ENDBRANCH  15  16
ENDBRANCH  14  15
ENDBRANCH   1  14
BRANCH   1  19
HETATM   19  O1  UNL     1      24.618   8.500  48.219  1.00  0.00    -0.383 OA
HETATM   20  H9  UNL     1      24.057   9.238  48.513  1.00  0.00     0.211 HD
ENDBRANCH   1  19
BRANCH  13  21
HETATM   21  O5  UNL     1      25.715   7.119  51.053  1.00  0.00    -0.391 OA
HETATM   22  H22 UNL     1      25.899   7.812  51.684  1.00  0.00     0.210 HD
ENDBRANCH  13  21
BRANCH   3  23
HETATM   23  O2  UNL     1      27.473   5.210  48.407  1.00  0.00    -0.360 OA
HETATM   24  H11 UNL     1      27.451   5.195  47.389  1.00  0.00     0.217 HD
ENDBRANCH   3  23
BRANCH   7  25
HETATM   25  C10 UNL     1      23.928   1.780  52.214  1.00  0.00     0.020 A 
HETATM   26  C11 UNL     1      24.632   0.886  52.983  1.00  0.00     0.016 A 
HETATM   27  C12 UNL     1      24.081  -0.137  53.722  1.00  0.00     0.001 A 
HETATM   28  C13 UNL     1      22.714  -0.301  53.709  1.00  0.00     0.002 A 
HETATM   29  C14 UNL     1      21.944   0.567  52.953  1.00  0.00     0.025 A 
HETATM   30  C15 UNL     1      22.567   1.577  52.231  1.00  0.00     0.047 A 
HETATM   31 CL1  UNL     1      21.476   2.590  51.336  1.00  0.00    -0.083 Cl
ENDBRANCH   7  25
TORSDOF 7
ENDMDL
