MODEL 1
REMARK VINA RESULT:      -9.9      0.000      0.000
REMARK  2 active torsions:
REMARK  status: ('A' for Active; 'I' for Inactive)
REMARK    1  A    between atoms: C4_4  and  N1_5 
REMARK    2  A    between atoms: N1_5  and  C5_6 
ROOT
HETATM    1  C5  UNL     1      24.305  -0.629  54.344  1.00  0.00     0.725 A 
HETATM    2  N2  UNL     1      23.523  -1.302  55.206  1.00  0.00    -0.074 NA
HETATM    3  C6  UNL     1      22.183  -1.387  55.033  1.00  0.00     0.151 A 
HETATM    4  C7  UNL     1      21.603  -0.769  53.947  1.00  0.00     0.032 A 
HETATM    5  C8  UNL     1      22.417  -0.084  53.072  1.00  0.00     0.175 A 
HETATM    6  N3  UNL     1      23.743  -0.026  53.285  1.00  0.00    -0.043 NA
HETATM    7  N4  UNL     1      21.794   0.554  51.943  1.00  0.00    -0.278 N 
HETATM    8  C9  UNL     1      22.717   1.251  51.076  1.00  0.00     0.179 C 
HETATM    9  N5  UNL     1      20.416   0.448  51.793  1.00  0.00    -0.296 N 
HETATM   10  C10 UNL     1      19.525  -0.243  52.658  1.00  0.00     0.061 A 
HETATM   11  C11 UNL     1      18.121  -0.373  52.355  1.00  0.00     0.020 A 
HETATM   12  C12 UNL     1      17.273  -1.368  52.781  1.00  0.00    -0.048 A 
HETATM   13  C13 UNL     1      17.762  -2.554  53.489  1.00  0.00     0.049 C 
HETATM   14  C14 UNL     1      15.895  -1.365  52.536  1.00  0.00     0.007 A 
HETATM   15  C15 UNL     1      15.324  -0.329  51.833  1.00  0.00     0.002 A 
HETATM   16  C16 UNL     1      16.155   0.703  51.380  1.00  0.00     0.025 A 
HETATM   17  C17 UNL     1      17.526   0.654  51.652  1.00  0.00     0.047 A 
HETATM   18 CL1  UNL     1      18.207   2.121  50.989  1.00  0.00    -0.083 Cl
HETATM   19  C18 UNL     1      20.182  -0.790  53.658  1.00  0.00     0.048 A 
HETATM   20  H11 UNL     1      20.181   0.943  50.920  1.00  0.00     0.187 HD
ENDROOT
BRANCH   1  21
HETATM   21  N1  UNL     1      25.709  -0.564  54.562  1.00  0.00    -0.211 N 
HETATM   22  H6  UNL     1      26.113  -0.900  55.463  1.00  0.00     0.178 HD
BRANCH  21  23
HETATM   23  C4  UNL     1      26.559  -0.026  53.523  1.00  0.00     0.149 A 
HETATM   24  C3  UNL     1      27.776  -0.854  53.319  1.00  0.00     0.012 A 
HETATM   25  C2  UNL     1      28.884  -0.132  53.553  1.00  0.00    -0.025 A 
HETATM   26  C1  UNL     1      30.359  -0.406  53.515  1.00  0.00     0.051 C 
HETATM   27  C20 UNL     1      28.480   1.232  53.930  1.00  0.00     0.120 A 
HETATM   28  C19 UNL     1      27.157   1.272  53.907  1.00  0.00     0.045 A 
HETATM   29  F1  UNL     1      29.190   2.336  54.262  1.00  0.00    -0.206 F 
ENDBRANCH  21  23
ENDBRANCH   1  21
TORSDOF 2
ENDMDL
MODEL 2
REMARK VINA RESULT:      -9.6      1.921      2.954
REMARK  2 active torsions:
REMARK  status: ('A' for Active; 'I' for Inactive)
REMARK    1  A    between atoms: C4_4  and  N1_5 
REMARK    2  A    between atoms: N1_5  and  C5_6 
ROOT
HETATM    1  C5  UNL     1      24.269   0.959  52.323  1.00  0.00     0.725 A 
HETATM    2  N2  UNL     1      23.752   1.478  51.196  1.00  0.00    -0.074 NA
HETATM    3  C6  UNL     1      22.439   1.352  50.891  1.00  0.00     0.151 A 
HETATM    4  C7  UNL     1      21.608   0.674  51.756  1.00  0.00     0.032 A 
HETATM    5  C8  UNL     1      22.152   0.147  52.907  1.00  0.00     0.175 A 
HETATM    6  N3  UNL     1      23.462   0.296  53.167  1.00  0.00    -0.043 NA
HETATM    7  N4  UNL     1      21.269  -0.558  53.798  1.00  0.00    -0.278 N 
HETATM    8  C9  UNL     1      21.918  -1.079  54.980  1.00  0.00     0.179 C 
HETATM    9  N5  UNL     1      19.926  -0.669  53.458  1.00  0.00    -0.296 N 
HETATM   10  C10 UNL     1      19.307  -0.149  52.288  1.00  0.00     0.061 A 
HETATM   11  C11 UNL     1      17.883  -0.238  52.081  1.00  0.00     0.020 A 
HETATM   12  C12 UNL     1      17.106   0.599  51.314  1.00  0.00    -0.048 A 
HETATM   13  C13 UNL     1      17.639   1.833  50.729  1.00  0.00     0.049 C 
HETATM   14  C14 UNL     1      15.746   0.382  51.070  1.00  0.00     0.007 A 
HETATM   15  C15 UNL     1      15.117  -0.717  51.611  1.00  0.00     0.002 A 
HETATM   16  C16 UNL     1      15.873  -1.592  52.399  1.00  0.00     0.025 A 
HETATM   17  C17 UNL     1      17.231  -1.331  52.612  1.00  0.00     0.047 A 
HETATM   18 CL1  UNL     1      17.837  -2.655  53.579  1.00  0.00    -0.083 Cl
HETATM   19  C18 UNL     1      20.189   0.475  51.536  1.00  0.00     0.048 A 
HETATM   20  H11 UNL     1      19.472  -1.176  54.231  1.00  0.00     0.187 HD
ENDROOT
BRANCH   1  21
HETATM   21  N1  UNL     1      25.653   1.113  52.606  1.00  0.00    -0.211 N 
HETATM   22  H6  UNL     1      26.207   1.849  52.116  1.00  0.00     0.178 HD
BRANCH  21  23
HETATM   23  C4  UNL     1      26.276   0.240  53.576  1.00  0.00     0.149 A 
HETATM   24  C3  UNL     1      27.704   0.587  53.798  1.00  0.00     0.012 A 
HETATM   25  C2  UNL     1      28.498  -0.447  53.478  1.00  0.00    -0.025 A 
HETATM   26  C1  UNL     1      29.978  -0.694  53.488  1.00  0.00     0.051 C 
HETATM   27  C20 UNL     1      27.651  -1.559  53.018  1.00  0.00     0.120 A 
HETATM   28  C19 UNL     1      26.393  -1.150  53.082  1.00  0.00     0.045 A 
HETATM   29  F1  UNL     1      27.940  -2.810  52.585  1.00  0.00    -0.206 F 
ENDBRANCH  21  23
ENDBRANCH   1  21
TORSDOF 2
ENDMDL
MODEL 3
REMARK VINA RESULT:      -9.6      4.054      4.840
REMARK  2 active torsions:
REMARK  status: ('A' for Active; 'I' for Inactive)
REMARK    1  A    between atoms: C4_4  and  N1_5 
REMARK    2  A    between atoms: N1_5  and  C5_6 
ROOT
HETATM    1  C5  UNL     1      25.181   3.216  51.073  1.00  0.00     0.725 A 
HETATM    2  N2  UNL     1      25.056   2.951  52.385  1.00  0.00    -0.074 NA
HETATM    3  C6  UNL     1      23.987   2.281  52.878  1.00  0.00     0.151 A 
HETATM    4  C7  UNL     1      23.000   1.860  52.014  1.00  0.00     0.032 A 
HETATM    5  C8  UNL     1      23.141   2.139  50.672  1.00  0.00     0.175 A 
HETATM    6  N3  UNL     1      24.220   2.807  50.229  1.00  0.00    -0.043 NA
HETATM    7  N4  UNL     1      22.100   1.690  49.786  1.00  0.00    -0.278 N 
HETATM    8  C9  UNL     1      22.325   2.023  48.397  1.00  0.00     0.179 C 
HETATM    9  N5  UNL     1      21.017   1.004  50.322  1.00  0.00    -0.296 N 
HETATM   10  C10 UNL     1      20.814   0.687  51.693  1.00  0.00     0.061 A 
HETATM   11  C11 UNL     1      19.699  -0.115  52.130  1.00  0.00     0.020 A 
HETATM   12  C12 UNL     1      19.633  -0.892  53.262  1.00  0.00    -0.048 A 
HETATM   13  C13 UNL     1      20.807  -1.134  54.106  1.00  0.00     0.049 C 
HETATM   14  C14 UNL     1      18.474  -1.556  53.678  1.00  0.00     0.007 A 
HETATM   15  C15 UNL     1      17.318  -1.449  52.937  1.00  0.00     0.002 A 
HETATM   16  C16 UNL     1      17.344  -0.668  51.776  1.00  0.00     0.025 A 
HETATM   17  C17 UNL     1      18.529  -0.024  51.404  1.00  0.00     0.047 A 
HETATM   18 CL1  UNL     1      18.157   0.886  49.959  1.00  0.00    -0.083 Cl
HETATM   19  C18 UNL     1      21.812   1.137  52.424  1.00  0.00     0.048 A 
HETATM   20  H11 UNL     1      20.411   0.752  49.528  1.00  0.00     0.187 HD
ENDROOT
BRANCH   1  21
HETATM   21  N1  UNL     1      26.319   3.922  50.595  1.00  0.00    -0.211 N 
HETATM   22  H6  UNL     1      27.168   4.007  51.196  1.00  0.00     0.178 HD
BRANCH  21  23
HETATM   23  C4  UNL     1      26.280   4.513  49.277  1.00  0.00     0.149 A 
HETATM   24  C3  UNL     1      27.631   4.586  48.662  1.00  0.00     0.012 A 
HETATM   25  C2  UNL     1      27.964   5.860  48.400  1.00  0.00    -0.025 A 
HETATM   26  C1  UNL     1      29.157   6.546  47.802  1.00  0.00     0.051 C 
HETATM   27  C20 UNL     1      26.853   6.728  48.824  1.00  0.00     0.120 A 
HETATM   28  C19 UNL     1      25.907   5.945  49.318  1.00  0.00     0.045 A 
HETATM   29  F1  UNL     1      26.677   8.070  48.785  1.00  0.00    -0.206 F 
ENDBRANCH  21  23
ENDBRANCH   1  21
TORSDOF 2
ENDMDL
MODEL 4
REMARK VINA RESULT:      -9.3      6.212      9.713
REMARK  2 active torsions:
REMARK  status: ('A' for Active; 'I' for Inactive)
REMARK    1  A    between atoms: C4_4  and  N1_5 
REMARK    2  A    between atoms: N1_5  and  C5_6 
ROOT
HETATM    1  C5  UNL     1      24.602   2.731  51.858  1.00  0.00     0.725 A 
HETATM    2  N2  UNL     1      25.680   2.164  51.289  1.00  0.00    -0.074 NA
HETATM    3  C6  UNL     1      26.439   2.828  50.386  1.00  0.00     0.151 A 
HETATM    4  C7  UNL     1      26.101   4.117  50.038  1.00  0.00     0.032 A 
HETATM    5  C8  UNL     1      24.993   4.685  50.629  1.00  0.00     0.175 A 
HETATM    6  N3  UNL     1      24.269   3.987  51.521  1.00  0.00    -0.043 NA
HETATM    7  N4  UNL     1      24.656   6.033  50.254  1.00  0.00    -0.278 N 
HETATM    8  C9  UNL     1      23.482   6.552  50.918  1.00  0.00     0.179 C 
HETATM    9  N5  UNL     1      25.456   6.687  49.325  1.00  0.00    -0.296 N 
HETATM   10  C10 UNL     1      26.607   6.157  48.681  1.00  0.00     0.061 A 
HETATM   11  C11 UNL     1      27.423   6.959  47.804  1.00  0.00     0.020 A 
HETATM   12  C12 UNL     1      28.757   6.779  47.523  1.00  0.00    -0.048 A 
HETATM   13  C13 UNL     1      29.578   5.806  48.248  1.00  0.00     0.049 C 
HETATM   14  C14 UNL     1      29.454   7.533  46.572  1.00  0.00     0.007 A 
HETATM   15  C15 UNL     1      28.803   8.516  45.862  1.00  0.00     0.002 A 
HETATM   16  C16 UNL     1      27.444   8.732  46.121  1.00  0.00     0.025 A 
HETATM   17  C17 UNL     1      26.792   7.950  47.081  1.00  0.00     0.047 A 
HETATM   18 CL1  UNL     1      25.122   8.465  47.077  1.00  0.00    -0.083 Cl
HETATM   19  C18 UNL     1      26.836   4.925  49.084  1.00  0.00     0.048 A 
HETATM   20  H11 UNL     1      25.063   7.634  49.220  1.00  0.00     0.187 HD
ENDROOT
BRANCH   1  21
HETATM   21  N1  UNL     1      23.830   2.001  52.803  1.00  0.00    -0.211 N 
HETATM   22  H6  UNL     1      23.345   2.503  53.578  1.00  0.00     0.178 HD
BRANCH  21  23
HETATM   23  C4  UNL     1      23.731   0.564  52.673  1.00  0.00     0.149 A 
HETATM   24  C3  UNL     1      22.318   0.104  52.677  1.00  0.00     0.012 A 
HETATM   25  C2  UNL     1      22.095  -0.731  53.706  1.00  0.00    -0.025 A 
HETATM   26  C1  UNL     1      20.909  -1.493  54.218  1.00  0.00     0.051 C 
HETATM   27  C20 UNL     1      23.349  -0.884  54.460  1.00  0.00     0.120 A 
HETATM   28  C19 UNL     1      24.266  -0.142  53.858  1.00  0.00     0.045 A 
HETATM   29  F1  UNL     1      23.669  -1.600  55.565  1.00  0.00    -0.206 F 
ENDBRANCH  21  23
ENDBRANCH   1  21
TORSDOF 2
ENDMDL
MODEL 5
REMARK VINA RESULT:      -9.2      5.387      7.099
REMARK  2 active torsions:
REMARK  status: ('A' for Active; 'I' for Inactive)
REMARK    1  A    between atoms: C4_4  and  N1_5 
REMARK    2  A    between atoms: N1_5  and  C5_6 
ROOT
HETATM    1  C5  UNL     1      26.582   4.283  49.416  1.00  0.00     0.725 A 
HETATM    2  N2  UNL     1      25.321   4.243  48.953  1.00  0.00    -0.074 NA
HETATM    3  C6  UNL     1      24.360   3.515  49.570  1.00  0.00     0.151 A 
HETATM    4  C7  UNL     1      24.681   2.795  50.699  1.00  0.00     0.032 A 
HETATM    5  C8  UNL     1      25.978   2.845  51.161  1.00  0.00     0.175 A 
HETATM    6  N3  UNL     1      26.898   3.582  50.516  1.00  0.00    -0.043 NA
HETATM    7  N4  UNL     1      26.293   2.087  52.342  1.00  0.00    -0.278 N 
HETATM    8  C9  UNL     1      27.673   2.193  52.759  1.00  0.00     0.179 C 
HETATM    9  N5  UNL     1      25.285   1.350  52.952  1.00  0.00    -0.296 N 
HETATM   10  C10 UNL     1      23.932   1.258  52.525  1.00  0.00     0.061 A 
HETATM   11  C11 UNL     1      22.942   0.541  53.290  1.00  0.00     0.020 A 
HETATM   12  C12 UNL     1      21.585   0.762  53.298  1.00  0.00    -0.048 A 
HETATM   13  C13 UNL     1      20.983   1.916  52.624  1.00  0.00     0.049 C 
HETATM   14  C14 UNL     1      20.674  -0.050  53.982  1.00  0.00     0.007 A 
HETATM   15  C15 UNL     1      21.125  -1.136  54.698  1.00  0.00     0.002 A 
HETATM   16  C16 UNL     1      22.500  -1.395  54.716  1.00  0.00     0.025 A 
HETATM   17  C17 UNL     1      23.370  -0.553  54.014  1.00  0.00     0.047 A 
HETATM   18 CL1  UNL     1      24.971  -1.221  54.223  1.00  0.00    -0.083 Cl
HETATM   19  C18 UNL     1      23.739   1.980  51.442  1.00  0.00     0.048 A 
HETATM   20  H11 UNL     1      25.708   0.912  53.784  1.00  0.00     0.187 HD
ENDROOT
BRANCH   1  21
HETATM   21  N1  UNL     1      27.563   5.061  48.740  1.00  0.00    -0.211 N 
HETATM   22  H6  UNL     1      28.528   4.686  48.614  1.00  0.00     0.178 HD
BRANCH  21  23
HETATM   23  C4  UNL     1      27.202   6.366  48.235  1.00  0.00     0.149 A 
HETATM   24  C3  UNL     1      28.383   7.105  47.716  1.00  0.00     0.012 A 
HETATM   25  C2  UNL     1      28.562   8.249  48.396  1.00  0.00    -0.025 A 
HETATM   26  C1  UNL     1      29.550   9.377  48.337  1.00  0.00     0.051 C 
HETATM   27  C20 UNL     1      27.509   8.352  49.419  1.00  0.00     0.120 A 
HETATM   28  C19 UNL     1      26.747   7.274  49.311  1.00  0.00     0.045 A 
HETATM   29  F1  UNL     1      27.234   9.291  50.356  1.00  0.00    -0.206 F 
ENDBRANCH  21  23
ENDBRANCH   1  21
TORSDOF 2
ENDMDL
MODEL 6
REMARK VINA RESULT:      -8.6      4.534      9.647
REMARK  2 active torsions:
REMARK  status: ('A' for Active; 'I' for Inactive)
REMARK    1  A    between atoms: C4_4  and  N1_5 
REMARK    2  A    between atoms: N1_5  and  C5_6 
ROOT
HETATM    1  C5  UNL     1      17.146   1.699  51.551  1.00  0.00     0.725 A 
HETATM    2  N2  UNL     1      17.368   0.430  51.937  1.00  0.00    -0.074 NA
HETATM    3  C6  UNL     1      18.617  -0.030  52.183  1.00  0.00     0.151 A 
HETATM    4  C7  UNL     1      19.691   0.820  52.034  1.00  0.00     0.032 A 
HETATM    5  C8  UNL     1      19.447   2.117  51.638  1.00  0.00     0.175 A 
HETATM    6  N3  UNL     1      18.190   2.530  51.405  1.00  0.00    -0.043 NA
HETATM    7  N4  UNL     1      20.581   2.991  51.489  1.00  0.00    -0.278 N 
HETATM    8  C9  UNL     1      20.240   4.332  51.071  1.00  0.00     0.179 C 
HETATM    9  N5  UNL     1      21.850   2.489  51.750  1.00  0.00    -0.296 N 
HETATM   10  C10 UNL     1      22.165   1.164  52.160  1.00  0.00     0.061 A 
HETATM   11  C11 UNL     1      23.511   0.774  52.499  1.00  0.00     0.020 A 
HETATM   12  C12 UNL     1      23.888  -0.243  53.344  1.00  0.00    -0.048 A 
HETATM   13  C13 UNL     1      22.916  -0.972  54.163  1.00  0.00     0.049 C 
HETATM   14  C14 UNL     1      25.218  -0.634  53.536  1.00  0.00     0.007 A 
HETATM   15  C15 UNL     1      26.229   0.013  52.861  1.00  0.00     0.002 A 
HETATM   16  C16 UNL     1      25.886   1.056  51.993  1.00  0.00     0.025 A 
HETATM   17  C17 UNL     1      24.541   1.408  51.834  1.00  0.00     0.047 A 
HETATM   18 CL1  UNL     1      24.508   2.688  50.646  1.00  0.00    -0.083 Cl
HETATM   19  C18 UNL     1      21.070   0.441  52.268  1.00  0.00     0.048 A 
HETATM   20  H11 UNL     1      22.506   3.272  51.613  1.00  0.00     0.187 HD
ENDROOT
BRANCH   1  21
HETATM   21  N1  UNL     1      15.818   2.144  51.303  1.00  0.00    -0.211 N 
HETATM   22  H6  UNL     1      15.121   1.493  50.881  1.00  0.00     0.178 HD
BRANCH  21  23
HETATM   23  C4  UNL     1      15.455   3.502  51.641  1.00  0.00     0.149 A 
HETATM   24  C3  UNL     1      14.897   3.601  53.014  1.00  0.00     0.012 A 
HETATM   25  C2  UNL     1      13.640   4.073  52.982  1.00  0.00    -0.025 A 
HETATM   26  C1  UNL     1      12.594   4.382  54.012  1.00  0.00     0.051 C 
HETATM   27  C20 UNL     1      13.273   4.323  51.579  1.00  0.00     0.120 A 
HETATM   28  C19 UNL     1      14.316   3.993  50.833  1.00  0.00     0.045 A 
HETATM   29  F1  UNL     1      12.141   4.791  51.001  1.00  0.00    -0.206 F 
ENDBRANCH  21  23
ENDBRANCH   1  21
TORSDOF 2
ENDMDL
MODEL 7
REMARK VINA RESULT:      -8.6      6.824     10.338
REMARK  2 active torsions:
REMARK  status: ('A' for Active; 'I' for Inactive)
REMARK    1  A    between atoms: C4_4  and  N1_5 
REMARK    2  A    between atoms: N1_5  and  C5_6 
ROOT
HETATM    1  C5  UNL     1      24.329   3.589  50.857  1.00  0.00     0.725 A 
HETATM    2  N2  UNL     1      25.228   2.799  50.246  1.00  0.00    -0.074 NA
HETATM    3  C6  UNL     1      26.238   3.312  49.503  1.00  0.00     0.151 A 
HETATM    4  C7  UNL     1      26.348   4.679  49.368  1.00  0.00     0.032 A 
HETATM    5  C8  UNL     1      25.418   5.475  49.999  1.00  0.00     0.175 A 
HETATM    6  N3  UNL     1      24.433   4.921  50.726  1.00  0.00    -0.043 NA
HETATM    7  N4  UNL     1      25.550   6.900  49.847  1.00  0.00    -0.278 N 
HETATM    8  C9  UNL     1      24.536   7.663  50.540  1.00  0.00     0.179 C 
HETATM    9  N5  UNL     1      26.597   7.396  49.079  1.00  0.00    -0.296 N 
HETATM   10  C10 UNL     1      27.585   6.627  48.404  1.00  0.00     0.061 A 
HETATM   11  C11 UNL     1      28.688   7.248  47.714  1.00  0.00     0.020 A 
HETATM   12  C12 UNL     1      29.921   6.695  47.463  1.00  0.00    -0.048 A 
HETATM   13  C13 UNL     1      30.330   5.414  48.045  1.00  0.00     0.049 C 
HETATM   14  C14 UNL     1      30.904   7.319  46.687  1.00  0.00     0.007 A 
HETATM   15  C15 UNL     1      30.658   8.554  46.129  1.00  0.00     0.002 A 
HETATM   16  C16 UNL     1      29.414   9.151  46.362  1.00  0.00     0.025 A 
HETATM   17  C17 UNL     1      28.465   8.485  47.145  1.00  0.00     0.047 A 
HETATM   18 CL1  UNL     1      27.043   9.502  47.158  1.00  0.00    -0.083 Cl
HETATM   19  C18 UNL     1      27.383   5.342  48.599  1.00  0.00     0.048 A 
HETATM   20  H11 UNL     1      26.527   8.423  49.122  1.00  0.00     0.187 HD
ENDROOT
BRANCH   1  21
HETATM   21  N1  UNL     1      23.283   3.011  51.628  1.00  0.00    -0.211 N 
HETATM   22  H6  UNL     1      22.306   3.010  51.263  1.00  0.00     0.178 HD
BRANCH  21  23
HETATM   23  C4  UNL     1      23.594   2.431  52.916  1.00  0.00     0.149 A 
HETATM   24  C3  UNL     1      24.994   2.715  53.327  1.00  0.00     0.012 A 
HETATM   25  C2  UNL     1      25.680   1.572  53.490  1.00  0.00    -0.025 A 
HETATM   26  C1  UNL     1      27.086   1.224  53.884  1.00  0.00     0.051 C 
HETATM   27  C20 UNL     1      24.782   0.444  53.197  1.00  0.00     0.120 A 
HETATM   28  C19 UNL     1      23.603   0.952  52.874  1.00  0.00     0.045 A 
HETATM   29  F1  UNL     1      24.967  -0.898  53.210  1.00  0.00    -0.206 F 
ENDBRANCH  21  23
ENDBRANCH   1  21
TORSDOF 2
ENDMDL
MODEL 8
REMARK VINA RESULT:      -8.3      7.633     10.656
REMARK  2 active torsions:
REMARK  status: ('A' for Active; 'I' for Inactive)
REMARK    1  A    between atoms: C4_4  and  N1_5 
REMARK    2  A    between atoms: N1_5  and  C5_6 
ROOT
HETATM    1  C5  UNL     1      25.612   3.648  50.259  1.00  0.00     0.725 A 
HETATM    2  N2  UNL     1      26.667   3.467  49.445  1.00  0.00    -0.074 NA
HETATM    3  C6  UNL     1      27.257   4.504  48.806  1.00  0.00     0.151 A 
HETATM    4  C7  UNL     1      26.766   5.778  48.991  1.00  0.00     0.032 A 
HETATM    5  C8  UNL     1      25.684   5.947  49.827  1.00  0.00     0.175 A 
HETATM    6  N3  UNL     1      25.130   4.888  50.441  1.00  0.00    -0.043 NA
HETATM    7  N4  UNL     1      25.186   7.285  50.008  1.00  0.00    -0.278 N 
HETATM    8  C9  UNL     1      24.051   7.375  50.900  1.00  0.00     0.179 C 
HETATM    9  N5  UNL     1      25.814   8.328  49.339  1.00  0.00    -0.296 N 
HETATM   10  C10 UNL     1      26.931   8.218  48.465  1.00  0.00     0.061 A 
HETATM   11  C11 UNL     1      27.567   9.380  47.897  1.00  0.00     0.020 A 
HETATM   12  C12 UNL     1      28.872   9.485  47.477  1.00  0.00    -0.048 A 
HETATM   13  C13 UNL     1      29.854   8.426  47.725  1.00  0.00     0.049 C 
HETATM   14  C14 UNL     1      29.387  10.614  46.831  1.00  0.00     0.007 A 
HETATM   15  C15 UNL     1      28.574  11.698  46.589  1.00  0.00     0.002 A 
HETATM   16  C16 UNL     1      27.239  11.632  47.003  1.00  0.00     0.025 A 
HETATM   17  C17 UNL     1      26.772  10.479  47.644  1.00  0.00     0.047 A 
HETATM   18 CL1  UNL     1      25.072  10.746  47.950  1.00  0.00    -0.083 Cl
HETATM   19  C18 UNL     1      27.314   6.963  48.360  1.00  0.00     0.048 A 
HETATM   20  H11 UNL     1      25.328   9.191  49.624  1.00  0.00     0.187 HD
ENDROOT
BRANCH   1  21
HETATM   21  N1  UNL     1      25.020   2.532  50.913  1.00  0.00    -0.211 N 
HETATM   22  H6  UNL     1      24.162   2.090  50.515  1.00  0.00     0.178 HD
BRANCH  21  23
HETATM   23  C4  UNL     1      25.620   2.026  52.127  1.00  0.00     0.149 A 
HETATM   24  C3  UNL     1      26.589   0.933  51.853  1.00  0.00     0.012 A 
HETATM   25  C2  UNL     1      26.209  -0.201  52.463  1.00  0.00    -0.025 A 
HETATM   26  C1  UNL     1      26.758  -1.594  52.555  1.00  0.00     0.051 C 
HETATM   27  C20 UNL     1      24.955   0.059  53.189  1.00  0.00     0.120 A 
HETATM   28  C19 UNL     1      24.638   1.329  52.987  1.00  0.00     0.045 A 
HETATM   29  F1  UNL     1      24.163  -0.729  53.954  1.00  0.00    -0.206 F 
ENDBRANCH  21  23
ENDBRANCH   1  21
TORSDOF 2
ENDMDL
MODEL 9
REMARK VINA RESULT:      -8.0      5.405      8.617
REMARK  2 active torsions:
REMARK  status: ('A' for Active; 'I' for Inactive)
REMARK    1  A    between atoms: C4_4  and  N1_5 
REMARK    2  A    between atoms: N1_5  and  C5_6 
ROOT
HETATM    1  C5  UNL     1      20.830   3.057  47.960  1.00  0.00     0.725 A 
HETATM    2  N2  UNL     1      19.949   2.160  48.436  1.00  0.00    -0.074 NA
HETATM    3  C6  UNL     1      20.223   1.400  49.523  1.00  0.00     0.151 A 
HETATM    4  C7  UNL     1      21.437   1.547  50.159  1.00  0.00     0.032 A 
HETATM    5  C8  UNL     1      22.330   2.470  49.660  1.00  0.00     0.175 A 
HETATM    6  N3  UNL     1      22.014   3.202  48.577  1.00  0.00    -0.043 NA
HETATM    7  N4  UNL     1      23.591   2.609  50.338  1.00  0.00    -0.278 N 
HETATM    8  C9  UNL     1      24.469   3.597  49.751  1.00  0.00     0.179 C 
HETATM    9  N5  UNL     1      23.842   1.816  51.450  1.00  0.00    -0.296 N 
HETATM   10  C10 UNL     1      22.964   0.849  52.012  1.00  0.00     0.061 A 
HETATM   11  C11 UNL     1      23.287   0.148  53.230  1.00  0.00     0.020 A 
HETATM   12  C12 UNL     1      22.400  -0.401  54.127  1.00  0.00    -0.048 A 
HETATM   13  C13 UNL     1      20.956  -0.178  54.024  1.00  0.00     0.049 C 
HETATM   14  C14 UNL     1      22.793  -1.165  55.231  1.00  0.00     0.007 A 
HETATM   15  C15 UNL     1      24.129  -1.400  55.465  1.00  0.00     0.002 A 
HETATM   16  C16 UNL     1      25.064  -0.857  54.576  1.00  0.00     0.025 A 
HETATM   17  C17 UNL     1      24.620  -0.100  53.485  1.00  0.00     0.047 A 
HETATM   18 CL1  UNL     1      26.051   0.348  52.588  1.00  0.00    -0.083 Cl
HETATM   19  C18 UNL     1      21.842   0.790  51.328  1.00  0.00     0.048 A 
HETATM   20  H11 UNL     1      24.774   2.089  51.797  1.00  0.00     0.187 HD
ENDROOT
BRANCH   1  21
HETATM   21  N1  UNL     1      20.504   3.836  46.816  1.00  0.00    -0.211 N 
HETATM   22  H6  UNL     1      19.576   4.310  46.757  1.00  0.00     0.178 HD
BRANCH  21  23
HETATM   23  C4  UNL     1      21.469   3.958  45.747  1.00  0.00     0.149 A 
HETATM   24  C3  UNL     1      22.046   5.325  45.674  1.00  0.00     0.012 A 
HETATM   25  C2  UNL     1      21.782   5.888  44.484  1.00  0.00    -0.025 A 
HETATM   26  C1  UNL     1      22.089   7.208  43.840  1.00  0.00     0.051 C 
HETATM   27  C20 UNL     1      21.008   4.929  43.678  1.00  0.00     0.120 A 
HETATM   28  C19 UNL     1      20.841   3.840  44.412  1.00  0.00     0.045 A 
HETATM   29  F1  UNL     1      20.496   4.993  42.425  1.00  0.00    -0.206 F 
ENDBRANCH  21  23
ENDBRANCH   1  21
TORSDOF 2
ENDMDL
