MODEL 1
REMARK VINA RESULT:      -8.1      0.000      0.000
REMARK  2 active torsions:
REMARK  status: ('A' for Active; 'I' for Inactive)
REMARK    1  A    between atoms: N1_3  and  C3_4 
REMARK    2  A    between atoms: C9_12  and  C10_13 
REMARK       I    between atoms: C10_13  and  N4_14 
ROOT
HETATM    1  C1  UNL     1      22.107   1.769  48.071  1.00  0.00     0.037 C 
HETATM    2  C2  UNL     1      21.767   1.571  49.222  1.00  0.00     0.015 C 
HETATM    3  N1  UNL     1      21.401   1.339  50.553  1.00  0.00    -0.146 N 
HETATM    4  H2  UNL     1      20.409   1.527  50.775  1.00  0.00     0.195 HD
ENDROOT
BRANCH   3   5
HETATM    5  C3  UNL     1      22.316   0.884  51.507  1.00  0.00     0.734 A 
HETATM    6  N2  UNL     1      21.958  -0.038  52.418  1.00  0.00    -0.074 NA
HETATM    7  C4  UNL     1      22.809  -0.510  53.362  1.00  0.00     0.146 A 
HETATM    8  C5  UNL     1      24.103  -0.013  53.380  1.00  0.00    -0.008 A 
HETATM    9  C6  UNL     1      24.429   0.921  52.440  1.00  0.00     0.112 A 
HETATM   10  C13 UNL     1      24.974  -0.559  54.420  1.00  0.00     0.047 A 
HETATM   11  N3  UNL     1      23.563   1.371  51.515  1.00  0.00    -0.059 NA
HETATM   12  C7  UNL     1      25.793   1.444  52.460  1.00  0.00     0.091 A 
HETATM   13  C8  UNL     1      26.666   0.970  53.418  1.00  0.00     0.009 A 
HETATM   14  N6  UNL     1      26.386   2.348  51.679  1.00  0.00    -0.271 N 
HETATM   15  C9  UNL     1      27.831   1.634  53.181  1.00  0.00     0.147 A 
HETATM   16  C12 UNL     1      26.366  -0.033  54.449  1.00  0.00     0.048 A 
HETATM   17  N5  UNL     1      27.630   2.460  52.123  1.00  0.00    -0.167 NA
HETATM   18  C11 UNL     1      25.766   3.060  50.562  1.00  0.00     0.180 C 
BRANCH  15  19
HETATM   19  C10 UNL     1      29.096   1.500  53.921  1.00  0.00     0.249 C 
HETATM   20  N4  UNL     1      30.019   0.477  53.566  1.00  0.00    -0.267 NA
HETATM   21  H4  UNL     1      30.023  -0.493  54.002  1.00  0.00     0.127 HD
HETATM   22  H5  UNL     1      30.057  -0.502  53.976  1.00  0.00     0.127 HD
HETATM   23  O1  UNL     1      29.327   2.305  54.857  1.00  0.00    -0.272 OA
ENDBRANCH  15  19
ENDBRANCH   3   5
TORSDOF 2
ENDMDL
MODEL 2
REMARK VINA RESULT:      -8.0      1.704      3.286
REMARK  2 active torsions:
REMARK  status: ('A' for Active; 'I' for Inactive)
REMARK    1  A    between atoms: N1_3  and  C3_4 
REMARK    2  A    between atoms: C9_12  and  C10_13 
REMARK       I    between atoms: C10_13  and  N4_14 
ROOT
HETATM    1  C1  UNL     1      20.864  -1.682  54.469  1.00  0.00     0.037 C 
HETATM    2  C2  UNL     1      20.978  -0.927  53.522  1.00  0.00     0.015 C 
HETATM    3  N1  UNL     1      21.133  -0.057  52.436  1.00  0.00    -0.146 N 
HETATM    4  H2  UNL     1      20.287   0.082  51.860  1.00  0.00     0.195 HD
ENDROOT
BRANCH   3   5
HETATM    5  C3  UNL     1      22.349   0.575  52.159  1.00  0.00     0.734 A 
HETATM    6  N2  UNL     1      22.458   1.435  51.132  1.00  0.00    -0.074 NA
HETATM    7  C4  UNL     1      23.614   2.071  50.824  1.00  0.00     0.146 A 
HETATM    8  C5  UNL     1      24.728   1.818  51.609  1.00  0.00    -0.008 A 
HETATM    9  C6  UNL     1      24.579   0.939  52.643  1.00  0.00     0.112 A 
HETATM   10  C13 UNL     1      25.945   2.534  51.228  1.00  0.00     0.047 A 
HETATM   11  N3  UNL     1      23.418   0.321  52.925  1.00  0.00    -0.059 NA
HETATM   12  C7  UNL     1      25.752   0.672  53.470  1.00  0.00     0.091 A 
HETATM   13  C8  UNL     1      26.935   1.316  53.164  1.00  0.00     0.009 A 
HETATM   14  N6  UNL     1      25.904  -0.124  54.529  1.00  0.00    -0.271 N 
HETATM   15  C9  UNL     1      27.822   0.869  54.095  1.00  0.00     0.147 A 
HETATM   16  C12 UNL     1      27.147   2.268  52.065  1.00  0.00     0.048 A 
HETATM   17  N5  UNL     1      27.168  -0.001  54.906  1.00  0.00    -0.167 NA
HETATM   18  C11 UNL     1      24.866  -0.959  55.133  1.00  0.00     0.180 C 
BRANCH  15  19
HETATM   19  C10 UNL     1      29.239   1.244  54.224  1.00  0.00     0.249 C 
HETATM   20  N4  UNL     1      30.232   0.510  53.519  1.00  0.00    -0.267 NA
HETATM   21  H4  UNL     1      30.742  -0.333  53.921  1.00  0.00     0.127 HD
HETATM   22  H5  UNL     1      30.763  -0.335  53.883  1.00  0.00     0.127 HD
HETATM   23  O1  UNL     1      29.534   2.217  54.962  1.00  0.00    -0.272 OA
ENDBRANCH  15  19
ENDBRANCH   3   5
TORSDOF 2
ENDMDL
MODEL 3
REMARK VINA RESULT:      -7.9      2.822      5.914
REMARK  2 active torsions:
REMARK  status: ('A' for Active; 'I' for Inactive)
REMARK    1  A    between atoms: N1_3  and  C3_4 
REMARK    2  A    between atoms: C9_12  and  C10_13 
REMARK       I    between atoms: C10_13  and  N4_14 
ROOT
HETATM    1  C1  UNL     1      29.874  -0.567  53.826  1.00  0.00     0.037 C 
HETATM    2  C2  UNL     1      28.919  -0.028  54.353  1.00  0.00     0.015 C 
HETATM    3  N1  UNL     1      27.804   0.576  54.946  1.00  0.00    -0.146 N 
HETATM    4  H2  UNL     1      28.019   1.257  55.694  1.00  0.00     0.195 HD
ENDROOT
BRANCH   3   5
HETATM    5  C3  UNL     1      26.498   0.276  54.550  1.00  0.00     0.734 A 
HETATM    6  N2  UNL     1      25.770  -0.636  55.218  1.00  0.00    -0.074 NA
HETATM    7  C4  UNL     1      24.500  -0.961  54.872  1.00  0.00     0.146 A 
HETATM    8  C5  UNL     1      23.936  -0.319  53.781  1.00  0.00    -0.008 A 
HETATM    9  C6  UNL     1      24.706   0.600  53.128  1.00  0.00     0.112 A 
HETATM   10  C13 UNL     1      22.565  -0.711  53.457  1.00  0.00     0.047 A 
HETATM   11  N3  UNL     1      25.964   0.903  53.494  1.00  0.00    -0.059 NA
HETATM   12  C7  UNL     1      24.111   1.277  51.979  1.00  0.00     0.091 A 
HETATM   13  C8  UNL     1      22.818   0.952  51.619  1.00  0.00     0.009 A 
HETATM   14  N6  UNL     1      24.614   2.204  51.163  1.00  0.00    -0.271 N 
HETATM   15  C9  UNL     1      22.556   1.733  50.535  1.00  0.00     0.147 A 
HETATM   16  C12 UNL     1      21.950  -0.028  52.286  1.00  0.00     0.048 A 
HETATM   17  N5  UNL     1      23.661   2.479  50.284  1.00  0.00    -0.167 NA
HETATM   18  C11 UNL     1      25.954   2.785  51.243  1.00  0.00     0.180 C 
BRANCH  15  19
HETATM   19  C10 UNL     1      21.307   1.781  49.757  1.00  0.00     0.249 C 
HETATM   20  N4  UNL     1      21.167   0.975  48.594  1.00  0.00    -0.267 NA
HETATM   21  H4  UNL     1      21.424   1.299  47.614  1.00  0.00     0.127 HD
HETATM   22  H5  UNL     1      21.411   1.260  47.600  1.00  0.00     0.127 HD
HETATM   23  O1  UNL     1      20.390   2.544  50.149  1.00  0.00    -0.272 OA
ENDBRANCH  15  19
ENDBRANCH   3   5
TORSDOF 2
ENDMDL
MODEL 4
REMARK VINA RESULT:      -7.8      2.392      3.573
REMARK  2 active torsions:
REMARK  status: ('A' for Active; 'I' for Inactive)
REMARK    1  A    between atoms: N1_3  and  C3_4 
REMARK    2  A    between atoms: C9_12  and  C10_13 
REMARK       I    between atoms: C10_13  and  N4_14 
ROOT
HETATM    1  C1  UNL     1      17.680  -2.852  53.652  1.00  0.00     0.037 C 
HETATM    2  C2  UNL     1      18.375  -1.854  53.615  1.00  0.00     0.015 C 
HETATM    3  N1  UNL     1      19.195  -0.720  53.576  1.00  0.00    -0.146 N 
HETATM    4  H2  UNL     1      18.719   0.158  53.311  1.00  0.00     0.195 HD
ENDROOT
BRANCH   3   5
HETATM    5  C3  UNL     1      20.559  -0.780  53.877  1.00  0.00     0.734 A 
HETATM    6  N2  UNL     1      21.046  -1.752  54.667  1.00  0.00    -0.074 NA
HETATM    7  C4  UNL     1      22.360  -1.852  54.987  1.00  0.00     0.146 A 
HETATM    8  C5  UNL     1      23.231  -0.904  54.473  1.00  0.00    -0.008 A 
HETATM    9  C6  UNL     1      22.699   0.068  53.676  1.00  0.00     0.112 A 
HETATM   10  C13 UNL     1      24.634  -1.064  54.853  1.00  0.00     0.047 A 
HETATM   11  N3  UNL     1      21.390   0.142  53.375  1.00  0.00    -0.059 NA
HETATM   12  C7  UNL     1      23.617   1.066  53.134  1.00  0.00     0.091 A 
HETATM   13  C8  UNL     1      24.956   0.973  53.455  1.00  0.00     0.009 A 
HETATM   14  N6  UNL     1      23.388   2.113  52.340  1.00  0.00    -0.271 N 
HETATM   15  C9  UNL     1      25.538   2.023  52.812  1.00  0.00     0.147 A 
HETATM   16  C12 UNL     1      25.577  -0.051  54.306  1.00  0.00     0.048 A 
HETATM   17  N5  UNL     1      24.564   2.694  52.147  1.00  0.00    -0.167 NA
HETATM   18  C11 UNL     1      22.090   2.519  51.803  1.00  0.00     0.180 C 
BRANCH  15  19
HETATM   19  C10 UNL     1      26.964   2.389  52.820  1.00  0.00     0.249 C 
HETATM   20  N4  UNL     1      27.599   2.735  54.045  1.00  0.00    -0.267 NA
HETATM   21  H4  UNL     1      27.663   3.729  54.418  1.00  0.00     0.127 HD
HETATM   22  H5  UNL     1      27.684   3.712  54.453  1.00  0.00     0.127 HD
HETATM   23  O1  UNL     1      27.586   2.385  51.730  1.00  0.00    -0.272 OA
ENDBRANCH  15  19
ENDBRANCH   3   5
TORSDOF 2
ENDMDL
MODEL 5
REMARK VINA RESULT:      -7.6      2.337      5.160
REMARK  2 active torsions:
REMARK  status: ('A' for Active; 'I' for Inactive)
REMARK    1  A    between atoms: N1_3  and  C3_4 
REMARK    2  A    between atoms: C9_12  and  C10_13 
REMARK       I    between atoms: C10_13  and  N4_14 
ROOT
HETATM    1  C1  UNL     1      24.811   4.933  49.094  1.00  0.00     0.037 C 
HETATM    2  C2  UNL     1      25.733   4.362  49.646  1.00  0.00     0.015 C 
HETATM    3  N1  UNL     1      26.777   3.690  50.293  1.00  0.00    -0.146 N 
HETATM    4  H2  UNL     1      27.727   3.953  49.983  1.00  0.00     0.195 HD
ENDROOT
BRANCH   3   5
HETATM    5  C3  UNL     1      26.542   2.735  51.286  1.00  0.00     0.734 A 
HETATM    6  N2  UNL     1      27.542   2.305  52.075  1.00  0.00    -0.074 NA
HETATM    7  C4  UNL     1      27.365   1.381  53.052  1.00  0.00     0.146 A 
HETATM    8  C5  UNL     1      26.092   0.864  53.236  1.00  0.00    -0.008 A 
HETATM    9  C6  UNL     1      25.103   1.324  52.416  1.00  0.00     0.112 A 
HETATM   10  C13 UNL     1      25.963  -0.128  54.304  1.00  0.00     0.047 A 
HETATM   11  N3  UNL     1      25.309   2.242  51.455  1.00  0.00    -0.059 NA
HETATM   12  C7  UNL     1      23.762   0.779  52.611  1.00  0.00     0.091 A 
HETATM   13  C8  UNL     1      23.572  -0.163  53.603  1.00  0.00     0.009 A 
HETATM   14  N6  UNL     1      22.621   1.036  51.972  1.00  0.00    -0.271 N 
HETATM   15  C9  UNL     1      22.247  -0.470  53.537  1.00  0.00     0.147 A 
HETATM   16  C12 UNL     1      24.600  -0.690  54.510  1.00  0.00     0.048 A 
HETATM   17  N5  UNL     1      21.699   0.271  52.540  1.00  0.00    -0.167 NA
HETATM   18  C11 UNL     1      22.446   1.977  50.867  1.00  0.00     0.180 C 
BRANCH  15  19
HETATM   19  C10 UNL     1      21.514  -1.428  54.380  1.00  0.00     0.249 C 
HETATM   20  N4  UNL     1      20.117  -1.615  54.188  1.00  0.00    -0.267 NA
HETATM   21  H4  UNL     1      19.370  -1.064  54.707  1.00  0.00     0.127 HD
HETATM   22  H5  UNL     1      19.341  -1.087  54.684  1.00  0.00     0.127 HD
HETATM   23  O1  UNL     1      22.153  -2.061  55.256  1.00  0.00    -0.272 OA
ENDBRANCH  15  19
ENDBRANCH   3   5
TORSDOF 2
ENDMDL
MODEL 6
REMARK VINA RESULT:      -7.5      2.121      2.668
REMARK  2 active torsions:
REMARK  status: ('A' for Active; 'I' for Inactive)
REMARK    1  A    between atoms: N1_3  and  C3_4 
REMARK    2  A    between atoms: C9_12  and  C10_13 
REMARK       I    between atoms: C10_13  and  N4_14 
ROOT
HETATM    1  C1  UNL     1      17.283  -0.461  51.452  1.00  0.00     0.037 C 
HETATM    2  C2  UNL     1      18.342   0.110  51.631  1.00  0.00     0.015 C 
HETATM    3  N1  UNL     1      19.569   0.747  51.852  1.00  0.00    -0.146 N 
HETATM    4  H2  UNL     1      19.704   1.632  51.335  1.00  0.00     0.195 HD
ENDROOT
BRANCH   3   5
HETATM    5  C3  UNL     1      20.537   0.219  52.712  1.00  0.00     0.734 A 
HETATM    6  N2  UNL     1      20.188  -0.612  53.710  1.00  0.00    -0.074 NA
HETATM    7  C4  UNL     1      21.089  -1.149  54.568  1.00  0.00     0.146 A 
HETATM    8  C5  UNL     1      22.426  -0.822  54.401  1.00  0.00    -0.008 A 
HETATM    9  C6  UNL     1      22.740   0.024  53.378  1.00  0.00     0.112 A 
HETATM   10  C13 UNL     1      23.349  -1.432  55.357  1.00  0.00     0.047 A 
HETATM   11  N3  UNL     1      21.824   0.543  52.540  1.00  0.00    -0.059 NA
HETATM   12  C7  UNL     1      24.148   0.369  53.202  1.00  0.00     0.091 A 
HETATM   13  C8  UNL     1      25.073  -0.174  54.072  1.00  0.00     0.009 A 
HETATM   14  N6  UNL     1      24.743   1.157  52.305  1.00  0.00    -0.271 N 
HETATM   15  C9  UNL     1      26.270   0.326  53.658  1.00  0.00     0.147 A 
HETATM   16  C12 UNL     1      24.787  -1.087  55.187  1.00  0.00     0.048 A 
HETATM   17  N5  UNL     1      26.037   1.128  52.589  1.00  0.00    -0.167 NA
HETATM   18  C11 UNL     1      24.077   1.896  51.234  1.00  0.00     0.180 C 
BRANCH  15  19
HETATM   19  C10 UNL     1      27.593   0.063  54.246  1.00  0.00     0.249 C 
HETATM   20  N4  UNL     1      28.320  -1.099  53.862  1.00  0.00    -0.267 NA
HETATM   21  H4  UNL     1      28.254  -2.032  54.369  1.00  0.00     0.127 HD
HETATM   22  H5  UNL     1      28.283  -2.047  54.340  1.00  0.00     0.127 HD
HETATM   23  O1  UNL     1      28.050   0.883  55.080  1.00  0.00    -0.272 OA
ENDBRANCH  15  19
ENDBRANCH   3   5
TORSDOF 2
ENDMDL
MODEL 7
REMARK VINA RESULT:      -7.4      2.405      4.216
REMARK  2 active torsions:
REMARK  status: ('A' for Active; 'I' for Inactive)
REMARK    1  A    between atoms: N1_3  and  C3_4 
REMARK    2  A    between atoms: C9_12  and  C10_13 
REMARK       I    between atoms: C10_13  and  N4_14 
ROOT
HETATM    1  C1  UNL     1      18.001  -2.237  53.510  1.00  0.00     0.037 C 
HETATM    2  C2  UNL     1      18.227  -1.264  52.816  1.00  0.00     0.015 C 
HETATM    3  N1  UNL     1      18.512  -0.148  52.020  1.00  0.00    -0.146 N 
HETATM    4  H2  UNL     1      17.689   0.308  51.592  1.00  0.00     0.195 HD
ENDROOT
BRANCH   3   5
HETATM    5  C3  UNL     1      19.818   0.310  51.823  1.00  0.00     0.734 A 
HETATM    6  N2  UNL     1      20.106   1.154  50.817  1.00  0.00    -0.074 NA
HETATM    7  C4  UNL     1      21.356   1.625  50.586  1.00  0.00     0.146 A 
HETATM    8  C5  UNL     1      22.375   1.213  51.431  1.00  0.00    -0.008 A 
HETATM    9  C6  UNL     1      22.044   0.357  52.440  1.00  0.00     0.112 A 
HETATM   10  C13 UNL     1      23.700   1.755  51.132  1.00  0.00     0.047 A 
HETATM   11  N3  UNL     1      20.794  -0.095  52.646  1.00  0.00    -0.059 NA
HETATM   12  C7  UNL     1      23.118  -0.077  53.330  1.00  0.00     0.091 A 
HETATM   13  C8  UNL     1      24.394   0.398  53.102  1.00  0.00     0.009 A 
HETATM   14  N6  UNL     1      23.094  -0.895  54.383  1.00  0.00    -0.271 N 
HETATM   15  C9  UNL     1      25.154  -0.175  54.077  1.00  0.00     0.147 A 
HETATM   16  C12 UNL     1      24.802   1.318  52.033  1.00  0.00     0.048 A 
HETATM   17  N5  UNL     1      24.339  -0.951  54.835  1.00  0.00    -0.167 NA
HETATM   18  C11 UNL     1      21.917  -1.581  54.914  1.00  0.00     0.180 C 
BRANCH  15  19
HETATM   19  C10 UNL     1      26.599  -0.002  54.293  1.00  0.00     0.249 C 
HETATM   20  N4  UNL     1      27.514  -0.948  53.751  1.00  0.00    -0.267 NA
HETATM   21  H4  UNL     1      27.855  -1.808  54.275  1.00  0.00     0.127 HD
HETATM   22  H5  UNL     1      27.878  -1.817  54.239  1.00  0.00     0.127 HD
HETATM   23  O1  UNL     1      26.988   0.989  54.958  1.00  0.00    -0.272 OA
ENDBRANCH  15  19
ENDBRANCH   3   5
TORSDOF 2
ENDMDL
MODEL 8
REMARK VINA RESULT:      -7.2      2.355      2.737
REMARK  2 active torsions:
REMARK  status: ('A' for Active; 'I' for Inactive)
REMARK    1  A    between atoms: N1_3  and  C3_4 
REMARK    2  A    between atoms: C9_12  and  C10_13 
REMARK       I    between atoms: C10_13  and  N4_14 
ROOT
HETATM    1  C1  UNL     1      21.903   6.097  51.013  1.00  0.00     0.037 C 
HETATM    2  C2  UNL     1      21.231   5.102  51.209  1.00  0.00     0.015 C 
HETATM    3  N1  UNL     1      20.475   3.948  51.448  1.00  0.00    -0.146 N 
HETATM    4  H2  UNL     1      19.501   3.982  51.107  1.00  0.00     0.195 HD
ENDROOT
BRANCH   3   5
HETATM    5  C3  UNL     1      21.010   2.833  52.102  1.00  0.00     0.734 A 
HETATM    6  N2  UNL     1      20.219   2.006  52.807  1.00  0.00    -0.074 NA
HETATM    7  C4  UNL     1      20.689   0.914  53.457  1.00  0.00     0.146 A 
HETATM    8  C5  UNL     1      22.048   0.646  53.385  1.00  0.00    -0.008 A 
HETATM    9  C6  UNL     1      22.818   1.508  52.660  1.00  0.00     0.112 A 
HETATM   10  C13 UNL     1      22.495  -0.545  54.106  1.00  0.00     0.047 A 
HETATM   11  N3  UNL     1      22.323   2.585  52.024  1.00  0.00    -0.059 NA
HETATM   12  C7  UNL     1      24.249   1.226  52.583  1.00  0.00     0.091 A 
HETATM   13  C8  UNL     1      24.737   0.115  53.243  1.00  0.00     0.009 A 
HETATM   14  N6  UNL     1      25.229   1.879  51.959  1.00  0.00    -0.271 N 
HETATM   15  C9  UNL     1      26.075   0.124  52.988  1.00  0.00     0.147 A 
HETATM   16  C12 UNL     1      23.952  -0.841  54.034  1.00  0.00     0.048 A 
HETATM   17  N5  UNL     1      26.341   1.203  52.209  1.00  0.00    -0.167 NA
HETATM   18  C11 UNL     1      25.082   3.098  51.164  1.00  0.00     0.180 C 
BRANCH  15  19
HETATM   19  C10 UNL     1      27.075  -0.848  53.458  1.00  0.00     0.249 C 
HETATM   20  N4  UNL     1      27.167  -2.125  52.837  1.00  0.00    -0.267 NA
HETATM   21  H4  UNL     1      26.634  -2.984  53.168  1.00  0.00     0.127 HD
HETATM   22  H5  UNL     1      26.654  -3.005  53.134  1.00  0.00     0.127 HD
HETATM   23  O1  UNL     1      27.828  -0.517  54.406  1.00  0.00    -0.272 OA
ENDBRANCH  15  19
ENDBRANCH   3   5
TORSDOF 2
ENDMDL
MODEL 9
REMARK VINA RESULT:      -7.2      2.434      3.473
REMARK  2 active torsions:
REMARK  status: ('A' for Active; 'I' for Inactive)
REMARK    1  A    between atoms: N1_3  and  C3_4 
REMARK    2  A    between atoms: C9_12  and  C10_13 
REMARK       I    between atoms: C10_13  and  N4_14 
ROOT
HETATM    1  C1  UNL     1      18.952   3.061  49.207  1.00  0.00     0.037 C 
HETATM    2  C2  UNL     1      18.646   2.040  49.794  1.00  0.00     0.015 C 
HETATM    3  N1  UNL     1      18.312   0.869  50.484  1.00  0.00    -0.146 N 
HETATM    4  H2  UNL     1      17.429   0.420  50.189  1.00  0.00     0.195 HD
ENDROOT
BRANCH   3   5
HETATM    5  C3  UNL     1      19.121   0.350  51.500  1.00  0.00     0.734 A 
HETATM    6  N2  UNL     1      18.598  -0.420  52.469  1.00  0.00    -0.074 NA
HETATM    7  C4  UNL     1      19.340  -0.946  53.474  1.00  0.00     0.146 A 
HETATM    8  C5  UNL     1      20.699  -0.672  53.492  1.00  0.00    -0.008 A 
HETATM    9  C6  UNL     1      21.194   0.113  52.492  1.00  0.00     0.112 A 
HETATM   10  C13 UNL     1      21.448  -1.267  54.600  1.00  0.00     0.047 A 
HETATM   11  N3  UNL     1      20.432   0.622  51.507  1.00  0.00    -0.059 NA
HETATM   12  C7  UNL     1      22.626   0.401  52.512  1.00  0.00     0.091 A 
HETATM   13  C8  UNL     1      23.390  -0.130  53.532  1.00  0.00     0.009 A 
HETATM   14  N6  UNL     1      23.376   1.125  51.681  1.00  0.00    -0.271 N 
HETATM   15  C9  UNL     1      24.654   0.309  53.279  1.00  0.00     0.147 A 
HETATM   16  C12 UNL     1      22.908  -0.979  54.629  1.00  0.00     0.048 A 
HETATM   17  N5  UNL     1      24.613   1.066  52.153  1.00  0.00    -0.167 NA
HETATM   18  C11 UNL     1      22.904   1.834  50.492  1.00  0.00     0.180 C 
BRANCH  15  19
HETATM   19  C10 UNL     1      25.866   0.029  54.066  1.00  0.00     0.249 C 
HETATM   20  N4  UNL     1      26.484   1.073  54.809  1.00  0.00    -0.267 NA
HETATM   21  H4  UNL     1      27.255   1.696  54.425  1.00  0.00     0.127 HD
HETATM   22  H5  UNL     1      27.255   1.716  54.463  1.00  0.00     0.127 HD
HETATM   23  O1  UNL     1      26.324  -1.140  54.060  1.00  0.00    -0.272 OA
ENDBRANCH  15  19
ENDBRANCH   3   5
TORSDOF 2
ENDMDL
