MODEL 1
REMARK VINA RESULT:      -8.4      0.000      0.000
REMARK  2 active torsions:
REMARK  status: ('A' for Active; 'I' for Inactive)
REMARK       I    between atoms: C2_2  and  N1_4 
REMARK    1  A    between atoms: N1_4  and  C3_5 
REMARK    2  A    between atoms: C8_12  and  N4_13 
ROOT
HETATM    1  C3  UNL     1      24.798   3.465  50.776  1.00  0.00     0.035 A 
HETATM    2  C4  UNL     1      23.547   3.150  50.242  1.00  0.00     0.032 A 
HETATM    3  C5  UNL     1      22.857   2.061  50.779  1.00  0.00     0.035 A 
HETATM    4  C6  UNL     1      23.391   1.310  51.812  1.00  0.00     0.072 A 
HETATM    5  N2  UNL     1      22.741   0.269  52.331  1.00  0.00    -0.241 NA
HETATM    6  C7  UNL     1      23.276  -0.447  53.334  1.00  0.00     0.236 A 
HETATM    7  N3  UNL     1      24.482  -0.126  53.834  1.00  0.00    -0.224 NA
HETATM    8  C8  UNL     1      25.213   0.924  53.359  1.00  0.00     0.140 A 
HETATM    9  C14 UNL     1      24.628   1.633  52.331  1.00  0.00     0.041 A 
HETATM   10  C15 UNL     1      25.296   2.694  51.805  1.00  0.00     0.047 A 
ENDROOT
BRANCH   8  11
HETATM   11  N4  UNL     1      26.490   1.226  53.923  1.00  0.00    -0.360 N 
HETATM   12  C9  UNL     1      27.442   2.324  53.781  1.00  0.00     0.154 C 
HETATM   13  C10 UNL     1      28.819   1.820  53.539  1.00  0.00     0.032 C 
HETATM   14  C11 UNL     1      29.131   0.543  53.737  1.00  0.00     0.111 C 
HETATM   15  F1  UNL     1      30.403   0.115  53.506  1.00  0.00    -0.209 F 
HETATM   16  C12 UNL     1      28.170  -0.500  54.208  1.00  0.00     0.162 C 
HETATM   17 CL1  UNL     1      27.653  -1.431  52.795  1.00  0.00    -0.116 Cl
HETATM   18  C13 UNL     1      27.013   0.251  54.860  1.00  0.00     0.152 C 
ENDBRANCH   8  11
BRANCH   1  19
HETATM   19  N1  UNL     1      25.535   4.577  50.248  1.00  0.00    -0.327 N 
HETATM   20  C2  UNL     1      26.579   4.171  49.368  1.00  0.00     0.218 C 
HETATM   21  C1  UNL     1      27.445   5.199  48.729  1.00  0.00     0.117 C 
HETATM   22  O1  UNL     1      26.633   2.903  49.239  1.00  0.00    -0.274 OA
HETATM   23  H4  UNL     1      25.349   5.580  50.467  1.00  0.00     0.169 HD
ENDBRANCH   1  19
TORSDOF 2
ENDMDL
MODEL 2
REMARK VINA RESULT:      -8.2      3.092      5.302
REMARK  2 active torsions:
REMARK  status: ('A' for Active; 'I' for Inactive)
REMARK       I    between atoms: C2_2  and  N1_4 
REMARK    1  A    between atoms: N1_4  and  C3_5 
REMARK    2  A    between atoms: C8_12  and  N4_13 
ROOT
HETATM    1  C3  UNL     1      25.490   0.673  52.633  1.00  0.00     0.035 A 
HETATM    2  C4  UNL     1      25.030  -0.385  53.419  1.00  0.00     0.032 A 
HETATM    3  C5  UNL     1      23.657  -0.643  53.438  1.00  0.00     0.035 A 
HETATM    4  C6  UNL     1      22.771   0.124  52.702  1.00  0.00     0.072 A 
HETATM    5  N2  UNL     1      21.460  -0.114  52.714  1.00  0.00    -0.241 NA
HETATM    6  C7  UNL     1      20.617   0.642  51.992  1.00  0.00     0.236 A 
HETATM    7  N3  UNL     1      21.080   1.656  51.241  1.00  0.00    -0.224 NA
HETATM    8  C8  UNL     1      22.407   1.966  51.174  1.00  0.00     0.140 A 
HETATM    9  C14 UNL     1      23.240   1.166  51.929  1.00  0.00     0.041 A 
HETATM   10  C15 UNL     1      24.577   1.414  51.913  1.00  0.00     0.047 A 
ENDROOT
BRANCH   8  11
HETATM   11  N4  UNL     1      22.852   3.053  50.361  1.00  0.00    -0.360 N 
HETATM   12  C9  UNL     1      23.851   3.206  49.307  1.00  0.00     0.154 C 
HETATM   13  C10 UNL     1      24.723   4.385  49.553  1.00  0.00     0.032 C 
HETATM   14  C11 UNL     1      24.400   5.306  50.456  1.00  0.00     0.111 C 
HETATM   15  F1  UNL     1      25.222   6.373  50.655  1.00  0.00    -0.209 F 
HETATM   16  C12 UNL     1      23.168   5.267  51.300  1.00  0.00     0.162 C 
HETATM   17 CL1  UNL     1      23.632   4.674  52.901  1.00  0.00    -0.116 Cl
HETATM   18  C13 UNL     1      22.197   4.325  50.594  1.00  0.00     0.152 C 
ENDBRANCH   8  11
BRANCH   1  19
HETATM   19  N1  UNL     1      26.894   0.966  52.590  1.00  0.00    -0.327 N 
HETATM   20  C2  UNL     1      27.275   1.948  53.549  1.00  0.00     0.218 C 
HETATM   21  C1  UNL     1      28.699   2.373  53.641  1.00  0.00     0.117 C 
HETATM   22  O1  UNL     1      26.283   2.356  54.241  1.00  0.00    -0.274 OA
HETATM   23  H4  UNL     1      27.580   0.525  51.940  1.00  0.00     0.169 HD
ENDBRANCH   1  19
TORSDOF 2
ENDMDL
MODEL 3
REMARK VINA RESULT:      -7.7      3.229      5.464
REMARK  2 active torsions:
REMARK  status: ('A' for Active; 'I' for Inactive)
REMARK       I    between atoms: C2_2  and  N1_4 
REMARK    1  A    between atoms: N1_4  and  C3_5 
REMARK    2  A    between atoms: C8_12  and  N4_13 
ROOT
HETATM    1  C3  UNL     1      25.834   0.583  54.047  1.00  0.00     0.035 A 
HETATM    2  C4  UNL     1      25.178  -0.569  54.483  1.00  0.00     0.032 A 
HETATM    3  C5  UNL     1      23.846  -0.752  54.103  1.00  0.00     0.035 A 
HETATM    4  C6  UNL     1      23.188   0.177  53.316  1.00  0.00     0.072 A 
HETATM    5  N2  UNL     1      21.918   0.012  52.949  1.00  0.00    -0.241 NA
HETATM    6  C7  UNL     1      21.298   0.925  52.184  1.00  0.00     0.236 A 
HETATM    7  N3  UNL     1      21.948   2.028  51.774  1.00  0.00    -0.224 NA
HETATM    8  C8  UNL     1      23.249   2.273  52.106  1.00  0.00     0.140 A 
HETATM    9  C14 UNL     1      23.850   1.311  52.891  1.00  0.00     0.041 A 
HETATM   10  C15 UNL     1      25.146   1.486  53.263  1.00  0.00     0.047 A 
ENDROOT
BRANCH   8  11
HETATM   11  N4  UNL     1      23.898   3.460  51.646  1.00  0.00    -0.360 N 
HETATM   12  C9  UNL     1      23.732   4.888  51.905  1.00  0.00     0.154 C 
HETATM   13  C10 UNL     1      23.678   5.665  50.640  1.00  0.00     0.032 C 
HETATM   14  C11 UNL     1      24.040   5.123  49.480  1.00  0.00     0.111 C 
HETATM   15  F1  UNL     1      23.979   5.864  48.340  1.00  0.00    -0.209 F 
HETATM   16  C12 UNL     1      24.524   3.719  49.318  1.00  0.00     0.162 C 
HETATM   17 CL1  UNL     1      23.176   2.753  48.703  1.00  0.00    -0.116 Cl
HETATM   18  C13 UNL     1      24.979   3.262  50.701  1.00  0.00     0.152 C 
ENDBRANCH   8  11
BRANCH   1  19
HETATM   19  N1  UNL     1      27.202   0.804  54.418  1.00  0.00    -0.327 N 
HETATM   20  C2  UNL     1      28.117   0.174  53.527  1.00  0.00     0.218 C 
HETATM   21  C1  UNL     1      29.581   0.301  53.764  1.00  0.00     0.117 C 
HETATM   22  O1  UNL     1      27.521  -0.453  52.589  1.00  0.00    -0.274 OA
HETATM   23  H4  UNL     1      27.519   1.360  55.242  1.00  0.00     0.169 HD
ENDBRANCH   1  19
TORSDOF 2
ENDMDL
MODEL 4
REMARK VINA RESULT:      -7.6      3.627      5.874
REMARK  2 active torsions:
REMARK  status: ('A' for Active; 'I' for Inactive)
REMARK       I    between atoms: C2_2  and  N1_4 
REMARK    1  A    between atoms: N1_4  and  C3_5 
REMARK    2  A    between atoms: C8_12  and  N4_13 
ROOT
HETATM    1  C3  UNL     1      26.122   0.962  52.267  1.00  0.00     0.035 A 
HETATM    2  C4  UNL     1      26.539   1.865  51.289  1.00  0.00     0.032 A 
HETATM    3  C5  UNL     1      25.577   2.689  50.700  1.00  0.00     0.035 A 
HETATM    4  C6  UNL     1      24.246   2.619  51.071  1.00  0.00     0.072 A 
HETATM    5  N2  UNL     1      23.321   3.400  50.515  1.00  0.00    -0.241 NA
HETATM    6  C7  UNL     1      22.034   3.316  50.890  1.00  0.00     0.236 A 
HETATM    7  N3  UNL     1      21.653   2.440  51.835  1.00  0.00    -0.224 NA
HETATM    8  C8  UNL     1      22.536   1.604  52.452  1.00  0.00     0.140 A 
HETATM    9  C14 UNL     1      23.848   1.721  52.040  1.00  0.00     0.041 A 
HETATM   10  C15 UNL     1      24.787   0.921  52.611  1.00  0.00     0.047 A 
ENDROOT
BRANCH   8  11
HETATM   11  N4  UNL     1      22.084   0.689  53.452  1.00  0.00    -0.360 N 
HETATM   12  C9  UNL     1      22.628  -0.525  54.055  1.00  0.00     0.154 C 
HETATM   13  C10 UNL     1      21.623  -1.621  54.068  1.00  0.00     0.032 C 
HETATM   14  C11 UNL     1      20.337  -1.380  53.830  1.00  0.00     0.111 C 
HETATM   15  F1  UNL     1      19.444  -2.408  53.850  1.00  0.00    -0.209 F 
HETATM   16  C12 UNL     1      19.769  -0.031  53.531  1.00  0.00     0.162 C 
HETATM   17 CL1  UNL     1      19.531   0.077  51.781  1.00  0.00    -0.116 Cl
HETATM   18  C13 UNL     1      20.791   0.983  54.038  1.00  0.00     0.152 C 
ENDBRANCH   8  11
BRANCH   1  19
HETATM   19  N1  UNL     1      27.083   0.100  52.893  1.00  0.00    -0.327 N 
HETATM   20  C2  UNL     1      27.718   0.712  54.011  1.00  0.00     0.218 C 
HETATM   21  C1  UNL     1      28.746  -0.043  54.780  1.00  0.00     0.117 C 
HETATM   22  O1  UNL     1      27.295   1.899  54.215  1.00  0.00    -0.274 OA
HETATM   23  H4  UNL     1      27.311  -0.871  52.585  1.00  0.00     0.169 HD
ENDBRANCH   1  19
TORSDOF 2
ENDMDL
MODEL 5
REMARK VINA RESULT:      -7.6      3.534      5.780
REMARK  2 active torsions:
REMARK  status: ('A' for Active; 'I' for Inactive)
REMARK       I    between atoms: C2_2  and  N1_4 
REMARK    1  A    between atoms: N1_4  and  C3_5 
REMARK    2  A    between atoms: C8_12  and  N4_13 
ROOT
HETATM    1  C3  UNL     1      25.761  -0.053  54.449  1.00  0.00     0.035 A 
HETATM    2  C4  UNL     1      25.305  -0.930  55.435  1.00  0.00     0.032 A 
HETATM    3  C5  UNL     1      23.960  -1.309  55.408  1.00  0.00     0.035 A 
HETATM    4  C6  UNL     1      23.099  -0.834  54.435  1.00  0.00     0.072 A 
HETATM    5  N2  UNL     1      21.815  -1.189  54.402  1.00  0.00    -0.241 NA
HETATM    6  C7  UNL     1      20.995  -0.717  53.448  1.00  0.00     0.236 A 
HETATM    7  N3  UNL     1      21.455   0.126  52.507  1.00  0.00    -0.224 NA
HETATM    8  C8  UNL     1      22.754   0.539  52.471  1.00  0.00     0.140 A 
HETATM    9  C14 UNL     1      23.564   0.031  53.466  1.00  0.00     0.041 A 
HETATM   10  C15 UNL     1      24.873   0.398  53.496  1.00  0.00     0.047 A 
ENDROOT
BRANCH   8  11
HETATM   11  N4  UNL     1      23.196   1.435  51.451  1.00  0.00    -0.360 N 
HETATM   12  C9  UNL     1      24.467   2.081  51.130  1.00  0.00     0.154 C 
HETATM   13  C10 UNL     1      24.289   3.538  50.893  1.00  0.00     0.032 C 
HETATM   14  C11 UNL     1      23.082   4.066  50.712  1.00  0.00     0.111 C 
HETATM   15  F1  UNL     1      22.956   5.404  50.496  1.00  0.00    -0.209 F 
HETATM   16  C12 UNL     1      21.807   3.287  50.726  1.00  0.00     0.162 C 
HETATM   17 CL1  UNL     1      21.052   3.520  52.309  1.00  0.00    -0.116 Cl
HETATM   18  C13 UNL     1      22.195   1.831  50.480  1.00  0.00     0.152 C 
ENDBRANCH   8  11
BRANCH   1  19
HETATM   19  N1  UNL     1      27.136   0.358  54.446  1.00  0.00    -0.327 N 
HETATM   20  C2  UNL     1      27.981  -0.573  53.775  1.00  0.00     0.218 C 
HETATM   21  C1  UNL     1      29.442  -0.303  53.678  1.00  0.00     0.117 C 
HETATM   22  O1  UNL     1      27.331  -1.573  53.322  1.00  0.00    -0.274 OA
HETATM   23  H4  UNL     1      27.503   1.234  54.877  1.00  0.00     0.169 HD
ENDBRANCH   1  19
TORSDOF 2
ENDMDL
MODEL 6
REMARK VINA RESULT:      -7.4      3.749      6.717
REMARK  2 active torsions:
REMARK  status: ('A' for Active; 'I' for Inactive)
REMARK       I    between atoms: C2_2  and  N1_4 
REMARK    1  A    between atoms: N1_4  and  C3_5 
REMARK    2  A    between atoms: C8_12  and  N4_13 
ROOT
HETATM    1  C3  UNL     1      24.137   0.356  53.369  1.00  0.00     0.035 A 
HETATM    2  C4  UNL     1      25.426  -0.168  53.263  1.00  0.00     0.032 A 
HETATM    3  C5  UNL     1      26.329   0.472  52.410  1.00  0.00     0.035 A 
HETATM    4  C6  UNL     1      25.963   1.595  51.688  1.00  0.00     0.072 A 
HETATM    5  N2  UNL     1      26.817   2.212  50.872  1.00  0.00    -0.241 NA
HETATM    6  C7  UNL     1      26.443   3.301  50.180  1.00  0.00     0.236 A 
HETATM    7  N3  UNL     1      25.196   3.790  50.297  1.00  0.00    -0.224 NA
HETATM    8  C8  UNL     1      24.262   3.217  51.110  1.00  0.00     0.140 A 
HETATM    9  C14 UNL     1      24.686   2.102  51.804  1.00  0.00     0.041 A 
HETATM   10  C15 UNL     1      23.810   1.476  52.635  1.00  0.00     0.047 A 
ENDROOT
BRANCH   8  11
HETATM   11  N4  UNL     1      22.950   3.774  51.202  1.00  0.00    -0.360 N 
HETATM   12  C9  UNL     1      22.077   4.170  52.304  1.00  0.00     0.154 C 
HETATM   13  C10 UNL     1      20.709   3.613  52.140  1.00  0.00     0.032 C 
HETATM   14  C11 UNL     1      20.311   3.089  50.984  1.00  0.00     0.111 C 
HETATM   15  F1  UNL     1      19.051   2.587  50.869  1.00  0.00    -0.209 F 
HETATM   16  C12 UNL     1      21.161   3.001  49.758  1.00  0.00     0.162 C 
HETATM   17 CL1  UNL     1      21.777   1.346  49.648  1.00  0.00    -0.116 Cl
HETATM   18  C13 UNL     1      22.279   4.023  49.941  1.00  0.00     0.152 C 
ENDBRANCH   8  11
BRANCH   1  19
HETATM   19  N1  UNL     1      23.183  -0.276  54.236  1.00  0.00    -0.327 N 
HETATM   20  C2  UNL     1      22.125  -0.902  53.516  1.00  0.00     0.218 C 
HETATM   21  C1  UNL     1      21.045  -1.607  54.261  1.00  0.00     0.117 C 
HETATM   22  O1  UNL     1      22.254  -0.765  52.254  1.00  0.00    -0.274 OA
HETATM   23  H4  UNL     1      23.235  -0.291  55.278  1.00  0.00     0.169 HD
ENDBRANCH   1  19
TORSDOF 2
ENDMDL
MODEL 7
REMARK VINA RESULT:      -7.4      3.717      6.287
REMARK  2 active torsions:
REMARK  status: ('A' for Active; 'I' for Inactive)
REMARK       I    between atoms: C2_2  and  N1_4 
REMARK    1  A    between atoms: N1_4  and  C3_5 
REMARK    2  A    between atoms: C8_12  and  N4_13 
ROOT
HETATM    1  C3  UNL     1      22.244   0.506  53.208  1.00  0.00     0.035 A 
HETATM    2  C4  UNL     1      22.937  -0.647  53.579  1.00  0.00     0.032 A 
HETATM    3  C5  UNL     1      24.325  -0.660  53.425  1.00  0.00     0.035 A 
HETATM    4  C6  UNL     1      25.003   0.437  52.920  1.00  0.00     0.072 A 
HETATM    5  N2  UNL     1      26.327   0.434  52.769  1.00  0.00    -0.241 NA
HETATM    6  C7  UNL     1      26.965   1.509  52.277  1.00  0.00     0.236 A 
HETATM    7  N3  UNL     1      26.279   2.610  51.926  1.00  0.00    -0.224 NA
HETATM    8  C8  UNL     1      24.923   2.694  52.049  1.00  0.00     0.140 A 
HETATM    9  C14 UNL     1      24.305   1.571  52.558  1.00  0.00     0.041 A 
HETATM   10  C15 UNL     1      22.954   1.579  52.709  1.00  0.00     0.047 A 
ENDROOT
BRANCH   8  11
HETATM   11  N4  UNL     1      24.238   3.886  51.663  1.00  0.00    -0.360 N 
HETATM   12  C9  UNL     1      23.317   4.803  52.329  1.00  0.00     0.154 C 
HETATM   13  C10 UNL     1      22.122   5.077  51.488  1.00  0.00     0.032 C 
HETATM   14  C11 UNL     1      22.094   4.748  50.200  1.00  0.00     0.111 C 
HETATM   15  F1  UNL     1      20.982   5.014  49.460  1.00  0.00    -0.209 F 
HETATM   16  C12 UNL     1      23.218   4.088  49.471  1.00  0.00     0.162 C 
HETATM   17 CL1  UNL     1      22.835   2.366  49.338  1.00  0.00    -0.116 Cl
HETATM   18  C13 UNL     1      24.472   4.338  50.305  1.00  0.00     0.152 C 
ENDBRANCH   8  11
BRANCH   1  19
HETATM   19  N1  UNL     1      20.817   0.555  53.352  1.00  0.00    -0.327 N 
HETATM   20  C2  UNL     1      20.137   0.260  52.135  1.00  0.00     0.218 C 
HETATM   21  C1  UNL     1      18.648   0.265  52.105  1.00  0.00     0.117 C 
HETATM   22  O1  UNL     1      20.945   0.016  51.178  1.00  0.00    -0.274 OA
HETATM   23  H4  UNL     1      20.309   0.777  54.235  1.00  0.00     0.169 HD
ENDBRANCH   1  19
TORSDOF 2
ENDMDL
MODEL 8
REMARK VINA RESULT:      -7.4      3.904      6.483
REMARK  2 active torsions:
REMARK  status: ('A' for Active; 'I' for Inactive)
REMARK       I    between atoms: C2_2  and  N1_4 
REMARK    1  A    between atoms: N1_4  and  C3_5 
REMARK    2  A    between atoms: C8_12  and  N4_13 
ROOT
HETATM    1  C3  UNL     1      23.225  -0.015  52.993  1.00  0.00     0.035 A 
HETATM    2  C4  UNL     1      22.792  -0.672  54.146  1.00  0.00     0.032 A 
HETATM    3  C5  UNL     1      21.425  -0.922  54.288  1.00  0.00     0.035 A 
HETATM    4  C6  UNL     1      20.518  -0.534  53.317  1.00  0.00     0.072 A 
HETATM    5  N2  UNL     1      19.213  -0.769  53.443  1.00  0.00    -0.241 NA
HETATM    6  C7  UNL     1      18.349  -0.384  52.489  1.00  0.00     0.236 A 
HETATM    7  N3  UNL     1      18.787   0.246  51.385  1.00  0.00    -0.224 NA
HETATM    8  C8  UNL     1      20.106   0.524  51.179  1.00  0.00     0.140 A 
HETATM    9  C14 UNL     1      20.960   0.113  52.181  1.00  0.00     0.041 A 
HETATM   10  C15 UNL     1      22.291   0.355  52.047  1.00  0.00     0.047 A 
ENDROOT
BRANCH   8  11
HETATM   11  N4  UNL     1      20.523   1.196  49.990  1.00  0.00    -0.360 N 
HETATM   12  C9  UNL     1      21.527   0.937  48.961  1.00  0.00     0.154 C 
HETATM   13  C10 UNL     1      22.357   2.141  48.697  1.00  0.00     0.032 C 
HETATM   14  C11 UNL     1      21.994   3.341  49.143  1.00  0.00     0.111 C 
HETATM   15  F1  UNL     1      22.778   4.423  48.882  1.00  0.00    -0.209 F 
HETATM   16  C12 UNL     1      20.756   3.610  49.934  1.00  0.00     0.162 C 
HETATM   17 CL1  UNL     1      21.223   3.743  51.635  1.00  0.00    -0.116 Cl
HETATM   18  C13 UNL     1      19.824   2.428  49.682  1.00  0.00     0.152 C 
ENDBRANCH   8  11
BRANCH   1  19
HETATM   19  N1  UNL     1      24.622   0.259  52.814  1.00  0.00    -0.327 N 
HETATM   20  C2  UNL     1      24.935   1.636  53.003  1.00  0.00     0.218 C 
HETATM   21  C1  UNL     1      26.343   2.097  52.855  1.00  0.00     0.117 C 
HETATM   22  O1  UNL     1      23.904   2.329  53.291  1.00  0.00    -0.274 OA
HETATM   23  H4  UNL     1      25.347  -0.451  52.573  1.00  0.00     0.169 HD
ENDBRANCH   1  19
TORSDOF 2
ENDMDL
MODEL 9
REMARK VINA RESULT:      -7.3      3.662      5.745
REMARK  2 active torsions:
REMARK  status: ('A' for Active; 'I' for Inactive)
REMARK       I    between atoms: C2_2  and  N1_4 
REMARK    1  A    between atoms: N1_4  and  C3_5 
REMARK    2  A    between atoms: C8_12  and  N4_13 
ROOT
HETATM    1  C3  UNL     1      25.010   2.888  51.597  1.00  0.00     0.035 A 
HETATM    2  C4  UNL     1      25.799   2.460  52.665  1.00  0.00     0.032 A 
HETATM    3  C5  UNL     1      25.356   1.368  53.416  1.00  0.00     0.035 A 
HETATM    4  C6  UNL     1      24.168   0.724  53.116  1.00  0.00     0.072 A 
HETATM    5  N2  UNL     1      23.737  -0.318  53.826  1.00  0.00    -0.241 NA
HETATM    6  C7  UNL     1      22.582  -0.930  53.518  1.00  0.00     0.236 A 
HETATM    7  N3  UNL     1      21.836  -0.502  52.484  1.00  0.00    -0.224 NA
HETATM    8  C8  UNL     1      22.206   0.557  51.708  1.00  0.00     0.140 A 
HETATM    9  C14 UNL     1      23.398   1.157  52.056  1.00  0.00     0.041 A 
HETATM   10  C15 UNL     1      23.833   2.220  51.328  1.00  0.00     0.047 A 
ENDROOT
BRANCH   8  11
HETATM   11  N4  UNL     1      21.381   0.975  50.620  1.00  0.00    -0.360 N 
HETATM   12  C9  UNL     1      21.599   1.207  49.194  1.00  0.00     0.154 C 
HETATM   13  C10 UNL     1      21.045   2.518  48.767  1.00  0.00     0.032 C 
HETATM   14  C11 UNL     1      20.214   3.203  49.547  1.00  0.00     0.111 C 
HETATM   15  F1  UNL     1      19.725   4.401  49.125  1.00  0.00    -0.209 F 
HETATM   16  C12 UNL     1      19.755   2.753  50.896  1.00  0.00     0.162 C 
HETATM   17 CL1  UNL     1      20.706   3.624  52.107  1.00  0.00    -0.116 Cl
HETATM   18  C13 UNL     1      19.995   1.247  50.946  1.00  0.00     0.152 C 
ENDBRANCH   8  11
BRANCH   1  19
HETATM   19  N1  UNL     1      25.434   4.006  50.805  1.00  0.00    -0.327 N 
HETATM   20  C2  UNL     1      26.474   3.665  49.894  1.00  0.00     0.218 C 
HETATM   21  C1  UNL     1      27.035   4.709  48.992  1.00  0.00     0.117 C 
HETATM   22  O1  UNL     1      26.806   2.436  49.980  1.00  0.00    -0.274 OA
HETATM   23  H4  UNL     1      25.041   4.971  50.867  1.00  0.00     0.169 HD
ENDBRANCH   1  19
TORSDOF 2
ENDMDL
