MODEL 1
REMARK VINA RESULT:      -7.5      0.000      0.000
REMARK  6 active torsions:
REMARK  status: ('A' for Active; 'I' for Inactive)
REMARK    1  A    between atoms: C3_4  and  N1_5 
REMARK    2  A    between atoms: N1_5  and  N2_6 
REMARK    3  A    between atoms: N2_6  and  C4_7 
REMARK    4  A    between atoms: C4_7  and  C5_8 
REMARK    5  A    between atoms: C7_10  and  C8_11 
REMARK    6  A    between atoms: C8_11  and  C9_12 
ROOT
HETATM    1  C5  UNL     1      22.932  -0.773  54.330  1.00  0.00     0.028 A 
HETATM    2  C6  UNL     1      23.023  -0.412  52.943  1.00  0.00     0.043 A 
HETATM    3  C7  UNL     1      21.757  -0.144  52.610  1.00  0.00     0.010 A 
HETATM    4  N3  UNL     1      20.833  -0.302  53.682  1.00  0.00    -0.388 N 
HETATM    5  C15 UNL     1      21.552  -0.775  54.875  1.00  0.00     0.168 A 
HETATM    6  H12 UNL     1      19.819  -0.116  53.635  1.00  0.00     0.159 HD
ENDROOT
BRANCH   1   7
HETATM    7  C4  UNL     1      24.000  -1.079  55.049  1.00  0.00     0.014 C 
BRANCH   7   8
HETATM    8  N2  UNL     1      25.177  -1.198  55.516  1.00  0.00    -0.133 NA
BRANCH   8   9
HETATM    9  N1  UNL     1      26.242  -0.593  54.852  1.00  0.00    -0.297 N 
HETATM   10  H3  UNL     1      25.943   0.147  55.555  1.00  0.00     0.183 HD
BRANCH   9  11
HETATM   11  C3  UNL     1      27.350  -0.352  53.943  1.00  0.00     0.129 A 
HETATM   12  C2  UNL     1      26.911   0.544  52.873  1.00  0.00     0.019 A 
HETATM   13  C1  UNL     1      27.246   1.723  52.422  1.00  0.00     0.009 A 
HETATM   14 BR1  UNL     1      26.485   2.681  50.971  1.00  0.00    -0.051 Br
HETATM   15  C18 UNL     1      28.347   2.333  53.158  1.00  0.00     0.015 A 
HETATM   16  C17 UNL     1      28.802   1.582  54.146  1.00  0.00    -0.023 A 
HETATM   17  C16 UNL     1      28.486   0.253  54.721  1.00  0.00     0.058 A 
ENDBRANCH   9  11
ENDBRANCH   8   9
ENDBRANCH   7   8
ENDBRANCH   1   7
BRANCH   3  18
HETATM   18  C8  UNL     1      21.339   0.286  51.235  1.00  0.00     0.095 C 
BRANCH  18  19
HETATM   19  C9  UNL     1      21.892   1.633  50.936  1.00  0.00    -0.053 A 
HETATM   20  C10 UNL     1      21.854   2.689  51.845  1.00  0.00     0.007 A 
HETATM   21  C11 UNL     1      22.402   3.900  51.452  1.00  0.00     0.001 A 
HETATM   22  C12 UNL     1      22.974   4.065  50.190  1.00  0.00     0.000 A 
HETATM   23  C13 UNL     1      22.997   3.011  49.317  1.00  0.00     0.001 A 
HETATM   24  C14 UNL     1      22.455   1.794  49.692  1.00  0.00     0.007 A 
ENDBRANCH  18  19
ENDBRANCH   3  18
TORSDOF 6
ENDMDL
MODEL 2
REMARK VINA RESULT:      -7.4      1.621      6.375
REMARK  6 active torsions:
REMARK  status: ('A' for Active; 'I' for Inactive)
REMARK    1  A    between atoms: C3_4  and  N1_5 
REMARK    2  A    between atoms: N1_5  and  N2_6 
REMARK    3  A    between atoms: N2_6  and  C4_7 
REMARK    4  A    between atoms: C4_7  and  C5_8 
REMARK    5  A    between atoms: C7_10  and  C8_11 
REMARK    6  A    between atoms: C8_11  and  C9_12 
ROOT
HETATM    1  C5  UNL     1      23.230  -0.956  54.511  1.00  0.00     0.028 A 
HETATM    2  C6  UNL     1      23.841  -0.450  53.314  1.00  0.00     0.043 A 
HETATM    3  C7  UNL     1      25.144  -0.445  53.612  1.00  0.00     0.010 A 
HETATM    4  N3  UNL     1      25.437  -0.914  54.924  1.00  0.00    -0.388 N 
HETATM    5  C15 UNL     1      24.180  -1.236  55.616  1.00  0.00     0.168 A 
HETATM    6  H12 UNL     1      26.381  -1.013  55.331  1.00  0.00     0.159 HD
ENDROOT
BRANCH   1   7
HETATM    7  C4  UNL     1      21.924  -1.149  54.606  1.00  0.00     0.014 C 
BRANCH   7   8
HETATM    8  N2  UNL     1      20.665  -1.162  54.426  1.00  0.00    -0.133 NA
BRANCH   8   9
HETATM    9  N1  UNL     1      20.095  -0.280  53.510  1.00  0.00    -0.297 N 
HETATM   10  H3  UNL     1      19.308  -0.969  53.705  1.00  0.00     0.183 HD
BRANCH   9  11
HETATM   11  C3  UNL     1      19.904   0.824  52.585  1.00  0.00     0.129 A 
HETATM   12  C2  UNL     1      21.021   1.761  52.712  1.00  0.00     0.019 A 
HETATM   13  C1  UNL     1      21.957   2.237  51.936  1.00  0.00     0.009 A 
HETATM   14 BR1  UNL     1      23.322   3.480  52.376  1.00  0.00    -0.051 Br
HETATM   15  C18 UNL     1      21.900   1.718  50.575  1.00  0.00     0.015 A 
HETATM   16  C17 UNL     1      20.912   0.861  50.377  1.00  0.00    -0.023 A 
HETATM   17  C16 UNL     1      19.822   0.272  51.188  1.00  0.00     0.058 A 
ENDBRANCH   9  11
ENDBRANCH   8   9
ENDBRANCH   7   8
ENDBRANCH   1   7
BRANCH   3  18
HETATM   18  C8  UNL     1      26.207   0.011  52.657  1.00  0.00     0.095 C 
BRANCH  18  19
HETATM   19  C9  UNL     1      27.486  -0.686  52.953  1.00  0.00    -0.053 A 
HETATM   20  C10 UNL     1      27.655  -2.061  52.804  1.00  0.00     0.007 A 
HETATM   21  C11 UNL     1      28.896  -2.596  53.112  1.00  0.00     0.001 A 
HETATM   22  C12 UNL     1      29.946  -1.792  53.557  1.00  0.00     0.000 A 
HETATM   23  C13 UNL     1      29.752  -0.444  53.694  1.00  0.00     0.001 A 
HETATM   24  C14 UNL     1      28.520   0.109  53.391  1.00  0.00     0.007 A 
ENDBRANCH  18  19
ENDBRANCH   3  18
TORSDOF 6
ENDMDL
MODEL 3
REMARK VINA RESULT:      -7.3      2.667      7.171
REMARK  6 active torsions:
REMARK  status: ('A' for Active; 'I' for Inactive)
REMARK    1  A    between atoms: C3_4  and  N1_5 
REMARK    2  A    between atoms: N1_5  and  N2_6 
REMARK    3  A    between atoms: N2_6  and  C4_7 
REMARK    4  A    between atoms: C4_7  and  C5_8 
REMARK    5  A    between atoms: C7_10  and  C8_11 
REMARK    6  A    between atoms: C8_11  and  C9_12 
ROOT
HETATM    1  C5  UNL     1      24.578   2.717  51.568  1.00  0.00     0.028 A 
HETATM    2  C6  UNL     1      24.709   2.051  52.834  1.00  0.00     0.043 A 
HETATM    3  C7  UNL     1      26.032   2.009  53.025  1.00  0.00     0.010 A 
HETATM    4  N3  UNL     1      26.785   2.601  51.972  1.00  0.00    -0.388 N 
HETATM    5  C15 UNL     1      25.867   3.064  50.920  1.00  0.00     0.168 A 
HETATM    6  H12 UNL     1      27.813   2.694  51.946  1.00  0.00     0.159 HD
ENDROOT
BRANCH   1   7
HETATM    7  C4  UNL     1      23.398   2.988  51.036  1.00  0.00     0.014 C 
BRANCH   7   8
HETATM    8  N2  UNL     1      22.166   3.015  50.721  1.00  0.00    -0.133 NA
BRANCH   8   9
HETATM    9  N1  UNL     1      21.439   1.826  50.695  1.00  0.00    -0.297 N 
HETATM   10  H3  UNL     1      20.869   2.472  50.071  1.00  0.00     0.183 HD
BRANCH   9  11
HETATM   11  C3  UNL     1      21.014   0.457  50.936  1.00  0.00     0.129 A 
HETATM   12  C2  UNL     1      21.640  -0.036  52.163  1.00  0.00     0.019 A 
HETATM   13  C1  UNL     1      21.239  -0.486  53.320  1.00  0.00     0.009 A 
HETATM   14 BR1  UNL     1      22.301  -1.076  54.779  1.00  0.00    -0.051 Br
HETATM   15  C18 UNL     1      19.788  -0.521  53.457  1.00  0.00     0.015 A 
HETATM   16  C17 UNL     1      19.146  -0.090  52.385  1.00  0.00    -0.023 A 
HETATM   17  C16 UNL     1      19.514   0.433  51.049  1.00  0.00     0.058 A 
ENDBRANCH   9  11
ENDBRANCH   8   9
ENDBRANCH   7   8
ENDBRANCH   1   7
BRANCH   3  18
HETATM   18  C8  UNL     1      26.671   1.395  54.235  1.00  0.00     0.095 C 
BRANCH  18  19
HETATM   19  C9  UNL     1      27.492   0.222  53.834  1.00  0.00    -0.053 A 
HETATM   20  C10 UNL     1      26.965  -0.880  53.164  1.00  0.00     0.007 A 
HETATM   21  C11 UNL     1      27.831  -1.914  52.842  1.00  0.00     0.001 A 
HETATM   22  C12 UNL     1      29.184  -1.861  53.176  1.00  0.00     0.000 A 
HETATM   23  C13 UNL     1      29.675  -0.766  53.835  1.00  0.00     0.001 A 
HETATM   24  C14 UNL     1      28.826   0.276  54.164  1.00  0.00     0.007 A 
ENDBRANCH  18  19
ENDBRANCH   3  18
TORSDOF 6
ENDMDL
MODEL 4
REMARK VINA RESULT:      -7.3      2.270      5.321
REMARK  6 active torsions:
REMARK  status: ('A' for Active; 'I' for Inactive)
REMARK    1  A    between atoms: C3_4  and  N1_5 
REMARK    2  A    between atoms: N1_5  and  N2_6 
REMARK    3  A    between atoms: N2_6  and  C4_7 
REMARK    4  A    between atoms: C4_7  and  C5_8 
REMARK    5  A    between atoms: C7_10  and  C8_11 
REMARK    6  A    between atoms: C8_11  and  C9_12 
ROOT
HETATM    1  C5  UNL     1      26.424   0.736  52.564  1.00  0.00     0.028 A 
HETATM    2  C6  UNL     1      25.185   0.773  53.289  1.00  0.00     0.043 A 
HETATM    3  C7  UNL     1      25.097  -0.454  53.813  1.00  0.00     0.010 A 
HETATM    4  N3  UNL     1      26.193  -1.300  53.484  1.00  0.00    -0.388 N 
HETATM    5  C15 UNL     1      27.116  -0.577  52.597  1.00  0.00     0.168 A 
HETATM    6  H12 UNL     1      26.324  -2.270  53.813  1.00  0.00     0.159 HD
ENDROOT
BRANCH   1   7
HETATM    7  C4  UNL     1      26.895   1.793  51.923  1.00  0.00     0.014 C 
BRANCH   7   8
HETATM    8  N2  UNL     1      27.046   2.827  51.198  1.00  0.00    -0.133 NA
BRANCH   8   9
HETATM    9  N1  UNL     1      25.985   3.717  51.046  1.00  0.00    -0.297 N 
HETATM   10  H3  UNL     1      26.825   4.360  51.164  1.00  0.00     0.183 HD
BRANCH   9  11
HETATM   11  C3  UNL     1      24.652   4.263  50.853  1.00  0.00     0.129 A 
HETATM   12  C2  UNL     1      24.029   3.621  49.696  1.00  0.00     0.019 A 
HETATM   13  C1  UNL     1      22.966   2.899  49.467  1.00  0.00     0.009 A 
HETATM   14 BR1  UNL     1      22.377   2.173  47.814  1.00  0.00    -0.051 Br
HETATM   15  C18 UNL     1      22.168   2.647  50.661  1.00  0.00     0.015 A 
HETATM   16  C17 UNL     1      22.667   3.197  51.755  1.00  0.00    -0.023 A 
HETATM   17  C16 UNL     1      23.849   4.020  52.102  1.00  0.00     0.058 A 
ENDBRANCH   9  11
ENDBRANCH   8   9
ENDBRANCH   7   8
ENDBRANCH   1   7
BRANCH   3  18
HETATM   18  C8  UNL     1      23.951  -0.905  54.669  1.00  0.00     0.095 C 
BRANCH  18  19
HETATM   19  C9  UNL     1      22.662  -0.560  54.013  1.00  0.00    -0.053 A 
HETATM   20  C10 UNL     1      22.434  -0.734  52.650  1.00  0.00     0.007 A 
HETATM   21  C11 UNL     1      21.190  -0.376  52.153  1.00  0.00     0.001 A 
HETATM   22  C12 UNL     1      20.196   0.143  52.983  1.00  0.00     0.000 A 
HETATM   23  C13 UNL     1      20.448   0.303  54.319  1.00  0.00     0.001 A 
HETATM   24  C14 UNL     1      21.684  -0.049  54.833  1.00  0.00     0.007 A 
ENDBRANCH  18  19
ENDBRANCH   3  18
TORSDOF 6
ENDMDL
MODEL 5
REMARK VINA RESULT:      -7.0      3.905      6.154
REMARK  6 active torsions:
REMARK  status: ('A' for Active; 'I' for Inactive)
REMARK    1  A    between atoms: C3_4  and  N1_5 
REMARK    2  A    between atoms: N1_5  and  N2_6 
REMARK    3  A    between atoms: N2_6  and  C4_7 
REMARK    4  A    between atoms: C4_7  and  C5_8 
REMARK    5  A    between atoms: C7_10  and  C8_11 
REMARK    6  A    between atoms: C8_11  and  C9_12 
ROOT
HETATM    1  C5  UNL     1      23.482   2.954  51.958  1.00  0.00     0.028 A 
HETATM    2  C6  UNL     1      24.210   2.256  52.979  1.00  0.00     0.043 A 
HETATM    3  C7  UNL     1      23.685   1.027  52.947  1.00  0.00     0.010 A 
HETATM    4  N3  UNL     1      22.660   0.864  51.974  1.00  0.00    -0.388 N 
HETATM    5  C15 UNL     1      22.430   2.147  51.292  1.00  0.00     0.168 A 
HETATM    6  H12 UNL     1      22.153  -0.013  51.774  1.00  0.00     0.159 HD
ENDROOT
BRANCH   1   7
HETATM    7  C4  UNL     1      23.737   4.216  51.649  1.00  0.00     0.014 C 
BRANCH   7   8
HETATM    8  N2  UNL     1      24.284   5.341  51.423  1.00  0.00    -0.133 NA
BRANCH   8   9
HETATM    9  N1  UNL     1      25.126   5.485  50.322  1.00  0.00    -0.297 N 
HETATM   10  H3  UNL     1      25.585   6.099  51.060  1.00  0.00     0.183 HD
BRANCH   9  11
HETATM   11  C3  UNL     1      25.707   5.354  48.996  1.00  0.00     0.129 A 
HETATM   12  C2  UNL     1      26.277   6.639  48.589  1.00  0.00     0.019 A 
HETATM   13  C1  UNL     1      27.454   7.094  48.256  1.00  0.00     0.009 A 
HETATM   14 BR1  UNL     1      27.926   8.864  47.756  1.00  0.00    -0.051 Br
HETATM   15  C18 UNL     1      28.499   6.078  48.288  1.00  0.00     0.015 A 
HETATM   16  C17 UNL     1      28.062   4.883  48.648  1.00  0.00    -0.023 A 
HETATM   17  C16 UNL     1      26.764   4.285  49.038  1.00  0.00     0.058 A 
ENDBRANCH   9  11
ENDBRANCH   8   9
ENDBRANCH   7   8
ENDBRANCH   1   7
BRANCH   3  18
HETATM   18  C8  UNL     1      24.132  -0.085  53.850  1.00  0.00     0.095 C 
BRANCH  18  19
HETATM   19  C9  UNL     1      25.615  -0.185  53.834  1.00  0.00    -0.053 A 
HETATM   20  C10 UNL     1      26.419   0.273  54.875  1.00  0.00     0.007 A 
HETATM   21  C11 UNL     1      27.791   0.123  54.746  1.00  0.00     0.001 A 
HETATM   22  C12 UNL     1      28.356  -0.463  53.613  1.00  0.00     0.000 A 
HETATM   23  C13 UNL     1      27.542  -0.905  52.605  1.00  0.00     0.001 A 
HETATM   24  C14 UNL     1      26.170  -0.764  52.716  1.00  0.00     0.007 A 
ENDBRANCH  18  19
ENDBRANCH   3  18
TORSDOF 6
ENDMDL
MODEL 6
REMARK VINA RESULT:      -6.7      3.624      7.130
REMARK  6 active torsions:
REMARK  status: ('A' for Active; 'I' for Inactive)
REMARK    1  A    between atoms: C3_4  and  N1_5 
REMARK    2  A    between atoms: N1_5  and  N2_6 
REMARK    3  A    between atoms: N2_6  and  C4_7 
REMARK    4  A    between atoms: C4_7  and  C5_8 
REMARK    5  A    between atoms: C7_10  and  C8_11 
REMARK    6  A    between atoms: C8_11  and  C9_12 
ROOT
HETATM    1  C5  UNL     1      25.835   2.696  51.013  1.00  0.00     0.028 A 
HETATM    2  C6  UNL     1      26.352   1.459  51.529  1.00  0.00     0.043 A 
HETATM    3  C7  UNL     1      25.425   1.084  52.416  1.00  0.00     0.010 A 
HETATM    4  N3  UNL     1      24.330   1.987  52.522  1.00  0.00    -0.388 N 
HETATM    5  C15 UNL     1      24.560   3.135  51.632  1.00  0.00     0.168 A 
HETATM    6  H12 UNL     1      23.503   1.861  53.127  1.00  0.00     0.159 HD
ENDROOT
BRANCH   1   7
HETATM    7  C4  UNL     1      26.458   3.378  50.066  1.00  0.00     0.014 C 
BRANCH   7   8
HETATM    8  N2  UNL     1      27.187   4.185  49.407  1.00  0.00    -0.133 NA
BRANCH   8   9
HETATM    9  N1  UNL     1      26.688   5.442  49.071  1.00  0.00    -0.297 N 
HETATM   10  H3  UNL     1      27.631   5.417  48.579  1.00  0.00     0.183 HD
BRANCH   9  11
HETATM   11  C3  UNL     1      25.827   6.609  48.971  1.00  0.00     0.129 A 
HETATM   12  C2  UNL     1      24.499   6.193  48.518  1.00  0.00     0.019 A 
HETATM   13  C1  UNL     1      23.279   6.245  48.977  1.00  0.00     0.009 A 
HETATM   14 BR1  UNL     1      21.691   5.608  48.154  1.00  0.00    -0.051 Br
HETATM   15  C18 UNL     1      23.178   6.881  50.285  1.00  0.00     0.015 A 
HETATM   16  C17 UNL     1      24.341   7.287  50.765  1.00  0.00    -0.023 A 
HETATM   17  C16 UNL     1      25.754   7.269  50.321  1.00  0.00     0.058 A 
ENDBRANCH   9  11
ENDBRANCH   8   9
ENDBRANCH   7   8
ENDBRANCH   1   7
BRANCH   3  18
HETATM   18  C8  UNL     1      25.522  -0.174  53.228  1.00  0.00     0.095 C 
BRANCH  18  19
HETATM   19  C9  UNL     1      26.949  -0.540  53.424  1.00  0.00    -0.053 A 
HETATM   20  C10 UNL     1      27.548  -1.629  52.795  1.00  0.00     0.007 A 
HETATM   21  C11 UNL     1      28.887  -1.871  53.057  1.00  0.00     0.001 A 
HETATM   22  C12 UNL     1      29.619  -1.056  53.921  1.00  0.00     0.000 A 
HETATM   23  C13 UNL     1      29.005   0.008  54.526  1.00  0.00     0.001 A 
HETATM   24  C14 UNL     1      27.669   0.265  54.277  1.00  0.00     0.007 A 
ENDBRANCH  18  19
ENDBRANCH   3  18
TORSDOF 6
ENDMDL
MODEL 7
REMARK VINA RESULT:      -6.6      4.389      7.442
REMARK  6 active torsions:
REMARK  status: ('A' for Active; 'I' for Inactive)
REMARK    1  A    between atoms: C3_4  and  N1_5 
REMARK    2  A    between atoms: N1_5  and  N2_6 
REMARK    3  A    between atoms: N2_6  and  C4_7 
REMARK    4  A    between atoms: C4_7  and  C5_8 
REMARK    5  A    between atoms: C7_10  and  C8_11 
REMARK    6  A    between atoms: C8_11  and  C9_12 
ROOT
HETATM    1  C5  UNL     1      25.579   2.645  50.805  1.00  0.00     0.028 A 
HETATM    2  C6  UNL     1      26.203   1.599  51.566  1.00  0.00     0.043 A 
HETATM    3  C7  UNL     1      25.187   1.071  52.256  1.00  0.00     0.010 A 
HETATM    4  N3  UNL     1      23.933   1.695  52.003  1.00  0.00    -0.388 N 
HETATM    5  C15 UNL     1      24.127   2.808  51.061  1.00  0.00     0.168 A 
HETATM    6  H12 UNL     1      23.028   1.415  52.413  1.00  0.00     0.159 HD
ENDROOT
BRANCH   1   7
HETATM    7  C4  UNL     1      26.258   3.395  49.951  1.00  0.00     0.014 C 
BRANCH   7   8
HETATM    8  N2  UNL     1      27.162   3.967  49.264  1.00  0.00    -0.133 NA
BRANCH   8   9
HETATM    9  N1  UNL     1      27.201   5.359  49.207  1.00  0.00    -0.297 N 
HETATM   10  H3  UNL     1      28.226   5.092  49.306  1.00  0.00     0.183 HD
BRANCH   9  11
HETATM   11  C3  UNL     1      26.801   6.753  49.111  1.00  0.00     0.129 A 
HETATM   12  C2  UNL     1      27.543   7.395  48.026  1.00  0.00     0.019 A 
HETATM   13  C1  UNL     1      27.255   8.000  46.905  1.00  0.00     0.009 A 
HETATM   14 BR1  UNL     1      28.454   8.764  45.646  1.00  0.00    -0.051 Br
HETATM   15  C18 UNL     1      25.824   8.071  46.636  1.00  0.00     0.015 A 
HETATM   16  C17 UNL     1      25.082   7.510  47.575  1.00  0.00    -0.023 A 
HETATM   17  C16 UNL     1      25.319   6.811  48.859  1.00  0.00     0.058 A 
ENDBRANCH   9  11
ENDBRANCH   8   9
ENDBRANCH   7   8
ENDBRANCH   1   7
BRANCH   3  18
HETATM   18  C8  UNL     1      25.346  -0.075  53.210  1.00  0.00     0.095 C 
BRANCH  18  19
HETATM   19  C9  UNL     1      26.788  -0.310  53.483  1.00  0.00    -0.053 A 
HETATM   20  C10 UNL     1      27.536  -1.289  52.831  1.00  0.00     0.007 A 
HETATM   21  C11 UNL     1      28.874  -1.413  53.171  1.00  0.00     0.001 A 
HETATM   22  C12 UNL     1      29.460  -0.590  54.134  1.00  0.00     0.000 A 
HETATM   23  C13 UNL     1      28.702   0.363  54.759  1.00  0.00     0.001 A 
HETATM   24  C14 UNL     1      27.364   0.502  54.432  1.00  0.00     0.007 A 
ENDBRANCH  18  19
ENDBRANCH   3  18
TORSDOF 6
ENDMDL
MODEL 8
REMARK VINA RESULT:      -6.6      5.779      8.158
REMARK  6 active torsions:
REMARK  status: ('A' for Active; 'I' for Inactive)
REMARK    1  A    between atoms: C3_4  and  N1_5 
REMARK    2  A    between atoms: N1_5  and  N2_6 
REMARK    3  A    between atoms: N2_6  and  C4_7 
REMARK    4  A    between atoms: C4_7  and  C5_8 
REMARK    5  A    between atoms: C7_10  and  C8_11 
REMARK    6  A    between atoms: C8_11  and  C9_12 
ROOT
HETATM    1  C5  UNL     1      26.900   5.200  49.048  1.00  0.00     0.028 A 
HETATM    2  C6  UNL     1      28.100   5.510  48.323  1.00  0.00     0.043 A 
HETATM    3  C7  UNL     1      27.889   6.761  47.899  1.00  0.00     0.010 A 
HETATM    4  N3  UNL     1      26.632   7.299  48.295  1.00  0.00    -0.388 N 
HETATM    5  C15 UNL     1      25.881   6.277  49.041  1.00  0.00     0.168 A 
HETATM    6  H12 UNL     1      26.296   8.253  48.093  1.00  0.00     0.159 HD
ENDROOT
BRANCH   1   7
HETATM    7  C4  UNL     1      26.732   4.041  49.665  1.00  0.00     0.014 C 
BRANCH   7   8
HETATM    8  N2  UNL     1      26.844   2.854  50.108  1.00  0.00    -0.133 NA
BRANCH   8   9
HETATM    9  N1  UNL     1      26.782   2.626  51.481  1.00  0.00    -0.297 N 
HETATM   10  H3  UNL     1      26.328   3.582  51.374  1.00  0.00     0.183 HD
BRANCH   9  11
HETATM   11  C3  UNL     1      26.917   2.010  52.790  1.00  0.00     0.129 A 
HETATM   12  C2  UNL     1      26.812   0.557  52.654  1.00  0.00     0.019 A 
HETATM   13  C1  UNL     1      27.567  -0.479  52.903  1.00  0.00     0.009 A 
HETATM   14 BR1  UNL     1      27.168  -2.313  52.620  1.00  0.00    -0.051 Br
HETATM   15  C18 UNL     1      28.865  -0.128  53.467  1.00  0.00     0.015 A 
HETATM   16  C17 UNL     1      29.038   1.174  53.623  1.00  0.00    -0.023 A 
HETATM   17  C16 UNL     1      28.248   2.402  53.371  1.00  0.00     0.058 A 
ENDBRANCH   9  11
ENDBRANCH   8   9
ENDBRANCH   7   8
ENDBRANCH   1   7
BRANCH   3  18
HETATM   18  C8  UNL     1      28.882   7.533  47.082  1.00  0.00     0.095 C 
BRANCH  18  19
HETATM   19  C9  UNL     1      30.203   7.538  47.762  1.00  0.00    -0.053 A 
HETATM   20  C10 UNL     1      30.436   8.204  48.964  1.00  0.00     0.007 A 
HETATM   21  C11 UNL     1      31.711   8.136  49.503  1.00  0.00     0.001 A 
HETATM   22  C12 UNL     1      32.733   7.428  48.870  1.00  0.00     0.000 A 
HETATM   23  C13 UNL     1      32.476   6.782  47.690  1.00  0.00     0.001 A 
HETATM   24  C14 UNL     1      31.209   6.839  47.137  1.00  0.00     0.007 A 
ENDBRANCH  18  19
ENDBRANCH   3  18
TORSDOF 6
ENDMDL
MODEL 9
REMARK VINA RESULT:      -6.5      2.526      5.725
REMARK  6 active torsions:
REMARK  status: ('A' for Active; 'I' for Inactive)
REMARK    1  A    between atoms: C3_4  and  N1_5 
REMARK    2  A    between atoms: N1_5  and  N2_6 
REMARK    3  A    between atoms: N2_6  and  C4_7 
REMARK    4  A    between atoms: C4_7  and  C5_8 
REMARK    5  A    between atoms: C7_10  and  C8_11 
REMARK    6  A    between atoms: C8_11  and  C9_12 
ROOT
HETATM    1  C5  UNL     1      20.475   0.244  52.281  1.00  0.00     0.028 A 
HETATM    2  C6  UNL     1      21.853  -0.090  52.049  1.00  0.00     0.043 A 
HETATM    3  C7  UNL     1      22.371  -0.132  53.281  1.00  0.00     0.010 A 
HETATM    4  N3  UNL     1      21.430   0.149  54.311  1.00  0.00    -0.388 N 
HETATM    5  C15 UNL     1      20.127   0.463  53.706  1.00  0.00     0.168 A 
HETATM    6  H12 UNL     1      21.626   0.138  55.325  1.00  0.00     0.159 HD
ENDROOT
BRANCH   1   7
HETATM    7  C4  UNL     1      19.601   0.346  51.292  1.00  0.00     0.014 C 
BRANCH   7   8
HETATM    8  N2  UNL     1      19.018   0.550  50.181  1.00  0.00    -0.133 NA
BRANCH   8   9
HETATM    9  N1  UNL     1      19.571   1.449  49.271  1.00  0.00    -0.297 N 
HETATM   10  H3  UNL     1      18.541   1.439  49.006  1.00  0.00     0.183 HD
BRANCH   9  11
HETATM   11  C3  UNL     1      20.518   2.281  48.548  1.00  0.00     0.129 A 
HETATM   12  C2  UNL     1      20.680   3.553  49.252  1.00  0.00     0.019 A 
HETATM   13  C1  UNL     1      21.657   4.211  49.815  1.00  0.00     0.009 A 
HETATM   14 BR1  UNL     1      21.585   5.897  50.685  1.00  0.00    -0.051 Br
HETATM   15  C18 UNL     1      22.940   3.522  49.737  1.00  0.00     0.015 A 
HETATM   16  C17 UNL     1      22.877   2.359  49.112  1.00  0.00    -0.023 A 
HETATM   17  C16 UNL     1      21.828   1.547  48.453  1.00  0.00     0.058 A 
ENDBRANCH   9  11
ENDBRANCH   8   9
ENDBRANCH   7   8
ENDBRANCH   1   7
BRANCH   3  18
HETATM   18  C8  UNL     1      23.810  -0.448  53.559  1.00  0.00     0.095 C 
BRANCH  18  19
HETATM   19  C9  UNL     1      24.684   0.584  52.941  1.00  0.00    -0.053 A 
HETATM   20  C10 UNL     1      24.413   1.949  53.009  1.00  0.00     0.007 A 
HETATM   21  C11 UNL     1      25.302   2.815  52.393  1.00  0.00     0.001 A 
HETATM   22  C12 UNL     1      26.432   2.345  51.724  1.00  0.00     0.000 A 
HETATM   23  C13 UNL     1      26.674   0.998  51.673  1.00  0.00     0.001 A 
HETATM   24  C14 UNL     1      25.797   0.118  52.282  1.00  0.00     0.007 A 
ENDBRANCH  18  19
ENDBRANCH   3  18
TORSDOF 6
ENDMDL
