MODEL 1
REMARK VINA RESULT:      -7.8      0.000      0.000
REMARK  3 active torsions:
REMARK  status: ('A' for Active; 'I' for Inactive)
REMARK    1  A    between atoms: P1_2  and  C1_3 
REMARK    2  A    between atoms: C12_17  and  N3_18 
REMARK       I    between atoms: N3_18  and  C13_19 
REMARK    3  A    between atoms: C13_19  and  C14_21 
ROOT
HETATM    1  C1  UNL     1      22.949   2.480  51.168  1.00  0.00     0.124 C 
HETATM    2  C2  UNL     1      21.508   2.577  51.559  1.00  0.00     0.007 C 
HETATM    3  C3  UNL     1      20.268   2.441  52.107  1.00  0.00    -0.005 C 
HETATM    4 BR1  UNL     1      18.755   3.552  51.552  1.00  0.00    -0.055 Br
HETATM    5  C4  UNL     1      20.630   1.362  53.059  1.00  0.00     0.061 C 
HETATM    6  C5  UNL     1      20.245   0.515  54.024  1.00  0.00    -0.014 C 
HETATM    7  C6  UNL     1      21.530  -0.163  54.286  1.00  0.00     0.014 C 
HETATM    8  C7  UNL     1      22.813  -0.399  54.106  1.00  0.00     0.089 C 
HETATM    9  N1  UNL     1      24.054  -1.048  54.354  1.00  0.00    -0.354 N 
HETATM   10  C8  UNL     1      25.235  -0.362  54.041  1.00  0.00     0.103 C 
HETATM   11  N2  UNL     1      25.309  -0.365  52.728  1.00  0.00    -0.247 NA
HETATM   12  C9  UNL     1      25.498   0.929  52.148  1.00  0.00     0.125 C 
HETATM   13  C10 UNL     1      25.579   2.001  52.958  1.00  0.00    -0.038 C 
HETATM   14  C11 UNL     1      24.875   3.222  52.612  1.00  0.00     0.034 C 
HETATM   15  C12 UNL     1      23.797   3.425  51.878  1.00  0.00     0.027 C 
HETATM   16  C18 UNL     1      26.412   1.813  54.169  1.00  0.00     0.047 C 
HETATM   17  C19 UNL     1      26.455   0.365  54.546  1.00  0.00     0.083 C 
HETATM   18  H7  UNL     1      23.921  -1.999  54.757  1.00  0.00     0.166 HD
ENDROOT
BRANCH  15  19
HETATM   19  N3  UNL     1      23.414   4.804  51.751  1.00  0.00    -0.328 N 
HETATM   20  C13 UNL     1      23.933   5.947  51.107  1.00  0.00     0.255 C 
HETATM   21  O2  UNL     1      24.990   5.953  50.428  1.00  0.00    -0.271 OA
HETATM   22  H10 UNL     1      22.508   4.956  52.290  1.00  0.00     0.168 HD
BRANCH  20  23
HETATM   23  C14 UNL     1      23.238   7.246  51.199  1.00  0.00     0.311 C 
HETATM   24  C15 UNL     1      23.591   8.199  50.107  1.00  0.00     0.047 C 
HETATM   25  C16 UNL     1      22.370   8.243  49.240  1.00  0.00     0.033 C 
HETATM   26  C17 UNL     1      21.251   7.658  50.054  1.00  0.00     0.271 C 
HETATM   27  N4  UNL     1      21.809   7.143  51.261  1.00  0.00     0.097 N 
HETATM   28  H18 UNL     1      21.427   7.670  52.069  1.00  0.00     0.317 HD
ENDBRANCH  20  23
ENDBRANCH  15  19
BRANCH   1  29
HETATM   29  P1  UNL     1      23.172   2.538  49.300  1.00  0.00     0.137 P 
HETATM   30  O1  UNL     1      23.076   3.899  48.525  1.00  0.00    -0.202 OA
ENDBRANCH   1  29
TORSDOF 3
ENDMDL
MODEL 2
REMARK VINA RESULT:      -7.7      3.089      7.133
REMARK  3 active torsions:
REMARK  status: ('A' for Active; 'I' for Inactive)
REMARK    1  A    between atoms: P1_2  and  C1_3 
REMARK    2  A    between atoms: C12_17  and  N3_18 
REMARK       I    between atoms: N3_18  and  C13_19 
REMARK    3  A    between atoms: C13_19  and  C14_21 
ROOT
HETATM    1  C1  UNL     1      23.748   4.240  50.690  1.00  0.00     0.124 C 
HETATM    2  C2  UNL     1      22.766   3.290  50.081  1.00  0.00     0.007 C 
HETATM    3  C3  UNL     1      21.873   2.624  49.296  1.00  0.00    -0.005 C 
HETATM    4 BR1  UNL     1      21.056   0.934  49.850  1.00  0.00    -0.055 Br
HETATM    5  C4  UNL     1      21.909   3.581  48.163  1.00  0.00     0.061 C 
HETATM    6  C5  UNL     1      21.468   3.923  46.944  1.00  0.00    -0.014 C 
HETATM    7  C6  UNL     1      22.232   5.170  46.745  1.00  0.00     0.014 C 
HETATM    8  C7  UNL     1      23.084   6.115  47.087  1.00  0.00     0.089 C 
HETATM    9  N1  UNL     1      23.823   7.315  46.901  1.00  0.00    -0.354 N 
HETATM   10  C8  UNL     1      25.023   7.472  47.609  1.00  0.00     0.103 C 
HETATM   11  N2  UNL     1      24.671   7.688  48.858  1.00  0.00    -0.247 NA
HETATM   12  C9  UNL     1      25.302   6.822  49.804  1.00  0.00     0.125 C 
HETATM   13  C10 UNL     1      26.168   5.891  49.359  1.00  0.00    -0.038 C 
HETATM   14  C11 UNL     1      26.120   4.544  49.899  1.00  0.00     0.034 C 
HETATM   15  C12 UNL     1      25.131   3.862  50.447  1.00  0.00     0.027 C 
HETATM   16  C18 UNL     1      27.117   6.359  48.322  1.00  0.00     0.047 C 
HETATM   17  C19 UNL     1      26.529   7.509  47.567  1.00  0.00     0.083 C 
HETATM   18  H7  UNL     1      23.356   7.959  46.228  1.00  0.00     0.166 HD
ENDROOT
BRANCH  15  19
HETATM   19  N3  UNL     1      25.490   2.542  50.884  1.00  0.00    -0.328 N 
HETATM   20  C13 UNL     1      26.563   1.964  51.595  1.00  0.00     0.255 C 
HETATM   21  O2  UNL     1      27.546   2.611  52.035  1.00  0.00    -0.271 OA
HETATM   22  H10 UNL     1      24.729   1.864  50.575  1.00  0.00     0.168 HD
BRANCH  20  23
HETATM   23  C14 UNL     1      26.591   0.514  51.871  1.00  0.00     0.311 C 
HETATM   24  C15 UNL     1      27.714   0.089  52.757  1.00  0.00     0.047 C 
HETATM   25  C16 UNL     1      27.056  -0.245  54.060  1.00  0.00     0.033 C 
HETATM   26  C17 UNL     1      25.589  -0.393  53.770  1.00  0.00     0.271 C 
HETATM   27  N4  UNL     1      25.369  -0.003  52.416  1.00  0.00     0.097 N 
HETATM   28  H18 UNL     1      25.030  -0.819  51.874  1.00  0.00     0.317 HD
ENDBRANCH  20  23
ENDBRANCH  15  19
BRANCH   1  29
HETATM   29  P1  UNL     1      23.374   4.565  52.505  1.00  0.00     0.137 P 
HETATM   30  O1  UNL     1      24.156   3.802  53.632  1.00  0.00    -0.202 OA
ENDBRANCH   1  29
TORSDOF 3
ENDMDL
MODEL 3
REMARK VINA RESULT:      -7.5      3.010      6.294
REMARK  3 active torsions:
REMARK  status: ('A' for Active; 'I' for Inactive)
REMARK    1  A    between atoms: P1_2  and  C1_3 
REMARK    2  A    between atoms: C12_17  and  N3_18 
REMARK       I    between atoms: N3_18  and  C13_19 
REMARK    3  A    between atoms: C13_19  and  C14_21 
ROOT
HETATM    1  C1  UNL     1      22.321   2.757  51.704  1.00  0.00     0.124 C 
HETATM    2  C2  UNL     1      21.795   1.613  52.513  1.00  0.00     0.007 C 
HETATM    3  C3  UNL     1      21.094   0.571  53.042  1.00  0.00    -0.005 C 
HETATM    4 BR1  UNL     1      21.679  -0.365  54.659  1.00  0.00    -0.055 Br
HETATM    5  C4  UNL     1      20.029   0.553  52.009  1.00  0.00     0.061 C 
HETATM    6  C5  UNL     1      18.900  -0.000  51.545  1.00  0.00    -0.014 C 
HETATM    7  C6  UNL     1      18.692   0.832  50.344  1.00  0.00     0.014 C 
HETATM    8  C7  UNL     1      18.986   1.794  49.492  1.00  0.00     0.089 C 
HETATM    9  N1  UNL     1      18.792   2.599  48.337  1.00  0.00    -0.354 N 
HETATM   10  C8  UNL     1      19.912   3.214  47.761  1.00  0.00     0.103 C 
HETATM   11  N2  UNL     1      20.243   4.185  48.583  1.00  0.00    -0.247 NA
HETATM   12  C9  UNL     1      21.614   4.169  48.989  1.00  0.00     0.125 C 
HETATM   13  C10 UNL     1      22.422   3.199  48.519  1.00  0.00    -0.038 C 
HETATM   14  C11 UNL     1      23.349   2.534  49.416  1.00  0.00     0.034 C 
HETATM   15  C12 UNL     1      23.314   2.351  50.723  1.00  0.00     0.027 C 
HETATM   16  C18 UNL     1      22.270   2.899  47.076  1.00  0.00     0.047 C 
HETATM   17  C19 UNL     1      20.892   3.257  46.617  1.00  0.00     0.083 C 
HETATM   18  H7  UNL     1      17.791   2.631  48.050  1.00  0.00     0.166 HD
ENDROOT
BRANCH  15  19
HETATM   19  N3  UNL     1      24.449   1.650  51.256  1.00  0.00    -0.328 N 
HETATM   20  C13 UNL     1      25.813   1.942  51.473  1.00  0.00     0.255 C 
HETATM   21  O2  UNL     1      26.351   3.041  51.188  1.00  0.00    -0.271 OA
HETATM   22  H10 UNL     1      24.139   0.675  51.550  1.00  0.00     0.168 HD
BRANCH  20  23
HETATM   23  C14 UNL     1      26.714   0.936  52.069  1.00  0.00     0.311 C 
HETATM   24  C15 UNL     1      27.402   1.399  53.308  1.00  0.00     0.047 C 
HETATM   25  C16 UNL     1      26.738   0.636  54.412  1.00  0.00     0.033 C 
HETATM   26  C17 UNL     1      26.002  -0.500  53.761  1.00  0.00     0.271 C 
HETATM   27  N4  UNL     1      26.085  -0.322  52.348  1.00  0.00     0.097 N 
HETATM   28  H18 UNL     1      26.616  -1.111  51.933  1.00  0.00     0.317 HD
ENDBRANCH  20  23
ENDBRANCH  15  19
BRANCH   1  29
HETATM   29  P1  UNL     1      22.891   4.181  52.794  1.00  0.00     0.137 P 
HETATM   30  O1  UNL     1      23.614   5.427  52.170  1.00  0.00    -0.202 OA
ENDBRANCH   1  29
TORSDOF 3
ENDMDL
MODEL 4
REMARK VINA RESULT:      -7.4      3.063      4.875
REMARK  3 active torsions:
REMARK  status: ('A' for Active; 'I' for Inactive)
REMARK    1  A    between atoms: P1_2  and  C1_3 
REMARK    2  A    between atoms: C12_17  and  N3_18 
REMARK       I    between atoms: N3_18  and  C13_19 
REMARK    3  A    between atoms: C13_19  and  C14_21 
ROOT
HETATM    1  C1  UNL     1      22.535   2.975  51.820  1.00  0.00     0.124 C 
HETATM    2  C2  UNL     1      23.945   2.783  51.357  1.00  0.00     0.007 C 
HETATM    3  C3  UNL     1      25.218   2.363  51.114  1.00  0.00    -0.005 C 
HETATM    4 BR1  UNL     1      26.424   3.329  49.913  1.00  0.00    -0.055 Br
HETATM    5  C4  UNL     1      25.153   1.151  51.967  1.00  0.00     0.061 C 
HETATM    6  C5  UNL     1      25.769   0.065  52.455  1.00  0.00    -0.014 C 
HETATM    7  C6  UNL     1      24.675  -0.492  53.276  1.00  0.00     0.014 C 
HETATM    8  C7  UNL     1      23.462  -0.519  53.787  1.00  0.00     0.089 C 
HETATM    9  N1  UNL     1      22.404  -1.050  54.576  1.00  0.00    -0.354 N 
HETATM   10  C8  UNL     1      21.087  -0.722  54.227  1.00  0.00     0.103 C 
HETATM   11  N2  UNL     1      20.933   0.537  54.574  1.00  0.00    -0.247 NA
HETATM   12  C9  UNL     1      20.439   1.378  53.528  1.00  0.00     0.125 C 
HETATM   13  C10 UNL     1      20.185   0.837  52.321  1.00  0.00    -0.038 C 
HETATM   14  C11 UNL     1      20.592   1.536  51.116  1.00  0.00     0.034 C 
HETATM   15  C12 UNL     1      21.554   2.415  50.904  1.00  0.00     0.027 C 
HETATM   16  C18 UNL     1      19.489  -0.471  52.352  1.00  0.00     0.047 C 
HETATM   17  C19 UNL     1      19.776  -1.178  53.640  1.00  0.00     0.083 C 
HETATM   18  H7  UNL     1      22.760  -1.647  55.352  1.00  0.00     0.166 HD
ENDROOT
BRANCH  15  19
HETATM   19  N3  UNL     1      21.628   2.902  49.555  1.00  0.00    -0.328 N 
HETATM   20  C13 UNL     1      21.723   2.325  48.271  1.00  0.00     0.255 C 
HETATM   21  O2  UNL     1      21.769   1.088  48.057  1.00  0.00    -0.271 OA
HETATM   22  H10 UNL     1      21.600   3.966  49.577  1.00  0.00     0.168 HD
BRANCH  20  23
HETATM   23  C14 UNL     1      21.777   3.174  47.065  1.00  0.00     0.311 C 
HETATM   24  C15 UNL     1      20.438   3.498  46.493  1.00  0.00     0.047 C 
HETATM   25  C16 UNL     1      20.233   4.945  46.818  1.00  0.00     0.033 C 
HETATM   26  C17 UNL     1      21.582   5.493  47.188  1.00  0.00     0.271 C 
HETATM   27  N4  UNL     1      22.498   4.401  47.243  1.00  0.00     0.097 N 
HETATM   28  H18 UNL     1      23.223   4.523  46.512  1.00  0.00     0.317 HD
ENDBRANCH  20  23
ENDBRANCH  15  19
BRANCH   1  29
HETATM   29  P1  UNL     1      22.187   4.767  52.277  1.00  0.00     0.137 P 
HETATM   30  O1  UNL     1      21.538   5.747  51.236  1.00  0.00    -0.202 OA
ENDBRANCH   1  29
TORSDOF 3
ENDMDL
MODEL 5
REMARK VINA RESULT:      -7.3      9.041     11.011
REMARK  3 active torsions:
REMARK  status: ('A' for Active; 'I' for Inactive)
REMARK    1  A    between atoms: P1_2  and  C1_3 
REMARK    2  A    between atoms: C12_17  and  N3_18 
REMARK       I    between atoms: N3_18  and  C13_19 
REMARK    3  A    between atoms: C13_19  and  C14_21 
ROOT
HETATM    1  C1  UNL     1      31.526   7.557  47.194  1.00  0.00     0.124 C 
HETATM    2  C2  UNL     1      31.040   8.161  45.914  1.00  0.00     0.007 C 
HETATM    3  C3  UNL     1      30.813   8.537  44.624  1.00  0.00    -0.005 C 
HETATM    4 BR1  UNL     1      29.423   9.828  44.144  1.00  0.00    -0.055 Br
HETATM    5  C4  UNL     1      31.849   7.665  44.018  1.00  0.00     0.061 C 
HETATM    6  C5  UNL     1      32.476   7.237  42.913  1.00  0.00    -0.014 C 
HETATM    7  C6  UNL     1      33.421   6.279  43.520  1.00  0.00     0.014 C 
HETATM    8  C7  UNL     1      33.982   5.624  44.516  1.00  0.00     0.089 C 
HETATM    9  N1  UNL     1      34.889   4.702  45.107  1.00  0.00    -0.354 N 
HETATM   10  C8  UNL     1      34.549   4.137  46.343  1.00  0.00     0.103 C 
HETATM   11  N2  UNL     1      34.698   5.100  47.226  1.00  0.00    -0.247 NA
HETATM   12  C9  UNL     1      33.554   5.319  48.056  1.00  0.00     0.125 C 
HETATM   13  C10 UNL     1      32.460   4.555  47.873  1.00  0.00    -0.038 C 
HETATM   14  C11 UNL     1      31.144   5.164  47.881  1.00  0.00     0.034 C 
HETATM   15  C12 UNL     1      30.754   6.395  47.605  1.00  0.00     0.027 C 
HETATM   16  C18 UNL     1      32.728   3.111  47.672  1.00  0.00     0.047 C 
HETATM   17  C19 UNL     1      34.098   2.915  47.102  1.00  0.00     0.083 C 
HETATM   18  H7  UNL     1      35.734   4.556  44.516  1.00  0.00     0.166 HD
ENDROOT
BRANCH  15  19
HETATM   19  N3  UNL     1      29.343   6.620  47.751  1.00  0.00    -0.328 N 
HETATM   20  C13 UNL     1      28.246   5.892  48.259  1.00  0.00     0.255 C 
HETATM   21  O2  UNL     1      28.332   4.738  48.748  1.00  0.00    -0.271 OA
HETATM   22  H10 UNL     1      29.112   7.586  47.369  1.00  0.00     0.168 HD
BRANCH  20  23
HETATM   23  C14 UNL     1      26.887   6.468  48.245  1.00  0.00     0.311 C 
HETATM   24  C15 UNL     1      25.850   5.585  48.854  1.00  0.00     0.047 C 
HETATM   25  C16 UNL     1      25.510   6.250  50.153  1.00  0.00     0.033 C 
HETATM   26  C17 UNL     1      26.037   7.654  50.062  1.00  0.00     0.271 C 
HETATM   27  N4  UNL     1      26.791   7.761  48.857  1.00  0.00     0.097 N 
HETATM   28  H18 UNL     1      26.334   8.445  48.225  1.00  0.00     0.317 HD
ENDBRANCH  20  23
ENDBRANCH  15  19
BRANCH   1  29
HETATM   29  P1  UNL     1      31.708   8.848  48.552  1.00  0.00     0.137 P 
HETATM   30  O1  UNL     1      30.493   9.213  49.475  1.00  0.00    -0.202 OA
ENDBRANCH   1  29
TORSDOF 3
ENDMDL
MODEL 6
REMARK VINA RESULT:      -7.2      2.453      3.054
REMARK  3 active torsions:
REMARK  status: ('A' for Active; 'I' for Inactive)
REMARK    1  A    between atoms: P1_2  and  C1_3 
REMARK    2  A    between atoms: C12_17  and  N3_18 
REMARK       I    between atoms: N3_18  and  C13_19 
REMARK    3  A    between atoms: C13_19  and  C14_21 
ROOT
HETATM    1  C1  UNL     1      21.553   1.275  50.723  1.00  0.00     0.124 C 
HETATM    2  C2  UNL     1      20.319   0.642  51.283  1.00  0.00     0.007 C 
HETATM    3  C3  UNL     1      19.386  -0.048  51.999  1.00  0.00    -0.005 C 
HETATM    4 BR1  UNL     1      17.491  -0.053  51.511  1.00  0.00    -0.055 Br
HETATM    5  C4  UNL     1      20.325  -0.571  53.023  1.00  0.00     0.061 C 
HETATM    6  C5  UNL     1      20.514  -1.306  54.127  1.00  0.00    -0.014 C 
HETATM    7  C6  UNL     1      21.968  -1.121  54.303  1.00  0.00     0.014 C 
HETATM    8  C7  UNL     1      23.157  -0.650  53.989  1.00  0.00     0.089 C 
HETATM    9  N1  UNL     1      24.558  -0.467  54.152  1.00  0.00    -0.354 N 
HETATM   10  C8  UNL     1      25.144   0.683  53.606  1.00  0.00     0.103 C 
HETATM   11  N2  UNL     1      25.156   0.491  52.306  1.00  0.00    -0.247 NA
HETATM   12  C9  UNL     1      24.570   1.554  51.549  1.00  0.00     0.125 C 
HETATM   13  C10 UNL     1      24.072   2.622  52.203  1.00  0.00    -0.038 C 
HETATM   14  C11 UNL     1      22.795   3.182  51.803  1.00  0.00     0.034 C 
HETATM   15  C12 UNL     1      21.759   2.636  51.194  1.00  0.00     0.027 C 
HETATM   16  C18 UNL     1      24.916   3.131  53.310  1.00  0.00     0.047 C 
HETATM   17  C19 UNL     1      25.772   2.031  53.855  1.00  0.00     0.083 C 
HETATM   18  H7  UNL     1      24.992  -1.250  54.684  1.00  0.00     0.166 HD
ENDROOT
BRANCH  15  19
HETATM   19  N3  UNL     1      20.669   3.538  50.948  1.00  0.00    -0.328 N 
HETATM   20  C13 UNL     1      20.403   4.586  50.040  1.00  0.00     0.255 C 
HETATM   21  O2  UNL     1      21.205   4.969  49.153  1.00  0.00    -0.271 OA
HETATM   22  H10 UNL     1      19.890   3.329  51.644  1.00  0.00     0.168 HD
BRANCH  20  23
HETATM   23  C14 UNL     1      19.121   5.316  50.086  1.00  0.00     0.311 C 
HETATM   24  C15 UNL     1      18.741   5.952  48.791  1.00  0.00     0.047 C 
HETATM   25  C16 UNL     1      17.604   5.118  48.285  1.00  0.00     0.033 C 
HETATM   26  C17 UNL     1      17.114   4.313  49.455  1.00  0.00     0.271 C 
HETATM   27  N4  UNL     1      18.013   4.528  50.541  1.00  0.00     0.097 N 
HETATM   28  H18 UNL     1      17.509   4.997  51.317  1.00  0.00     0.317 HD
ENDBRANCH  20  23
ENDBRANCH  15  19
BRANCH   1  29
HETATM   29  P1  UNL     1      21.633   1.117  48.850  1.00  0.00     0.137 P 
HETATM   30  O1  UNL     1      22.497   2.113  47.999  1.00  0.00    -0.202 OA
ENDBRANCH   1  29
TORSDOF 3
ENDMDL
MODEL 7
REMARK VINA RESULT:      -7.1      3.658      5.091
REMARK  3 active torsions:
REMARK  status: ('A' for Active; 'I' for Inactive)
REMARK    1  A    between atoms: P1_2  and  C1_3 
REMARK    2  A    between atoms: C12_17  and  N3_18 
REMARK       I    between atoms: N3_18  and  C13_19 
REMARK    3  A    between atoms: C13_19  and  C14_21 
ROOT
HETATM    1  C1  UNL     1      23.366   4.028  50.707  1.00  0.00     0.124 C 
HETATM    2  C2  UNL     1      24.797   3.982  50.272  1.00  0.00     0.007 C 
HETATM    3  C3  UNL     1      26.112   3.697  50.056  1.00  0.00    -0.005 C 
HETATM    4 BR1  UNL     1      27.233   4.779  48.872  1.00  0.00    -0.055 Br
HETATM    5  C4  UNL     1      26.157   2.488  50.916  1.00  0.00     0.061 C 
HETATM    6  C5  UNL     1      26.874   1.475  51.422  1.00  0.00    -0.014 C 
HETATM    7  C6  UNL     1      25.829   0.810  52.226  1.00  0.00     0.014 C 
HETATM    8  C7  UNL     1      24.615   0.659  52.715  1.00  0.00     0.089 C 
HETATM    9  N1  UNL     1      23.604   0.023  53.486  1.00  0.00    -0.354 N 
HETATM   10  C8  UNL     1      22.267   0.210  53.110  1.00  0.00     0.103 C 
HETATM   11  N2  UNL     1      21.975   1.447  53.446  1.00  0.00    -0.247 NA
HETATM   12  C9  UNL     1      21.416   2.227  52.386  1.00  0.00     0.125 C 
HETATM   13  C10 UNL     1      21.244   1.656  51.178  1.00  0.00    -0.038 C 
HETATM   14  C11 UNL     1      21.598   2.389  49.976  1.00  0.00     0.034 C 
HETATM   15  C12 UNL     1      22.467   3.363  49.777  1.00  0.00     0.027 C 
HETATM   16  C18 UNL     1      20.688   0.283  51.205  1.00  0.00     0.047 C 
HETATM   17  C19 UNL     1      21.022  -0.384  52.502  1.00  0.00     0.083 C 
HETATM   18  H7  UNL     1      24.006  -0.529  54.273  1.00  0.00     0.166 HD
ENDROOT
BRANCH  15  19
HETATM   19  N3  UNL     1      22.516   3.849  48.426  1.00  0.00    -0.328 N 
HETATM   20  C13 UNL     1      21.689   4.641  47.601  1.00  0.00     0.255 C 
HETATM   21  O2  UNL     1      20.592   5.131  47.968  1.00  0.00    -0.271 OA
HETATM   22  H10 UNL     1      23.417   3.505  47.974  1.00  0.00     0.168 HD
BRANCH  20  23
HETATM   23  C14 UNL     1      22.082   4.948  46.212  1.00  0.00     0.311 C 
HETATM   24  C15 UNL     1      21.969   3.787  45.282  1.00  0.00     0.047 C 
HETATM   25  C16 UNL     1      20.784   4.110  44.424  1.00  0.00     0.033 C 
HETATM   26  C17 UNL     1      20.516   5.577  44.605  1.00  0.00     0.271 C 
HETATM   27  N4  UNL     1      21.379   6.056  45.634  1.00  0.00     0.097 N 
HETATM   28  H18 UNL     1      22.035   6.754  45.237  1.00  0.00     0.317 HD
ENDBRANCH  20  23
ENDBRANCH  15  19
BRANCH   1  29
HETATM   29  P1  UNL     1      22.823   5.775  51.145  1.00  0.00     0.137 P 
HETATM   30  O1  UNL     1      21.316   6.198  51.029  1.00  0.00    -0.202 OA
ENDBRANCH   1  29
TORSDOF 3
ENDMDL
MODEL 8
REMARK VINA RESULT:      -7.0      5.894      8.993
REMARK  3 active torsions:
REMARK  status: ('A' for Active; 'I' for Inactive)
REMARK    1  A    between atoms: P1_2  and  C1_3 
REMARK    2  A    between atoms: C12_17  and  N3_18 
REMARK       I    between atoms: N3_18  and  C13_19 
REMARK    3  A    between atoms: C13_19  and  C14_21 
ROOT
HETATM    1  C1  UNL     1      26.836   7.589  48.401  1.00  0.00     0.124 C 
HETATM    2  C2  UNL     1      25.765   7.807  47.379  1.00  0.00     0.007 C 
HETATM    3  C3  UNL     1      25.024   8.070  46.266  1.00  0.00    -0.005 C 
HETATM    4 BR1  UNL     1      23.070   7.953  46.263  1.00  0.00    -0.055 Br
HETATM    5  C4  UNL     1      26.173   8.355  45.371  1.00  0.00     0.061 C 
HETATM    6  C5  UNL     1      26.611   8.699  44.152  1.00  0.00    -0.014 C 
HETATM    7  C6  UNL     1      28.066   8.685  44.399  1.00  0.00     0.014 C 
HETATM    8  C7  UNL     1      29.151   8.530  45.130  1.00  0.00     0.089 C 
HETATM    9  N1  UNL     1      30.552   8.514  45.375  1.00  0.00    -0.354 N 
HETATM   10  C8  UNL     1      31.034   7.714  46.420  1.00  0.00     0.103 C 
HETATM   11  N2  UNL     1      30.682   8.329  47.528  1.00  0.00    -0.247 NA
HETATM   12  C9  UNL     1      29.975   7.505  48.458  1.00  0.00     0.125 C 
HETATM   13  C10 UNL     1      29.735   6.219  48.138  1.00  0.00    -0.038 C 
HETATM   14  C11 UNL     1      28.431   5.640  48.405  1.00  0.00     0.034 C 
HETATM   15  C12 UNL     1      27.239   6.196  48.515  1.00  0.00     0.027 C 
HETATM   16  C18 UNL     1      30.874   5.501  47.519  1.00  0.00     0.047 C 
HETATM   17  C19 UNL     1      31.781   6.471  46.829  1.00  0.00     0.083 C 
HETATM   18  H7  UNL     1      31.069   9.130  44.713  1.00  0.00     0.166 HD
ENDROOT
BRANCH  15  19
HETATM   19  N3  UNL     1      26.177   5.275  48.810  1.00  0.00    -0.328 N 
HETATM   20  C13 UNL     1      26.045   4.081  49.549  1.00  0.00     0.255 C 
HETATM   21  O2  UNL     1      26.987   3.531  50.173  1.00  0.00    -0.271 OA
HETATM   22  H10 UNL     1      25.288   5.619  48.335  1.00  0.00     0.168 HD
BRANCH  20  23
HETATM   23  C14 UNL     1      24.746   3.385  49.633  1.00  0.00     0.311 C 
HETATM   24  C15 UNL     1      24.539   2.643  50.910  1.00  0.00     0.047 C 
HETATM   25  C16 UNL     1      23.519   3.451  51.651  1.00  0.00     0.033 C 
HETATM   26  C17 UNL     1      22.890   4.370  50.643  1.00  0.00     0.271 C 
HETATM   27  N4  UNL     1      23.611   4.235  49.419  1.00  0.00     0.097 N 
HETATM   28  H18 UNL     1      22.982   3.850  48.690  1.00  0.00     0.317 HD
ENDBRANCH  20  23
ENDBRANCH  15  19
BRANCH   1  29
HETATM   29  P1  UNL     1      26.397   8.374  50.054  1.00  0.00     0.137 P 
HETATM   30  O1  UNL     1      27.206   9.605  50.595  1.00  0.00    -0.202 OA
ENDBRANCH   1  29
TORSDOF 3
ENDMDL
MODEL 9
REMARK VINA RESULT:      -7.0     10.924     13.255
REMARK  3 active torsions:
REMARK  status: ('A' for Active; 'I' for Inactive)
REMARK    1  A    between atoms: P1_2  and  C1_3 
REMARK    2  A    between atoms: C12_17  and  N3_18 
REMARK       I    between atoms: N3_18  and  C13_19 
REMARK    3  A    between atoms: C13_19  and  C14_21 
ROOT
HETATM    1  C1  UNL     1      33.384   7.226  47.374  1.00  0.00     0.124 C 
HETATM    2  C2  UNL     1      32.806   5.847  47.418  1.00  0.00     0.007 C 
HETATM    3  C3  UNL     1      32.021   4.737  47.524  1.00  0.00    -0.005 C 
HETATM    4 BR1  UNL     1      32.729   2.931  47.265  1.00  0.00    -0.055 Br
HETATM    5  C4  UNL     1      30.758   5.461  47.810  1.00  0.00     0.061 C 
HETATM    6  C5  UNL     1      29.444   5.402  48.073  1.00  0.00    -0.014 C 
HETATM    7  C6  UNL     1      29.151   6.845  48.188  1.00  0.00     0.014 C 
HETATM    8  C7  UNL     1      29.449   8.128  48.179  1.00  0.00     0.089 C 
HETATM    9  N1  UNL     1      29.174   9.518  48.289  1.00  0.00    -0.354 N 
HETATM   10  C8  UNL     1      30.020  10.417  47.625  1.00  0.00     0.103 C 
HETATM   11  N2  UNL     1      31.142  10.419  48.310  1.00  0.00    -0.247 NA
HETATM   12  C9  UNL     1      32.311  10.174  47.525  1.00  0.00     0.125 C 
HETATM   13  C10 UNL     1      32.175   9.967  46.201  1.00  0.00    -0.038 C 
HETATM   14  C11 UNL     1      32.927   8.908  45.555  1.00  0.00     0.034 C 
HETATM   15  C12 UNL     1      33.427   7.782  46.030  1.00  0.00     0.027 C 
HETATM   16  C18 UNL     1      31.230  10.880  45.515  1.00  0.00     0.047 C 
HETATM   17  C19 UNL     1      30.204  11.382  46.482  1.00  0.00     0.083 C 
HETATM   18  H7  UNL     1      28.335   9.703  48.878  1.00  0.00     0.166 HD
ENDROOT
BRANCH  15  19
HETATM   19  N3  UNL     1      34.138   6.991  45.065  1.00  0.00    -0.328 N 
HETATM   20  C13 UNL     1      33.795   6.220  43.933  1.00  0.00     0.255 C 
HETATM   21  O2  UNL     1      32.621   6.068  43.514  1.00  0.00    -0.271 OA
HETATM   22  H10 UNL     1      35.176   7.025  45.296  1.00  0.00     0.168 HD
BRANCH  20  23
HETATM   23  C14 UNL     1      34.836   5.523  43.153  1.00  0.00     0.311 C 
HETATM   24  C15 UNL     1      34.383   5.077  41.803  1.00  0.00     0.047 C 
HETATM   25  C16 UNL     1      35.080   6.000  40.851  1.00  0.00     0.033 C 
HETATM   26  C17 UNL     1      36.188   6.653  41.627  1.00  0.00     0.271 C 
HETATM   27  N4  UNL     1      36.050   6.270  42.994  1.00  0.00     0.097 N 
HETATM   28  H18 UNL     1      36.877   5.714  43.281  1.00  0.00     0.317 HD
ENDBRANCH  20  23
ENDBRANCH  15  19
BRANCH   1  29
HETATM   29  P1  UNL     1      35.035   7.322  48.271  1.00  0.00     0.137 P 
HETATM   30  O1  UNL     1      35.908   8.624  48.202  1.00  0.00    -0.202 OA
ENDBRANCH   1  29
TORSDOF 3
ENDMDL
