MODEL 1
REMARK VINA RESULT:      -8.3      0.000      0.000
REMARK  5 active torsions:
REMARK  status: ('A' for Active; 'I' for Inactive)
REMARK    1  A    between atoms: C5_7  and  N3_8 
REMARK    2  A    between atoms: C7_10  and  C8_11 
REMARK    3  A    between atoms: C8_11  and  C9_12 
REMARK    4  A    between atoms: C9_12  and  C10_13 
REMARK    5  A    between atoms: C10_13  and  C11_14 
ROOT
HETATM    1  N3  UNL     1      24.487  -0.767  54.382  1.00  0.00    -0.229 N 
HETATM    2  C6  UNL     1      23.480  -0.434  53.555  1.00  0.00     0.149 A 
HETATM    3  C7  UNL     1      22.277  -0.806  54.127  1.00  0.00     0.076 A 
HETATM    4  N4  UNL     1      22.610  -1.371  55.321  1.00  0.00    -0.135 NA
HETATM    5  N5  UNL     1      23.923  -1.332  55.443  1.00  0.00    -0.061 NA
ENDROOT
BRANCH   1   6
HETATM    6  C5  UNL     1      25.877  -0.532  54.116  1.00  0.00     0.043 A 
HETATM    7  C4  UNL     1      26.549   0.491  54.958  1.00  0.00     0.122 A 
HETATM    8  C3  UNL     1      27.963   0.571  54.520  1.00  0.00     0.088 A 
HETATM    9  C2  UNL     1      28.612  -0.201  53.455  1.00  0.00     0.076 A 
HETATM   10  N2  UNL     1      29.040   1.221  54.813  1.00  0.00    -0.176 NA
HETATM   11  C1  UNL     1      27.847  -1.069  52.813  1.00  0.00     0.035 A 
HETATM   12  N1  UNL     1      29.778   0.541  53.815  1.00  0.00    -0.276 N 
HETATM   13  C17 UNL     1      26.439  -1.234  53.161  1.00  0.00     0.030 A 
HETATM   14  H2  UNL     1      30.749   0.512  53.424  1.00  0.00     0.189 HD
ENDBRANCH   1   6
BRANCH   3  15
HETATM   15  C8  UNL     1      20.851  -0.695  53.687  1.00  0.00     0.063 C 
BRANCH  15  16
HETATM   16  C9  UNL     1      20.678   0.536  52.858  1.00  0.00     0.011 C 
BRANCH  16  17
HETATM   17  C10 UNL     1      20.532   0.206  51.399  1.00  0.00     0.039 C 
BRANCH  17  18
HETATM   18  C11 UNL     1      21.397   1.025  50.534  1.00  0.00    -0.058 A 
HETATM   19  C12 UNL     1      22.410   1.856  50.970  1.00  0.00     0.007 A 
HETATM   20  C13 UNL     1      23.198   2.607  50.117  1.00  0.00     0.001 A 
HETATM   21  C14 UNL     1      22.967   2.529  48.763  1.00  0.00     0.000 A 
HETATM   22  C15 UNL     1      21.965   1.713  48.280  1.00  0.00     0.001 A 
HETATM   23  C16 UNL     1      21.184   0.964  49.159  1.00  0.00     0.007 A 
ENDBRANCH  17  18
ENDBRANCH  16  17
ENDBRANCH  15  16
ENDBRANCH   3  15
TORSDOF 5
ENDMDL
MODEL 2
REMARK VINA RESULT:      -8.0      2.084      3.828
REMARK  5 active torsions:
REMARK  status: ('A' for Active; 'I' for Inactive)
REMARK    1  A    between atoms: C5_7  and  N3_8 
REMARK    2  A    between atoms: C7_10  and  C8_11 
REMARK    3  A    between atoms: C8_11  and  C9_12 
REMARK    4  A    between atoms: C9_12  and  C10_13 
REMARK    5  A    between atoms: C10_13  and  C11_14 
ROOT
HETATM    1  N3  UNL     1      25.572   1.916  52.774  1.00  0.00    -0.229 N 
HETATM    2  C6  UNL     1      24.857   1.697  51.656  1.00  0.00     0.149 A 
HETATM    3  C7  UNL     1      23.720   2.484  51.679  1.00  0.00     0.076 A 
HETATM    4  N4  UNL     1      23.789   3.176  52.851  1.00  0.00    -0.135 NA
HETATM    5  N5  UNL     1      24.895   2.819  53.475  1.00  0.00    -0.061 NA
ENDROOT
BRANCH   1   6
HETATM    6  C5  UNL     1      26.814   1.273  53.092  1.00  0.00     0.043 A 
HETATM    7  C4  UNL     1      26.852  -0.205  52.943  1.00  0.00     0.122 A 
HETATM    8  C3  UNL     1      28.213  -0.656  53.319  1.00  0.00     0.088 A 
HETATM    9  C2  UNL     1      29.339   0.174  53.759  1.00  0.00     0.076 A 
HETATM   10  N2  UNL     1      28.887  -1.755  53.409  1.00  0.00    -0.176 NA
HETATM   11  C1  UNL     1      29.112   1.476  53.830  1.00  0.00     0.035 A 
HETATM   12  N1  UNL     1      30.043  -1.065  53.844  1.00  0.00    -0.276 N 
HETATM   13  C17 UNL     1      27.809   2.034  53.484  1.00  0.00     0.030 A 
HETATM   14  H2  UNL     1      31.030  -1.266  54.130  1.00  0.00     0.189 HD
ENDBRANCH   1   6
BRANCH   3  15
HETATM   15  C8  UNL     1      22.575   2.665  50.733  1.00  0.00     0.063 C 
BRANCH  15  16
HETATM   16  C9  UNL     1      22.175   1.339  50.172  1.00  0.00     0.011 C 
BRANCH  16  17
HETATM   17  C10 UNL     1      20.950   0.795  50.853  1.00  0.00     0.039 C 
BRANCH  17  18
HETATM   18  C11 UNL     1      21.224   0.278  52.204  1.00  0.00    -0.058 A 
HETATM   19  C12 UNL     1      22.156  -0.691  52.518  1.00  0.00     0.007 A 
HETATM   20  C13 UNL     1      22.379  -1.145  53.805  1.00  0.00     0.001 A 
HETATM   21  C14 UNL     1      21.638  -0.608  54.832  1.00  0.00     0.000 A 
HETATM   22  C15 UNL     1      20.695   0.364  54.568  1.00  0.00     0.001 A 
HETATM   23  C16 UNL     1      20.488   0.806  53.262  1.00  0.00     0.007 A 
ENDBRANCH  17  18
ENDBRANCH  16  17
ENDBRANCH  15  16
ENDBRANCH   3  15
TORSDOF 5
ENDMDL
MODEL 3
REMARK VINA RESULT:      -8.0      3.855      5.297
REMARK  5 active torsions:
REMARK  status: ('A' for Active; 'I' for Inactive)
REMARK    1  A    between atoms: C5_7  and  N3_8 
REMARK    2  A    between atoms: C7_10  and  C8_11 
REMARK    3  A    between atoms: C8_11  and  C9_12 
REMARK    4  A    between atoms: C9_12  and  C10_13 
REMARK    5  A    between atoms: C10_13  and  C11_14 
ROOT
HETATM    1  N3  UNL     1      25.775   1.929  52.632  1.00  0.00    -0.229 N 
HETATM    2  C6  UNL     1      25.440   2.395  51.415  1.00  0.00     0.149 A 
HETATM    3  C7  UNL     1      24.465   3.365  51.549  1.00  0.00     0.076 A 
HETATM    4  N4  UNL     1      24.235   3.457  52.889  1.00  0.00    -0.135 NA
HETATM    5  N5  UNL     1      25.025   2.597  53.502  1.00  0.00    -0.061 NA
ENDROOT
BRANCH   1   6
HETATM    6  C5  UNL     1      26.756   0.913  52.879  1.00  0.00     0.043 A 
HETATM    7  C4  UNL     1      26.338  -0.490  52.621  1.00  0.00     0.122 A 
HETATM    8  C3  UNL     1      27.491  -1.365  52.937  1.00  0.00     0.088 A 
HETATM    9  C2  UNL     1      28.816  -0.957  53.418  1.00  0.00     0.076 A 
HETATM   10  N2  UNL     1      27.793  -2.621  52.934  1.00  0.00    -0.176 NA
HETATM   11  C1  UNL     1      29.000   0.343  53.589  1.00  0.00     0.035 A 
HETATM   12  N1  UNL     1      29.103  -2.355  53.399  1.00  0.00    -0.276 N 
HETATM   13  C17 UNL     1      27.935   1.299  53.308  1.00  0.00     0.030 A 
HETATM   14  H2  UNL     1      29.979  -2.872  53.651  1.00  0.00     0.189 HD
ENDBRANCH   1   6
BRANCH   3  15
HETATM   15  C8  UNL     1      23.721   4.219  50.571  1.00  0.00     0.063 C 
BRANCH  15  16
HETATM   16  C9  UNL     1      24.422   5.530  50.417  1.00  0.00     0.011 C 
BRANCH  16  17
HETATM   17  C10 UNL     1      24.643   5.876  48.972  1.00  0.00     0.039 C 
BRANCH  17  18
HETATM   18  C11 UNL     1      26.068   5.999  48.620  1.00  0.00    -0.058 A 
HETATM   19  C12 UNL     1      27.027   5.024  48.810  1.00  0.00     0.007 A 
HETATM   20  C13 UNL     1      28.356   5.187  48.463  1.00  0.00     0.001 A 
HETATM   21  C14 UNL     1      28.750   6.378  47.898  1.00  0.00     0.000 A 
HETATM   22  C15 UNL     1      27.828   7.382  47.689  1.00  0.00     0.001 A 
HETATM   23  C16 UNL     1      26.493   7.195  48.047  1.00  0.00     0.007 A 
ENDBRANCH  17  18
ENDBRANCH  16  17
ENDBRANCH  15  16
ENDBRANCH   3  15
TORSDOF 5
ENDMDL
MODEL 4
REMARK VINA RESULT:      -7.8      3.796      6.597
REMARK  5 active torsions:
REMARK  status: ('A' for Active; 'I' for Inactive)
REMARK    1  A    between atoms: C5_7  and  N3_8 
REMARK    2  A    between atoms: C7_10  and  C8_11 
REMARK    3  A    between atoms: C8_11  and  C9_12 
REMARK    4  A    between atoms: C9_12  and  C10_13 
REMARK    5  A    between atoms: C10_13  and  C11_14 
ROOT
HETATM    1  N3  UNL     1      24.286   0.442  52.772  1.00  0.00    -0.229 N 
HETATM    2  C6  UNL     1      24.533   1.560  52.066  1.00  0.00     0.149 A 
HETATM    3  C7  UNL     1      25.899   1.719  51.923  1.00  0.00     0.076 A 
HETATM    4  N4  UNL     1      26.451   0.655  52.570  1.00  0.00    -0.135 NA
HETATM    5  N5  UNL     1      25.473  -0.081  53.061  1.00  0.00    -0.061 NA
ENDROOT
BRANCH   1   6
HETATM    6  C5  UNL     1      22.980  -0.039  53.115  1.00  0.00     0.043 A 
HETATM    7  C4  UNL     1      21.853   0.443  52.274  1.00  0.00     0.122 A 
HETATM    8  C3  UNL     1      20.611  -0.172  52.797  1.00  0.00     0.088 A 
HETATM    9  C2  UNL     1      20.479  -1.091  53.932  1.00  0.00     0.076 A 
HETATM   10  N2  UNL     1      19.344  -0.177  52.545  1.00  0.00    -0.176 NA
HETATM   11  C1  UNL     1      21.600  -1.407  54.561  1.00  0.00     0.035 A 
HETATM   12  N1  UNL     1      19.087  -1.066  53.615  1.00  0.00    -0.276 N 
HETATM   13  C17 UNL     1      22.884  -0.862  54.133  1.00  0.00     0.030 A 
HETATM   14  H2  UNL     1      18.279  -1.555  54.068  1.00  0.00     0.189 HD
ENDBRANCH   1   6
BRANCH   3  15
HETATM   15  C8  UNL     1      26.750   2.751  51.251  1.00  0.00     0.063 C 
BRANCH  15  16
HETATM   16  C9  UNL     1      26.367   2.853  49.810  1.00  0.00     0.011 C 
BRANCH  16  17
HETATM   17  C10 UNL     1      25.667   4.149  49.513  1.00  0.00     0.039 C 
BRANCH  17  18
HETATM   18  C11 UNL     1      26.580   5.198  49.029  1.00  0.00    -0.058 A 
HETATM   19  C12 UNL     1      26.290   6.547  48.965  1.00  0.00     0.007 A 
HETATM   20  C13 UNL     1      27.181   7.497  48.502  1.00  0.00     0.001 A 
HETATM   21  C14 UNL     1      28.425   7.085  48.081  1.00  0.00     0.000 A 
HETATM   22  C15 UNL     1      28.761   5.748  48.125  1.00  0.00     0.001 A 
HETATM   23  C16 UNL     1      27.845   4.808  48.596  1.00  0.00     0.007 A 
ENDBRANCH  17  18
ENDBRANCH  16  17
ENDBRANCH  15  16
ENDBRANCH   3  15
TORSDOF 5
ENDMDL
MODEL 5
REMARK VINA RESULT:      -7.7      2.840      4.569
REMARK  5 active torsions:
REMARK  status: ('A' for Active; 'I' for Inactive)
REMARK    1  A    between atoms: C5_7  and  N3_8 
REMARK    2  A    between atoms: C7_10  and  C8_11 
REMARK    3  A    between atoms: C8_11  and  C9_12 
REMARK    4  A    between atoms: C9_12  and  C10_13 
REMARK    5  A    between atoms: C10_13  and  C11_14 
ROOT
HETATM    1  N3  UNL     1      24.110  -0.019  53.689  1.00  0.00    -0.229 N 
HETATM    2  C6  UNL     1      23.154   0.594  52.968  1.00  0.00     0.149 A 
HETATM    3  C7  UNL     1      21.920   0.076  53.312  1.00  0.00     0.076 A 
HETATM    4  N4  UNL     1      22.180  -0.866  54.262  1.00  0.00    -0.135 NA
HETATM    5  N5  UNL     1      23.483  -0.898  54.463  1.00  0.00    -0.061 NA
ENDROOT
BRANCH   1   6
HETATM    6  C5  UNL     1      25.513   0.263  53.597  1.00  0.00     0.043 A 
HETATM    7  C4  UNL     1      25.946   1.622  54.015  1.00  0.00     0.122 A 
HETATM    8  C3  UNL     1      27.416   1.696  53.841  1.00  0.00     0.088 A 
HETATM    9  C2  UNL     1      28.311   0.642  53.351  1.00  0.00     0.076 A 
HETATM   10  N2  UNL     1      28.376   2.543  54.008  1.00  0.00    -0.176 NA
HETATM   11  C1  UNL     1      27.738  -0.506  53.026  1.00  0.00     0.035 A 
HETATM   12  N1  UNL     1      29.339   1.612  53.551  1.00  0.00    -0.276 N 
HETATM   13  C17 UNL     1      26.297  -0.693  53.156  1.00  0.00     0.030 A 
HETATM   14  H2  UNL     1      30.372   1.549  53.389  1.00  0.00     0.189 HD
ENDBRANCH   1   6
BRANCH   3  15
HETATM   15  C8  UNL     1      20.522   0.358  52.856  1.00  0.00     0.063 C 
BRANCH  15  16
HETATM   16  C9  UNL     1      19.625  -0.765  53.270  1.00  0.00     0.011 C 
BRANCH  16  17
HETATM   17  C10 UNL     1      18.204  -0.525  52.844  1.00  0.00     0.039 C 
BRANCH  17  18
HETATM   18  C11 UNL     1      17.370  -1.736  52.919  1.00  0.00    -0.058 A 
HETATM   19  C12 UNL     1      16.122  -1.887  52.346  1.00  0.00     0.007 A 
HETATM   20  C13 UNL     1      15.374  -3.045  52.444  1.00  0.00     0.001 A 
HETATM   21  C14 UNL     1      15.893  -4.109  53.146  1.00  0.00     0.000 A 
HETATM   22  C15 UNL     1      17.136  -4.006  53.735  1.00  0.00     0.001 A 
HETATM   23  C16 UNL     1      17.872  -2.827  53.624  1.00  0.00     0.007 A 
ENDBRANCH  17  18
ENDBRANCH  16  17
ENDBRANCH  15  16
ENDBRANCH   3  15
TORSDOF 5
ENDMDL
MODEL 6
REMARK VINA RESULT:      -7.6      3.040      4.338
REMARK  5 active torsions:
REMARK  status: ('A' for Active; 'I' for Inactive)
REMARK    1  A    between atoms: C5_7  and  N3_8 
REMARK    2  A    between atoms: C7_10  and  C8_11 
REMARK    3  A    between atoms: C8_11  and  C9_12 
REMARK    4  A    between atoms: C9_12  and  C10_13 
REMARK    5  A    between atoms: C10_13  and  C11_14 
ROOT
HETATM    1  N3  UNL     1      24.478   1.441  52.341  1.00  0.00    -0.229 N 
HETATM    2  C6  UNL     1      24.309   1.842  51.068  1.00  0.00     0.149 A 
HETATM    3  C7  UNL     1      23.058   2.414  50.931  1.00  0.00     0.076 A 
HETATM    4  N4  UNL     1      22.493   2.337  52.168  1.00  0.00    -0.135 NA
HETATM    5  N5  UNL     1      23.357   1.758  52.980  1.00  0.00    -0.061 NA
ENDROOT
BRANCH   1   6
HETATM    6  C5  UNL     1      25.658   0.804  52.850  1.00  0.00     0.043 A 
HETATM    7  C4  UNL     1      26.420   1.550  53.885  1.00  0.00     0.122 A 
HETATM    8  C3  UNL     1      27.587   0.719  54.266  1.00  0.00     0.088 A 
HETATM    9  C2  UNL     1      27.952  -0.601  53.740  1.00  0.00     0.076 A 
HETATM   10  N2  UNL     1      28.599   0.767  55.066  1.00  0.00    -0.176 NA
HETATM   11  C1  UNL     1      27.146  -1.106  52.819  1.00  0.00     0.035 A 
HETATM   12  N1  UNL     1      29.056  -0.503  54.640  1.00  0.00    -0.276 N 
HETATM   13  C17 UNL     1      25.967  -0.376  52.367  1.00  0.00     0.030 A 
HETATM   14  H2  UNL     1      29.839  -1.172  54.829  1.00  0.00     0.189 HD
ENDBRANCH   1   6
BRANCH   3  15
HETATM   15  C8  UNL     1      22.327   3.025  49.777  1.00  0.00     0.063 C 
BRANCH  15  16
HETATM   16  C9  UNL     1      23.301   3.711  48.875  1.00  0.00     0.011 C 
BRANCH  16  17
HETATM   17  C10 UNL     1      23.856   4.958  49.504  1.00  0.00     0.039 C 
BRANCH  17  18
HETATM   18  C11 UNL     1      25.244   5.237  49.101  1.00  0.00    -0.058 A 
HETATM   19  C12 UNL     1      26.303   4.356  49.205  1.00  0.00     0.007 A 
HETATM   20  C13 UNL     1      27.592   4.664  48.812  1.00  0.00     0.001 A 
HETATM   21  C14 UNL     1      27.842   5.912  48.288  1.00  0.00     0.000 A 
HETATM   22  C15 UNL     1      26.817   6.826  48.163  1.00  0.00     0.001 A 
HETATM   23  C16 UNL     1      25.524   6.493  48.567  1.00  0.00     0.007 A 
ENDBRANCH  17  18
ENDBRANCH  16  17
ENDBRANCH  15  16
ENDBRANCH   3  15
TORSDOF 5
ENDMDL
MODEL 7
REMARK VINA RESULT:      -7.5      4.553      7.464
REMARK  5 active torsions:
REMARK  status: ('A' for Active; 'I' for Inactive)
REMARK    1  A    between atoms: C5_7  and  N3_8 
REMARK    2  A    between atoms: C7_10  and  C8_11 
REMARK    3  A    between atoms: C8_11  and  C9_12 
REMARK    4  A    between atoms: C9_12  and  C10_13 
REMARK    5  A    between atoms: C10_13  and  C11_14 
ROOT
HETATM    1  N3  UNL     1      26.014   3.747  50.062  1.00  0.00    -0.229 N 
HETATM    2  C6  UNL     1      24.814   3.320  50.496  1.00  0.00     0.149 A 
HETATM    3  C7  UNL     1      24.978   2.151  51.215  1.00  0.00     0.076 A 
HETATM    4  N4  UNL     1      26.317   1.903  51.193  1.00  0.00    -0.135 NA
HETATM    5  N5  UNL     1      26.902   2.864  50.504  1.00  0.00    -0.061 NA
ENDROOT
BRANCH   1   6
HETATM    6  C5  UNL     1      26.229   4.931  49.282  1.00  0.00     0.043 A 
HETATM    7  C4  UNL     1      27.615   5.164  48.798  1.00  0.00     0.122 A 
HETATM    8  C3  UNL     1      27.611   6.427  48.023  1.00  0.00     0.088 A 
HETATM    9  C2  UNL     1      26.469   7.309  47.760  1.00  0.00     0.076 A 
HETATM   10  N2  UNL     1      28.437   7.169  47.363  1.00  0.00    -0.176 NA
HETATM   11  C1  UNL     1      25.310   6.933  48.276  1.00  0.00     0.035 A 
HETATM   12  N1  UNL     1      27.418   8.098  47.042  1.00  0.00    -0.276 N 
HETATM   13  C17 UNL     1      25.195   5.707  49.058  1.00  0.00     0.030 A 
HETATM   14  H2  UNL     1      27.297   8.997  46.519  1.00  0.00     0.189 HD
ENDBRANCH   1   6
BRANCH   3  15
HETATM   15  C8  UNL     1      24.028   1.237  51.924  1.00  0.00     0.063 C 
BRANCH  15  16
HETATM   16  C9  UNL     1      24.538   0.956  53.301  1.00  0.00     0.011 C 
BRANCH  16  17
HETATM   17  C10 UNL     1      25.035  -0.456  53.431  1.00  0.00     0.039 C 
BRANCH  17  18
HETATM   18  C11 UNL     1      26.489  -0.537  53.644  1.00  0.00    -0.058 A 
HETATM   19  C12 UNL     1      27.205   0.190  54.574  1.00  0.00     0.007 A 
HETATM   20  C13 UNL     1      28.574   0.079  54.738  1.00  0.00     0.001 A 
HETATM   21  C14 UNL     1      29.265  -0.799  53.936  1.00  0.00     0.000 A 
HETATM   22  C15 UNL     1      28.594  -1.547  52.992  1.00  0.00     0.001 A 
HETATM   23  C16 UNL     1      27.213  -1.419  52.845  1.00  0.00     0.007 A 
ENDBRANCH  17  18
ENDBRANCH  16  17
ENDBRANCH  15  16
ENDBRANCH   3  15
TORSDOF 5
ENDMDL
MODEL 8
REMARK VINA RESULT:      -7.4      4.021      5.587
REMARK  5 active torsions:
REMARK  status: ('A' for Active; 'I' for Inactive)
REMARK    1  A    between atoms: C5_7  and  N3_8 
REMARK    2  A    between atoms: C7_10  and  C8_11 
REMARK    3  A    between atoms: C8_11  and  C9_12 
REMARK    4  A    between atoms: C9_12  and  C10_13 
REMARK    5  A    between atoms: C10_13  and  C11_14 
ROOT
HETATM    1  N3  UNL     1      24.434   2.262  51.432  1.00  0.00    -0.229 N 
HETATM    2  C6  UNL     1      24.382   3.579  51.163  1.00  0.00     0.149 A 
HETATM    3  C7  UNL     1      23.347   3.826  50.282  1.00  0.00     0.076 A 
HETATM    4  N4  UNL     1      22.787   2.608  50.039  1.00  0.00    -0.135 NA
HETATM    5  N5  UNL     1      23.451   1.704  50.733  1.00  0.00    -0.061 NA
ENDROOT
BRANCH   1   6
HETATM    6  C5  UNL     1      25.383   1.640  52.309  1.00  0.00     0.043 A 
HETATM    7  C4  UNL     1      24.830   0.749  53.361  1.00  0.00     0.122 A 
HETATM    8  C3  UNL     1      25.972   0.220  54.144  1.00  0.00     0.088 A 
HETATM    9  C2  UNL     1      27.398   0.501  53.943  1.00  0.00     0.076 A 
HETATM   10  N2  UNL     1      26.188  -0.566  55.146  1.00  0.00    -0.176 NA
HETATM   11  C1  UNL     1      27.697   1.323  52.950  1.00  0.00     0.035 A 
HETATM   12  N1  UNL     1      27.587  -0.374  55.056  1.00  0.00    -0.276 N 
HETATM   13  C17 UNL     1      26.654   1.905  52.113  1.00  0.00     0.030 A 
HETATM   14  H2  UNL     1      28.465  -0.683  55.535  1.00  0.00     0.189 HD
ENDBRANCH   1   6
BRANCH   3  15
HETATM   15  C8  UNL     1      22.817   5.069  49.638  1.00  0.00     0.063 C 
BRANCH  15  16
HETATM   16  C9  UNL     1      23.706   5.462  48.502  1.00  0.00     0.011 C 
BRANCH  16  17
HETATM   17  C10 UNL     1      24.582   6.629  48.862  1.00  0.00     0.039 C 
BRANCH  17  18
HETATM   18  C11 UNL     1      26.008   6.383  48.588  1.00  0.00    -0.058 A 
HETATM   19  C12 UNL     1      26.691   5.218  48.875  1.00  0.00     0.007 A 
HETATM   20  C13 UNL     1      28.033   5.034  48.599  1.00  0.00     0.001 A 
HETATM   21  C14 UNL     1      28.732   6.061  48.007  1.00  0.00     0.000 A 
HETATM   22  C15 UNL     1      28.093   7.244  47.701  1.00  0.00     0.001 A 
HETATM   23  C16 UNL     1      26.738   7.407  47.989  1.00  0.00     0.007 A 
ENDBRANCH  17  18
ENDBRANCH  16  17
ENDBRANCH  15  16
ENDBRANCH   3  15
TORSDOF 5
ENDMDL
MODEL 9
REMARK VINA RESULT:      -7.3      1.490      2.414
REMARK  5 active torsions:
REMARK  status: ('A' for Active; 'I' for Inactive)
REMARK    1  A    between atoms: C5_7  and  N3_8 
REMARK    2  A    between atoms: C7_10  and  C8_11 
REMARK    3  A    between atoms: C8_11  and  C9_12 
REMARK    4  A    between atoms: C9_12  and  C10_13 
REMARK    5  A    between atoms: C10_13  and  C11_14 
ROOT
HETATM    1  N3  UNL     1      24.750   0.186  53.317  1.00  0.00    -0.229 N 
HETATM    2  C6  UNL     1      23.902   0.731  52.425  1.00  0.00     0.149 A 
HETATM    3  C7  UNL     1      22.628   0.245  52.649  1.00  0.00     0.076 A 
HETATM    4  N4  UNL     1      22.751  -0.607  53.706  1.00  0.00    -0.135 NA
HETATM    5  N5  UNL     1      24.017  -0.619  54.078  1.00  0.00    -0.061 NA
ENDROOT
BRANCH   1   6
HETATM    6  C5  UNL     1      26.155   0.460  53.384  1.00  0.00     0.043 A 
HETATM    7  C4  UNL     1      27.063  -0.717  53.356  1.00  0.00     0.122 A 
HETATM    8  C3  UNL     1      28.453  -0.210  53.435  1.00  0.00     0.088 A 
HETATM    9  C2  UNL     1      28.890   1.187  53.525  1.00  0.00     0.076 A 
HETATM   10  N2  UNL     1      29.660  -0.671  53.456  1.00  0.00    -0.176 NA
HETATM   11  C1  UNL     1      27.932   2.100  53.537  1.00  0.00     0.035 A 
HETATM   12  N1  UNL     1      30.206   0.632  53.545  1.00  0.00    -0.276 N 
HETATM   13  C17 UNL     1      26.526   1.717  53.463  1.00  0.00     0.030 A 
HETATM   14  H2  UNL     1      31.140   1.101  53.605  1.00  0.00     0.189 HD
ENDBRANCH   1   6
BRANCH   3  15
HETATM   15  C8  UNL     1      21.304   0.483  51.992  1.00  0.00     0.063 C 
BRANCH  15  16
HETATM   16  C9  UNL     1      21.513   0.769  50.539  1.00  0.00     0.011 C 
BRANCH  16  17
HETATM   17  C10 UNL     1      21.251   2.213  50.215  1.00  0.00     0.039 C 
BRANCH  17  18
HETATM   18  C11 UNL     1      22.468   3.041  50.252  1.00  0.00    -0.058 A 
HETATM   19  C12 UNL     1      23.534   2.939  49.380  1.00  0.00     0.007 A 
HETATM   20  C13 UNL     1      24.658   3.741  49.455  1.00  0.00     0.001 A 
HETATM   21  C14 UNL     1      24.725   4.693  50.446  1.00  0.00     0.000 A 
HETATM   22  C15 UNL     1      23.685   4.832  51.341  1.00  0.00     0.001 A 
HETATM   23  C16 UNL     1      22.561   4.012  51.246  1.00  0.00     0.007 A 
ENDBRANCH  17  18
ENDBRANCH  16  17
ENDBRANCH  15  16
ENDBRANCH   3  15
TORSDOF 5
ENDMDL
