MODEL 1
REMARK VINA RESULT:      -7.2      0.000      0.000
REMARK  7 active torsions:
REMARK  status: ('A' for Active; 'I' for Inactive)
REMARK    1  A    between atoms: C4_5  and  N1_6 
REMARK    2  A    between atoms: N1_6  and  C5_7 
REMARK    3  A    between atoms: C6_9  and  O1_10 
REMARK    4  A    between atoms: O1_10  and  C7_11 
REMARK    5  A    between atoms: C7_11  and  N3_12 
REMARK    6  A    between atoms: N3_12  and  C8_13 
REMARK    7  A    between atoms: C8_13  and  N4_14 
ROOT
HETATM    1  C5  UNL     1      23.655   2.048  52.442  1.00  0.00     0.724 A 
HETATM    2  N2  UNL     1      24.482   1.780  51.469  1.00  0.00    -0.068 NA
HETATM    3  C6  UNL     1      24.610   2.976  50.660  1.00  0.00     0.307 A 
HETATM    4  C13 UNL     1      23.720   3.955  51.338  1.00  0.00     0.165 A 
HETATM    5  N5  UNL     1      23.161   3.403  52.386  1.00  0.00    -0.075 NA
ENDROOT
BRANCH   3   6
HETATM    6  O1  UNL     1      25.913   3.445  50.786  1.00  0.00    -0.341 OA
BRANCH   6   7
HETATM    7  C7  UNL     1      26.737   2.393  51.262  1.00  0.00     0.290 C 
BRANCH   7   8
HETATM    8  N3  UNL     1      27.139   2.573  52.586  1.00  0.00    -0.377 N 
HETATM    9  H7  UNL     1      26.969   3.469  53.055  1.00  0.00     0.157 HD
BRANCH   8  10
HETATM   10  C8  UNL     1      28.107   1.754  53.210  1.00  0.00     0.392 C 
BRANCH  10  11
HETATM   11  N4  UNL     1      27.779   1.050  54.401  1.00  0.00     0.109 NA
HETATM   12  C9  UNL     1      28.922   0.126  54.627  1.00  0.00     0.300 C 
HETATM   13  C10 UNL     1      29.004  -0.887  53.530  1.00  0.00     0.198 C 
HETATM   14  O2  UNL     1      27.873  -1.668  53.507  1.00  0.00    -0.388 OA
HETATM   15  C11 UNL     1      26.775  -0.882  53.216  1.00  0.00     0.198 C 
HETATM   16  C12 UNL     1      26.594   0.234  54.207  1.00  0.00     0.300 C 
ENDBRANCH  10  11
ENDBRANCH   8  10
ENDBRANCH   7   8
ENDBRANCH   6   7
ENDBRANCH   3   6
BRANCH   1  17
HETATM   17  N1  UNL     1      23.296   1.101  53.430  1.00  0.00    -0.188 N 
HETATM   18  H3  UNL     1      23.967   0.887  54.208  1.00  0.00     0.184 HD
BRANCH  17  19
HETATM   19  C4  UNL     1      22.051   0.422  53.414  1.00  0.00     0.049 A 
HETATM   20  C3  UNL     1      20.944   0.797  52.703  1.00  0.00     0.032 A 
HETATM   21  C2  UNL     1      19.753   0.102  52.719  1.00  0.00     0.026 A 
HETATM   22  C1  UNL     1      19.635  -1.027  53.474  1.00  0.00     0.034 A 
HETATM   23 CL1  UNL     1      18.119  -1.923  53.501  1.00  0.00    -0.084 Cl
HETATM   24  C15 UNL     1      20.699  -1.463  54.211  1.00  0.00     0.026 A 
HETATM   25  C14 UNL     1      21.873  -0.738  54.167  1.00  0.00     0.032 A 
ENDBRANCH  17  19
ENDBRANCH   1  17
TORSDOF 7
ENDMDL
MODEL 2
REMARK VINA RESULT:      -7.1      1.821      4.826
REMARK  7 active torsions:
REMARK  status: ('A' for Active; 'I' for Inactive)
REMARK    1  A    between atoms: C4_5  and  N1_6 
REMARK    2  A    between atoms: N1_6  and  C5_7 
REMARK    3  A    between atoms: C6_9  and  O1_10 
REMARK    4  A    between atoms: O1_10  and  C7_11 
REMARK    5  A    between atoms: C7_11  and  N3_12 
REMARK    6  A    between atoms: N3_12  and  C8_13 
REMARK    7  A    between atoms: C8_13  and  N4_14 
ROOT
HETATM    1  C5  UNL     1      26.613   0.024  54.495  1.00  0.00     0.724 A 
HETATM    2  N2  UNL     1      26.381   1.135  53.851  1.00  0.00    -0.068 NA
HETATM    3  C6  UNL     1      27.633   1.859  53.759  1.00  0.00     0.307 A 
HETATM    4  C13 UNL     1      28.603   0.974  54.456  1.00  0.00     0.165 A 
HETATM    5  N5  UNL     1      27.996  -0.105  54.887  1.00  0.00    -0.075 NA
ENDROOT
BRANCH   3   6
HETATM    6  O1  UNL     1      28.006   1.907  52.420  1.00  0.00    -0.341 OA
BRANCH   6   7
HETATM    7  C7  UNL     1      26.837   1.972  51.619  1.00  0.00     0.290 C 
BRANCH   7   8
HETATM    8  N3  UNL     1      26.492   3.276  51.265  1.00  0.00    -0.377 N 
HETATM    9  H7  UNL     1      27.088   4.059  51.550  1.00  0.00     0.157 HD
BRANCH   8  10
HETATM   10  C8  UNL     1      25.184   3.644  50.875  1.00  0.00     0.392 C 
BRANCH  10  11
HETATM   11  N4  UNL     1      24.067   2.902  51.350  1.00  0.00     0.109 NA
HETATM   12  C9  UNL     1      23.049   3.011  50.271  1.00  0.00     0.300 C 
HETATM   13  C10 UNL     1      22.597   4.428  50.116  1.00  0.00     0.198 C 
HETATM   14  O2  UNL     1      21.991   4.872  51.268  1.00  0.00    -0.388 OA
HETATM   15  C11 UNL     1      22.909   4.877  52.300  1.00  0.00     0.198 C 
HETATM   16  C12 UNL     1      23.507   3.519  52.539  1.00  0.00     0.300 C 
ENDBRANCH  10  11
ENDBRANCH   8  10
ENDBRANCH   7   8
ENDBRANCH   6   7
ENDBRANCH   3   6
BRANCH   1  17
HETATM   17  N1  UNL     1      25.608  -0.932  54.769  1.00  0.00    -0.188 N 
HETATM   18  H3  UNL     1      25.854  -1.803  55.300  1.00  0.00     0.184 HD
BRANCH  17  19
HETATM   19  C4  UNL     1      24.263  -0.760  54.352  1.00  0.00     0.049 A 
HETATM   20  C3  UNL     1      23.857  -0.267  53.141  1.00  0.00     0.032 A 
HETATM   21  C2  UNL     1      22.534  -0.120  52.780  1.00  0.00     0.026 A 
HETATM   22  C1  UNL     1      21.548  -0.474  53.652  1.00  0.00     0.034 A 
HETATM   23 CL1  UNL     1      19.856  -0.291  53.201  1.00  0.00    -0.084 Cl
HETATM   24  C15 UNL     1      21.877  -0.974  54.880  1.00  0.00     0.026 A 
HETATM   25  C14 UNL     1      23.213  -1.106  55.202  1.00  0.00     0.032 A 
ENDBRANCH  17  19
ENDBRANCH   1  17
TORSDOF 7
ENDMDL
MODEL 3
REMARK VINA RESULT:      -7.0      2.087      5.044
REMARK  7 active torsions:
REMARK  status: ('A' for Active; 'I' for Inactive)
REMARK    1  A    between atoms: C4_5  and  N1_6 
REMARK    2  A    between atoms: N1_6  and  C5_7 
REMARK    3  A    between atoms: C6_9  and  O1_10 
REMARK    4  A    between atoms: O1_10  and  C7_11 
REMARK    5  A    between atoms: C7_11  and  N3_12 
REMARK    6  A    between atoms: N3_12  and  C8_13 
REMARK    7  A    between atoms: C8_13  and  N4_14 
ROOT
HETATM    1  C5  UNL     1      27.260  -0.139  54.660  1.00  0.00     0.724 A 
HETATM    2  N2  UNL     1      27.444   1.151  54.583  1.00  0.00    -0.068 NA
HETATM    3  C6  UNL     1      28.739   1.373  53.972  1.00  0.00     0.307 A 
HETATM    4  C13 UNL     1      29.250   0.000  53.721  1.00  0.00     0.165 A 
HETATM    5  N5  UNL     1      28.375  -0.886  54.128  1.00  0.00    -0.075 NA
ENDROOT
BRANCH   3   6
HETATM    6  O1  UNL     1      28.535   1.972  52.733  1.00  0.00    -0.341 OA
BRANCH   6   7
HETATM    7  C7  UNL     1      27.176   2.363  52.630  1.00  0.00     0.290 C 
BRANCH   7   8
HETATM    8  N3  UNL     1      26.659   2.201  51.345  1.00  0.00    -0.377 N 
HETATM    9  H7  UNL     1      26.687   1.281  50.894  1.00  0.00     0.157 HD
BRANCH   8  10
HETATM   10  C8  UNL     1      26.451   3.285  50.461  1.00  0.00     0.392 C 
BRANCH  10  11
HETATM   11  N4  UNL     1      25.266   3.344  49.677  1.00  0.00     0.109 NA
HETATM   12  C9  UNL     1      25.204   4.744  49.182  1.00  0.00     0.300 C 
HETATM   13  C10 UNL     1      25.022   5.697  50.320  1.00  0.00     0.198 C 
HETATM   14  O2  UNL     1      23.831   5.461  50.964  1.00  0.00    -0.388 OA
HETATM   15  C11 UNL     1      23.852   4.199  51.525  1.00  0.00     0.198 C 
HETATM   16  C12 UNL     1      24.092   3.124  50.503  1.00  0.00     0.300 C 
ENDBRANCH  10  11
ENDBRANCH   8  10
ENDBRANCH   7   8
ENDBRANCH   6   7
ENDBRANCH   3   6
BRANCH   1  17
HETATM   17  N1  UNL     1      26.092  -0.719  55.208  1.00  0.00    -0.188 N 
HETATM   18  H3  UNL     1      26.158  -1.269  56.100  1.00  0.00     0.184 HD
BRANCH  17  19
HETATM   19  C4  UNL     1      24.819  -0.584  54.598  1.00  0.00     0.049 A 
HETATM   20  C3  UNL     1      24.561   0.067  53.422  1.00  0.00     0.032 A 
HETATM   21  C2  UNL     1      23.303   0.170  52.866  1.00  0.00     0.026 A 
HETATM   22  C1  UNL     1      22.233  -0.395  53.494  1.00  0.00     0.034 A 
HETATM   23 CL1  UNL     1      20.623  -0.269  52.792  1.00  0.00    -0.084 Cl
HETATM   24  C15 UNL     1      22.415  -1.060  54.673  1.00  0.00     0.026 A 
HETATM   25  C14 UNL     1      23.690  -1.141  55.195  1.00  0.00     0.032 A 
ENDBRANCH  17  19
ENDBRANCH   1  17
TORSDOF 7
ENDMDL
MODEL 4
REMARK VINA RESULT:      -7.0      1.552      2.065
REMARK  7 active torsions:
REMARK  status: ('A' for Active; 'I' for Inactive)
REMARK    1  A    between atoms: C4_5  and  N1_6 
REMARK    2  A    between atoms: N1_6  and  C5_7 
REMARK    3  A    between atoms: C6_9  and  O1_10 
REMARK    4  A    between atoms: O1_10  and  C7_11 
REMARK    5  A    between atoms: C7_11  and  N3_12 
REMARK    6  A    between atoms: N3_12  and  C8_13 
REMARK    7  A    between atoms: C8_13  and  N4_14 
ROOT
HETATM    1  C5  UNL     1      23.914   3.971  50.644  1.00  0.00     0.724 A 
HETATM    2  N2  UNL     1      24.731   3.104  50.110  1.00  0.00    -0.068 NA
HETATM    3  C6  UNL     1      25.875   3.836  49.601  1.00  0.00     0.307 A 
HETATM    4  C13 UNL     1      25.565   5.250  49.937  1.00  0.00     0.165 A 
HETATM    5  N5  UNL     1      24.410   5.323  50.551  1.00  0.00    -0.075 NA
ENDROOT
BRANCH   3   6
HETATM    6  O1  UNL     1      26.989   3.467  50.348  1.00  0.00    -0.341 OA
BRANCH   6   7
HETATM    7  C7  UNL     1      26.673   2.310  51.105  1.00  0.00     0.290 C 
BRANCH   7   8
HETATM    8  N3  UNL     1      26.795   2.509  52.480  1.00  0.00    -0.377 N 
HETATM    9  H7  UNL     1      26.315   3.297  52.927  1.00  0.00     0.157 HD
BRANCH   8  10
HETATM   10  C8  UNL     1      27.837   1.941  53.247  1.00  0.00     0.392 C 
BRANCH  10  11
HETATM   11  N4  UNL     1      27.531   1.182  54.410  1.00  0.00     0.109 NA
HETATM   12  C9  UNL     1      28.813   0.535  54.793  1.00  0.00     0.300 C 
HETATM   13  C10 UNL     1      29.248  -0.435  53.742  1.00  0.00     0.198 C 
HETATM   14  O2  UNL     1      28.328  -1.448  53.607  1.00  0.00    -0.388 OA
HETATM   15  C11 UNL     1      27.128  -0.925  53.168  1.00  0.00     0.198 C 
HETATM   16  C12 UNL     1      26.587   0.124  54.099  1.00  0.00     0.300 C 
ENDBRANCH  10  11
ENDBRANCH   8  10
ENDBRANCH   7   8
ENDBRANCH   6   7
ENDBRANCH   3   6
BRANCH   1  17
HETATM   17  N1  UNL     1      22.686   3.604  51.241  1.00  0.00    -0.188 N 
HETATM   18  H3  UNL     1      21.906   4.305  51.293  1.00  0.00     0.184 HD
BRANCH  17  19
HETATM   19  C4  UNL     1      22.459   2.311  51.778  1.00  0.00     0.049 A 
HETATM   20  C3  UNL     1      21.581   1.383  51.287  1.00  0.00     0.032 A 
HETATM   21  C2  UNL     1      21.396   0.135  51.844  1.00  0.00     0.026 A 
HETATM   22  C1  UNL     1      22.110  -0.230  52.947  1.00  0.00     0.034 A 
HETATM   23 CL1  UNL     1      21.882  -1.821  53.665  1.00  0.00    -0.084 Cl
HETATM   24  C15 UNL     1      23.006   0.645  53.493  1.00  0.00     0.026 A 
HETATM   25  C14 UNL     1      23.161   1.884  52.905  1.00  0.00     0.032 A 
ENDBRANCH  17  19
ENDBRANCH   1  17
TORSDOF 7
ENDMDL
MODEL 5
REMARK VINA RESULT:      -6.9      5.401      7.344
REMARK  7 active torsions:
REMARK  status: ('A' for Active; 'I' for Inactive)
REMARK    1  A    between atoms: C4_5  and  N1_6 
REMARK    2  A    between atoms: N1_6  and  C5_7 
REMARK    3  A    between atoms: C6_9  and  O1_10 
REMARK    4  A    between atoms: O1_10  and  C7_11 
REMARK    5  A    between atoms: C7_11  and  N3_12 
REMARK    6  A    between atoms: N3_12  and  C8_13 
REMARK    7  A    between atoms: C8_13  and  N4_14 
ROOT
HETATM    1  C5  UNL     1      26.105   3.708  50.557  1.00  0.00     0.724 A 
HETATM    2  N2  UNL     1      26.999   3.362  49.672  1.00  0.00    -0.068 NA
HETATM    3  C6  UNL     1      27.119   4.449  48.721  1.00  0.00     0.307 A 
HETATM    4  C13 UNL     1      26.148   5.459  49.217  1.00  0.00     0.165 A 
HETATM    5  N5  UNL     1      25.554   5.017  50.298  1.00  0.00    -0.075 NA
ENDROOT
BRANCH   3   6
HETATM    6  O1  UNL     1      28.391   4.998  48.852  1.00  0.00    -0.341 OA
BRANCH   6   7
HETATM    7  C7  UNL     1      28.391   6.299  48.286  1.00  0.00     0.290 C 
BRANCH   7   8
HETATM    8  N3  UNL     1      29.183   7.200  48.997  1.00  0.00    -0.377 N 
HETATM    9  H7  UNL     1      28.749   7.850  49.661  1.00  0.00     0.157 HD
BRANCH   8  10
HETATM   10  C8  UNL     1      30.490   7.556  48.592  1.00  0.00     0.392 C 
BRANCH  10  11
HETATM   11  N4  UNL     1      31.583   7.372  49.483  1.00  0.00     0.109 NA
HETATM   12  C9  UNL     1      32.761   7.923  48.762  1.00  0.00     0.300 C 
HETATM   13  C10 UNL     1      33.055   7.114  47.539  1.00  0.00     0.198 C 
HETATM   14  O2  UNL     1      33.378   5.822  47.879  1.00  0.00    -0.388 OA
HETATM   15  C11 UNL     1      32.292   5.218  48.481  1.00  0.00     0.198 C 
HETATM   16  C12 UNL     1      31.833   5.959  49.706  1.00  0.00     0.300 C 
ENDBRANCH  10  11
ENDBRANCH   8  10
ENDBRANCH   7   8
ENDBRANCH   6   7
ENDBRANCH   3   6
BRANCH   1  17
HETATM   17  N1  UNL     1      25.732   2.879  51.640  1.00  0.00    -0.188 N 
HETATM   18  H3  UNL     1      24.789   3.003  52.085  1.00  0.00     0.184 HD
BRANCH  17  19
HETATM   19  C4  UNL     1      26.588   1.872  52.155  1.00  0.00     0.049 A 
HETATM   20  C3  UNL     1      26.417   0.523  52.005  1.00  0.00     0.032 A 
HETATM   21  C2  UNL     1      27.279  -0.420  52.524  1.00  0.00     0.026 A 
HETATM   22  C1  UNL     1      28.374  -0.023  53.233  1.00  0.00     0.034 A 
HETATM   23 CL1  UNL     1      29.482  -1.217  53.900  1.00  0.00    -0.084 Cl
HETATM   24  C15 UNL     1      28.610   1.310  53.424  1.00  0.00     0.026 A 
HETATM   25  C14 UNL     1      27.722   2.220  52.887  1.00  0.00     0.032 A 
ENDBRANCH  17  19
ENDBRANCH   1  17
TORSDOF 7
ENDMDL
MODEL 6
REMARK VINA RESULT:      -6.9      3.821      5.915
REMARK  7 active torsions:
REMARK  status: ('A' for Active; 'I' for Inactive)
REMARK    1  A    between atoms: C4_5  and  N1_6 
REMARK    2  A    between atoms: N1_6  and  C5_7 
REMARK    3  A    between atoms: C6_9  and  O1_10 
REMARK    4  A    between atoms: O1_10  and  C7_11 
REMARK    5  A    between atoms: C7_11  and  N3_12 
REMARK    6  A    between atoms: N3_12  and  C8_13 
REMARK    7  A    between atoms: C8_13  and  N4_14 
ROOT
HETATM    1  C5  UNL     1      23.269   3.769  50.607  1.00  0.00     0.724 A 
HETATM    2  N2  UNL     1      23.373   3.728  51.907  1.00  0.00    -0.068 NA
HETATM    3  C6  UNL     1      22.890   2.433  52.345  1.00  0.00     0.307 A 
HETATM    4  C13 UNL     1      22.498   1.758  51.080  1.00  0.00     0.165 A 
HETATM    5  N5  UNL     1      22.724   2.549  50.060  1.00  0.00    -0.075 NA
ENDROOT
BRANCH   3   6
HETATM    6  O1  UNL     1      23.965   1.728  52.875  1.00  0.00    -0.341 OA
BRANCH   6   7
HETATM    7  C7  UNL     1      24.914   2.651  53.384  1.00  0.00     0.290 C 
BRANCH   7   8
HETATM    8  N3  UNL     1      26.162   2.542  52.770  1.00  0.00    -0.377 N 
HETATM    9  H7  UNL     1      26.334   3.005  51.872  1.00  0.00     0.157 HD
BRANCH   8  10
HETATM   10  C8  UNL     1      27.089   1.525  53.095  1.00  0.00     0.392 C 
BRANCH  10  11
HETATM   11  N4  UNL     1      26.818   0.635  54.170  1.00  0.00     0.109 NA
HETATM   12  C9  UNL     1      28.145   0.358  54.782  1.00  0.00     0.300 C 
HETATM   13  C10 UNL     1      29.024  -0.375  53.821  1.00  0.00     0.198 C 
HETATM   14  O2  UNL     1      28.481  -1.598  53.503  1.00  0.00    -0.388 OA
HETATM   15  C11 UNL     1      27.278  -1.412  52.851  1.00  0.00     0.198 C 
HETATM   16  C12 UNL     1      26.297  -0.627  53.675  1.00  0.00     0.300 C 
ENDBRANCH  10  11
ENDBRANCH   8  10
ENDBRANCH   7   8
ENDBRANCH   6   7
ENDBRANCH   3   6
BRANCH   1  17
HETATM   17  N1  UNL     1      23.652   4.893  49.839  1.00  0.00    -0.188 N 
HETATM   18  H3  UNL     1      22.933   5.614  49.583  1.00  0.00     0.184 HD
BRANCH  17  19
HETATM   19  C4  UNL     1      24.985   5.092  49.397  1.00  0.00     0.049 A 
HETATM   20  C3  UNL     1      25.490   6.251  48.872  1.00  0.00     0.032 A 
HETATM   21  C2  UNL     1      26.797   6.397  48.457  1.00  0.00     0.026 A 
HETATM   22  C1  UNL     1      27.664   5.350  48.559  1.00  0.00     0.034 A 
HETATM   23 CL1  UNL     1      29.335   5.525  48.033  1.00  0.00    -0.084 Cl
HETATM   24  C15 UNL     1      27.231   4.160  49.073  1.00  0.00     0.026 A 
HETATM   25  C14 UNL     1      25.915   4.056  49.478  1.00  0.00     0.032 A 
ENDBRANCH  17  19
ENDBRANCH   1  17
TORSDOF 7
ENDMDL
MODEL 7
REMARK VINA RESULT:      -6.9      3.557      6.223
REMARK  7 active torsions:
REMARK  status: ('A' for Active; 'I' for Inactive)
REMARK    1  A    between atoms: C4_5  and  N1_6 
REMARK    2  A    between atoms: N1_6  and  C5_7 
REMARK    3  A    between atoms: C6_9  and  O1_10 
REMARK    4  A    between atoms: O1_10  and  C7_11 
REMARK    5  A    between atoms: C7_11  and  N3_12 
REMARK    6  A    between atoms: N3_12  and  C8_13 
REMARK    7  A    between atoms: C8_13  and  N4_14 
ROOT
HETATM    1  C5  UNL     1      23.351   0.084  53.278  1.00  0.00     0.724 A 
HETATM    2  N2  UNL     1      23.512   1.313  52.868  1.00  0.00    -0.068 NA
HETATM    3  C6  UNL     1      22.454   1.601  51.921  1.00  0.00     0.307 A 
HETATM    4  C13 UNL     1      21.676   0.336  51.867  1.00  0.00     0.165 A 
HETATM    5  N5  UNL     1      22.209  -0.554  52.668  1.00  0.00    -0.075 NA
ENDROOT
BRANCH   3   6
HETATM    6  O1  UNL     1      21.628   2.572  52.479  1.00  0.00    -0.341 OA
BRANCH   6   7
HETATM    7  C7  UNL     1      21.975   3.837  51.940  1.00  0.00     0.290 C 
BRANCH   7   8
HETATM    8  N3  UNL     1      23.321   4.156  52.124  1.00  0.00    -0.377 N 
HETATM    9  H7  UNL     1      23.711   4.199  53.071  1.00  0.00     0.157 HD
BRANCH   8  10
HETATM   10  C8  UNL     1      24.097   4.802  51.136  1.00  0.00     0.392 C 
BRANCH  10  11
HETATM   11  N4  UNL     1      24.003   4.390  49.778  1.00  0.00     0.109 NA
HETATM   12  C9  UNL     1      24.991   3.287  49.643  1.00  0.00     0.300 C 
HETATM   13  C10 UNL     1      26.381   3.798  49.848  1.00  0.00     0.198 C 
HETATM   14  O2  UNL     1      26.703   4.726  48.886  1.00  0.00    -0.388 OA
HETATM   15  C11 UNL     1      25.873   5.824  49.008  1.00  0.00     0.198 C 
HETATM   16  C12 UNL     1      24.421   5.458  48.886  1.00  0.00     0.300 C 
ENDBRANCH  10  11
ENDBRANCH   8  10
ENDBRANCH   7   8
ENDBRANCH   6   7
ENDBRANCH   3   6
BRANCH   1  17
HETATM   17  N1  UNL     1      24.212  -0.534  54.215  1.00  0.00    -0.188 N 
HETATM   18  H3  UNL     1      23.801  -1.047  55.034  1.00  0.00     0.184 HD
BRANCH  17  19
HETATM   19  C4  UNL     1      25.624  -0.491  54.092  1.00  0.00     0.049 A 
HETATM   20  C3  UNL     1      26.482   0.160  54.937  1.00  0.00     0.032 A 
HETATM   21  C2  UNL     1      27.851   0.171  54.777  1.00  0.00     0.026 A 
HETATM   22  C1  UNL     1      28.419  -0.493  53.730  1.00  0.00     0.034 A 
HETATM   23 CL1  UNL     1      30.167  -0.485  53.517  1.00  0.00    -0.084 Cl
HETATM   24  C15 UNL     1      27.626  -1.165  52.845  1.00  0.00     0.026 A 
HETATM   25  C14 UNL     1      26.259  -1.152  53.042  1.00  0.00     0.032 A 
ENDBRANCH  17  19
ENDBRANCH   1  17
TORSDOF 7
ENDMDL
MODEL 8
REMARK VINA RESULT:      -6.8      3.535      5.640
REMARK  7 active torsions:
REMARK  status: ('A' for Active; 'I' for Inactive)
REMARK    1  A    between atoms: C4_5  and  N1_6 
REMARK    2  A    between atoms: N1_6  and  C5_7 
REMARK    3  A    between atoms: C6_9  and  O1_10 
REMARK    4  A    between atoms: O1_10  and  C7_11 
REMARK    5  A    between atoms: C7_11  and  N3_12 
REMARK    6  A    between atoms: N3_12  and  C8_13 
REMARK    7  A    between atoms: C8_13  and  N4_14 
ROOT
HETATM    1  C5  UNL     1      23.062   2.689  51.720  1.00  0.00     0.724 A 
HETATM    2  N2  UNL     1      23.553   2.308  52.868  1.00  0.00    -0.068 NA
HETATM    3  C6  UNL     1      23.104   0.950  53.107  1.00  0.00     0.307 A 
HETATM    4  C13 UNL     1      22.284   0.634  51.909  1.00  0.00     0.165 A 
HETATM    5  N5  UNL     1      22.263   1.662  51.096  1.00  0.00    -0.075 NA
ENDROOT
BRANCH   3   6
HETATM    6  O1  UNL     1      24.218   0.117  53.078  1.00  0.00    -0.341 OA
BRANCH   6   7
HETATM    7  C7  UNL     1      24.213  -0.697  54.240  1.00  0.00     0.290 C 
BRANCH   7   8
HETATM    8  N3  UNL     1      25.472  -0.809  54.830  1.00  0.00    -0.377 N 
HETATM    9  H7  UNL     1      25.585  -1.341  55.699  1.00  0.00     0.157 HD
BRANCH   8  10
HETATM   10  C8  UNL     1      26.537   0.073  54.536  1.00  0.00     0.392 C 
BRANCH  10  11
HETATM   11  N4  UNL     1      27.412  -0.206  53.451  1.00  0.00     0.109 NA
HETATM   12  C9  UNL     1      28.780  -0.072  54.017  1.00  0.00     0.300 C 
HETATM   13  C10 UNL     1      29.040   1.340  54.434  1.00  0.00     0.198 C 
HETATM   14  O2  UNL     1      28.986   2.184  53.350  1.00  0.00    -0.388 OA
HETATM   15  C11 UNL     1      27.709   2.173  52.822  1.00  0.00     0.198 C 
HETATM   16  C12 UNL     1      27.274   0.795  52.408  1.00  0.00     0.300 C 
ENDBRANCH  10  11
ENDBRANCH   8  10
ENDBRANCH   7   8
ENDBRANCH   6   7
ENDBRANCH   3   6
BRANCH   1  17
HETATM   17  N1  UNL     1      23.299   3.969  51.168  1.00  0.00    -0.188 N 
HETATM   18  H3  UNL     1      22.571   4.719  51.269  1.00  0.00     0.184 HD
BRANCH  17  19
HETATM   19  C4  UNL     1      24.496   4.289  50.478  1.00  0.00     0.049 A 
HETATM   20  C3  UNL     1      24.890   5.543  50.097  1.00  0.00     0.032 A 
HETATM   21  C2  UNL     1      26.067   5.805  49.428  1.00  0.00     0.026 A 
HETATM   22  C1  UNL     1      26.910   4.782  49.110  1.00  0.00     0.034 A 
HETATM   23 CL1  UNL     1      28.415   5.106  48.255  1.00  0.00    -0.084 Cl
HETATM   24  C15 UNL     1      26.583   3.502  49.457  1.00  0.00     0.026 A 
HETATM   25  C14 UNL     1      25.396   3.283  50.127  1.00  0.00     0.032 A 
ENDBRANCH  17  19
ENDBRANCH   1  17
TORSDOF 7
ENDMDL
MODEL 9
REMARK VINA RESULT:      -6.6      4.304      6.706
REMARK  7 active torsions:
REMARK  status: ('A' for Active; 'I' for Inactive)
REMARK    1  A    between atoms: C4_5  and  N1_6 
REMARK    2  A    between atoms: N1_6  and  C5_7 
REMARK    3  A    between atoms: C6_9  and  O1_10 
REMARK    4  A    between atoms: O1_10  and  C7_11 
REMARK    5  A    between atoms: C7_11  and  N3_12 
REMARK    6  A    between atoms: N3_12  and  C8_13 
REMARK    7  A    between atoms: C8_13  and  N4_14 
ROOT
HETATM    1  C5  UNL     1      23.481   6.115  51.589  1.00  0.00     0.724 A 
HETATM    2  N2  UNL     1      23.702   5.184  52.476  1.00  0.00    -0.068 NA
HETATM    3  C6  UNL     1      22.564   4.286  52.463  1.00  0.00     0.307 A 
HETATM    4  C13 UNL     1      21.672   4.866  51.425  1.00  0.00     0.165 A 
HETATM    5  N5  UNL     1      22.217   5.942  50.914  1.00  0.00    -0.075 NA
ENDROOT
BRANCH   3   6
HETATM    6  O1  UNL     1      22.996   3.050  51.994  1.00  0.00    -0.341 OA
BRANCH   6   7
HETATM    7  C7  UNL     1      23.895   2.489  52.937  1.00  0.00     0.290 C 
BRANCH   7   8
HETATM    8  N3  UNL     1      25.233   2.713  52.612  1.00  0.00    -0.377 N 
HETATM    9  H7  UNL     1      25.483   3.052  51.678  1.00  0.00     0.157 HD
BRANCH   8  10
HETATM   10  C8  UNL     1      26.303   2.143  53.339  1.00  0.00     0.392 C 
BRANCH  10  11
HETATM   11  N4  UNL     1      27.369   1.503  52.648  1.00  0.00     0.109 NA
HETATM   12  C9  UNL     1      26.814   0.194  52.216  1.00  0.00     0.300 C 
HETATM   13  C10 UNL     1      26.491  -0.658  53.402  1.00  0.00     0.198 C 
HETATM   14  O2  UNL     1      27.629  -0.937  54.122  1.00  0.00    -0.388 OA
HETATM   15  C11 UNL     1      28.153   0.236  54.629  1.00  0.00     0.198 C 
HETATM   16  C12 UNL     1      28.475   1.230  53.549  1.00  0.00     0.300 C 
ENDBRANCH  10  11
ENDBRANCH   8  10
ENDBRANCH   7   8
ENDBRANCH   6   7
ENDBRANCH   3   6
BRANCH   1  17
HETATM   17  N1  UNL     1      24.392   7.166  51.333  1.00  0.00    -0.188 N 
HETATM   18  H3  UNL     1      24.302   8.068  51.864  1.00  0.00     0.184 HD
BRANCH  17  19
HETATM   19  C4  UNL     1      25.437   7.051  50.381  1.00  0.00     0.049 A 
HETATM   20  C3  UNL     1      25.731   5.935  49.647  1.00  0.00     0.032 A 
HETATM   21  C2  UNL     1      26.758   5.871  48.729  1.00  0.00     0.026 A 
HETATM   22  C1  UNL     1      27.547   6.963  48.515  1.00  0.00     0.034 A 
HETATM   23 CL1  UNL     1      28.861   6.893  47.346  1.00  0.00    -0.084 Cl
HETATM   24  C15 UNL     1      27.313   8.114  49.213  1.00  0.00     0.026 A 
HETATM   25  C14 UNL     1      26.274   8.135  50.121  1.00  0.00     0.032 A 
ENDBRANCH  17  19
ENDBRANCH   1  17
TORSDOF 7
ENDMDL
