MODEL 1
REMARK VINA RESULT:      -7.1      0.000      0.000
REMARK  5 active torsions:
REMARK  status: ('A' for Active; 'I' for Inactive)
REMARK    1  A    between atoms: O1_2  and  C2_3 
REMARK    2  A    between atoms: C5_6  and  O2_7 
REMARK    3  A    between atoms: O2_7  and  S1_8 
REMARK    4  A    between atoms: S1_8  and  C6_11 
REMARK    5  A    between atoms: C9_14  and  C10_15 
ROOT
HETATM    1  S1  UNL     1      24.448   1.892  52.567  1.00  0.00     0.303 S 
HETATM    2  O3  UNL     1      24.585   3.207  53.268  1.00  0.00    -0.193 OA
HETATM    3  O4  UNL     1      23.294   1.091  53.088  1.00  0.00    -0.193 OA
ENDROOT
BRANCH   1   4
HETATM    4  O2  UNL     1      24.253   2.192  50.899  1.00  0.00    -0.229 OA
BRANCH   4   5
HETATM    5  C5  UNL     1      24.948   3.225  50.281  1.00  0.00     0.089 A 
HETATM    6  C4  UNL     1      24.357   4.448  50.016  1.00  0.00     0.041 A 
HETATM    7  C3  UNL     1      25.031   5.470  49.408  1.00  0.00     0.039 A 
HETATM    8  C2  UNL     1      26.345   5.297  49.039  1.00  0.00     0.068 A 
HETATM    9  C14 UNL     1      26.935   4.066  49.308  1.00  0.00     0.039 A 
HETATM   10  C13 UNL     1      26.279   3.020  49.919  1.00  0.00     0.041 A 
BRANCH   8  11
HETATM   11  O1  UNL     1      27.189   6.210  48.417  1.00  0.00    -0.356 OA
HETATM   12  C1  UNL     1      28.567   5.996  48.261  1.00  0.00     0.210 C 
ENDBRANCH   8  11
ENDBRANCH   4   5
ENDBRANCH   1   4
BRANCH   1  13
HETATM   13  C6  UNL     1      25.903   0.982  52.833  1.00  0.00     0.086 A 
HETATM   14  C7  UNL     1      25.860  -0.402  52.695  1.00  0.00     0.027 A 
HETATM   15  C8  UNL     1      27.030  -1.101  52.912  1.00  0.00     0.016 A 
HETATM   16  C9  UNL     1      28.244  -0.537  53.258  1.00  0.00     0.002 A 
HETATM   17  C11 UNL     1      28.269   0.851  53.393  1.00  0.00     0.016 A 
HETATM   18  C12 UNL     1      27.112   1.573  53.181  1.00  0.00     0.027 A 
BRANCH  16  19
HETATM   19  C10 UNL     1      29.433  -1.363  53.469  1.00  0.00     0.269 C 
HETATM   20  O5  UNL     1      29.219  -2.600  53.418  1.00  0.00    -0.301 OA
ENDBRANCH  16  19
ENDBRANCH   1  13
TORSDOF 5
ENDMDL
MODEL 2
REMARK VINA RESULT:      -6.9      1.699      6.082
REMARK  5 active torsions:
REMARK  status: ('A' for Active; 'I' for Inactive)
REMARK    1  A    between atoms: O1_2  and  C2_3 
REMARK    2  A    between atoms: C5_6  and  O2_7 
REMARK    3  A    between atoms: O2_7  and  S1_8 
REMARK    4  A    between atoms: S1_8  and  C6_11 
REMARK    5  A    between atoms: C9_14  and  C10_15 
ROOT
HETATM    1  S1  UNL     1      22.948   2.875  50.784  1.00  0.00     0.303 S 
HETATM    2  O3  UNL     1      22.842   1.499  50.205  1.00  0.00    -0.193 OA
HETATM    3  O4  UNL     1      21.756   3.720  50.453  1.00  0.00    -0.193 OA
ENDROOT
BRANCH   1   4
HETATM    4  O2  UNL     1      23.118   2.731  52.476  1.00  0.00    -0.229 OA
BRANCH   4   5
HETATM    5  C5  UNL     1      24.167   2.002  53.021  1.00  0.00     0.089 A 
HETATM    6  C4  UNL     1      25.329   2.611  53.464  1.00  0.00     0.041 A 
HETATM    7  C3  UNL     1      26.367   1.903  54.002  1.00  0.00     0.039 A 
HETATM    8  C2  UNL     1      26.274   0.535  54.116  1.00  0.00     0.068 A 
HETATM    9  C14 UNL     1      25.105  -0.072  53.670  1.00  0.00     0.039 A 
HETATM   10  C13 UNL     1      24.044   0.617  53.124  1.00  0.00     0.041 A 
BRANCH   8  11
HETATM   11  O1  UNL     1      27.215  -0.349  54.632  1.00  0.00    -0.356 OA
HETATM   12  C1  UNL     1      28.568  -0.015  54.799  1.00  0.00     0.210 C 
ENDBRANCH   8  11
ENDBRANCH   4   5
ENDBRANCH   1   4
BRANCH   1  13
HETATM   13  C6  UNL     1      24.356   3.638  50.115  1.00  0.00     0.086 A 
HETATM   14  C7  UNL     1      24.265   4.962  49.699  1.00  0.00     0.027 A 
HETATM   15  C8  UNL     1      25.399   5.544  49.171  1.00  0.00     0.016 A 
HETATM   16  C9  UNL     1      26.622   4.918  49.021  1.00  0.00     0.002 A 
HETATM   17  C11 UNL     1      26.696   3.590  49.444  1.00  0.00     0.016 A 
HETATM   18  C12 UNL     1      25.575   2.985  49.975  1.00  0.00     0.027 A 
BRANCH  16  19
HETATM   19  C10 UNL     1      27.770   5.620  48.448  1.00  0.00     0.269 C 
HETATM   20  O5  UNL     1      28.859   5.003  48.553  1.00  0.00    -0.301 OA
ENDBRANCH  16  19
ENDBRANCH   1  13
TORSDOF 5
ENDMDL
MODEL 3
REMARK VINA RESULT:      -6.8      2.172      2.760
REMARK  5 active torsions:
REMARK  status: ('A' for Active; 'I' for Inactive)
REMARK    1  A    between atoms: O1_2  and  C2_3 
REMARK    2  A    between atoms: C5_6  and  O2_7 
REMARK    3  A    between atoms: O2_7  and  S1_8 
REMARK    4  A    between atoms: S1_8  and  C6_11 
REMARK    5  A    between atoms: C9_14  and  C10_15 
ROOT
HETATM    1  S1  UNL     1      22.852   3.982  51.852  1.00  0.00     0.303 S 
HETATM    2  O3  UNL     1      23.404   5.195  52.532  1.00  0.00    -0.193 OA
HETATM    3  O4  UNL     1      21.373   3.847  52.052  1.00  0.00    -0.193 OA
ENDROOT
BRANCH   1   4
HETATM    4  O2  UNL     1      23.216   4.089  50.189  1.00  0.00    -0.229 OA
BRANCH   4   5
HETATM    5  C5  UNL     1      24.519   4.318  49.765  1.00  0.00     0.089 A 
HETATM    6  C4  UNL     1      24.939   5.563  49.330  1.00  0.00     0.041 A 
HETATM    7  C3  UNL     1      26.219   5.799  48.911  1.00  0.00     0.039 A 
HETATM    8  C2  UNL     1      27.137   4.774  48.912  1.00  0.00     0.068 A 
HETATM    9  C14 UNL     1      26.710   3.524  49.349  1.00  0.00     0.039 A 
HETATM   10  C13 UNL     1      25.427   3.260  49.778  1.00  0.00     0.041 A 
BRANCH   8  11
HETATM   11  O1  UNL     1      28.472   4.818  48.526  1.00  0.00    -0.356 OA
HETATM   12  C1  UNL     1      29.111   5.996  48.109  1.00  0.00     0.210 C 
ENDBRANCH   8  11
ENDBRANCH   4   5
ENDBRANCH   1   4
BRANCH   1  13
HETATM   13  C6  UNL     1      23.619   2.581  52.532  1.00  0.00     0.086 A 
HETATM   14  C7  UNL     1      24.828   2.741  53.202  1.00  0.00     0.027 A 
HETATM   15  C8  UNL     1      25.417   1.611  53.733  1.00  0.00     0.016 A 
HETATM   16  C9  UNL     1      24.903   0.331  53.653  1.00  0.00     0.002 A 
HETATM   17  C11 UNL     1      23.690   0.189  52.979  1.00  0.00     0.016 A 
HETATM   18  C12 UNL     1      23.081   1.303  52.438  1.00  0.00     0.027 A 
BRANCH  16  19
HETATM   19  C10 UNL     1      25.603  -0.808  54.249  1.00  0.00     0.269 C 
HETATM   20  O5  UNL     1      26.536  -0.492  55.028  1.00  0.00    -0.301 OA
ENDBRANCH  16  19
ENDBRANCH   1  13
TORSDOF 5
ENDMDL
MODEL 4
REMARK VINA RESULT:      -6.8      3.199      5.494
REMARK  5 active torsions:
REMARK  status: ('A' for Active; 'I' for Inactive)
REMARK    1  A    between atoms: O1_2  and  C2_3 
REMARK    2  A    between atoms: C5_6  and  O2_7 
REMARK    3  A    between atoms: O2_7  and  S1_8 
REMARK    4  A    between atoms: S1_8  and  C6_11 
REMARK    5  A    between atoms: C9_14  and  C10_15 
ROOT
HETATM    1  S1  UNL     1      24.913   2.411  52.070  1.00  0.00     0.303 S 
HETATM    2  O3  UNL     1      25.418   3.498  51.175  1.00  0.00    -0.193 OA
HETATM    3  O4  UNL     1      24.262   2.953  53.305  1.00  0.00    -0.193 OA
ENDROOT
BRANCH   1   4
HETATM    4  O2  UNL     1      23.805   1.462  51.186  1.00  0.00    -0.229 OA
BRANCH   4   5
HETATM    5  C5  UNL     1      22.702   0.896  51.813  1.00  0.00     0.089 A 
HETATM    6  C4  UNL     1      22.801   0.274  53.047  1.00  0.00     0.041 A 
HETATM    7  C3  UNL     1      21.722  -0.286  53.672  1.00  0.00     0.039 A 
HETATM    8  C2  UNL     1      20.485  -0.241  53.071  1.00  0.00     0.068 A 
HETATM    9  C14 UNL     1      20.391   0.385  51.832  1.00  0.00     0.039 A 
HETATM   10  C13 UNL     1      21.462   0.957  51.180  1.00  0.00     0.041 A 
BRANCH   8  11
HETATM   11  O1  UNL     1      19.281  -0.749  53.546  1.00  0.00    -0.356 OA
HETATM   12  C1  UNL     1      18.112  -0.797  52.772  1.00  0.00     0.210 C 
ENDBRANCH   8  11
ENDBRANCH   4   5
ENDBRANCH   1   4
BRANCH   1  13
HETATM   13  C6  UNL     1      26.265   1.436  52.555  1.00  0.00     0.086 A 
HETATM   14  C7  UNL     1      26.257   0.080  52.246  1.00  0.00     0.027 A 
HETATM   15  C8  UNL     1      27.343  -0.672  52.643  1.00  0.00     0.016 A 
HETATM   16  C9  UNL     1      28.443  -0.187  53.325  1.00  0.00     0.002 A 
HETATM   17  C11 UNL     1      28.436   1.175  53.628  1.00  0.00     0.016 A 
HETATM   18  C12 UNL     1      27.360   1.949  53.242  1.00  0.00     0.027 A 
BRANCH  16  19
HETATM   19  C10 UNL     1      29.550  -1.065  53.706  1.00  0.00     0.269 C 
HETATM   20  O5  UNL     1      29.316  -2.290  53.553  1.00  0.00    -0.301 OA
ENDBRANCH  16  19
ENDBRANCH   1  13
TORSDOF 5
ENDMDL
MODEL 5
REMARK VINA RESULT:      -6.6      5.192      7.684
REMARK  5 active torsions:
REMARK  status: ('A' for Active; 'I' for Inactive)
REMARK    1  A    between atoms: O1_2  and  C2_3 
REMARK    2  A    between atoms: C5_6  and  O2_7 
REMARK    3  A    between atoms: O2_7  and  S1_8 
REMARK    4  A    between atoms: S1_8  and  C6_11 
REMARK    5  A    between atoms: C9_14  and  C10_15 
ROOT
HETATM    1  S1  UNL     1      21.326  -0.831  54.078  1.00  0.00     0.303 S 
HETATM    2  O3  UNL     1      21.238  -2.137  54.802  1.00  0.00    -0.193 OA
HETATM    3  O4  UNL     1      21.401   0.332  55.020  1.00  0.00    -0.193 OA
ENDROOT
BRANCH   1   4
HETATM    4  O2  UNL     1      22.704  -0.867  53.074  1.00  0.00    -0.229 OA
BRANCH   4   5
HETATM    5  C5  UNL     1      23.788  -0.036  53.331  1.00  0.00     0.089 A 
HETATM    6  C4  UNL     1      23.834   1.269  52.871  1.00  0.00     0.041 A 
HETATM    7  C3  UNL     1      24.895   2.094  53.119  1.00  0.00     0.039 A 
HETATM    8  C2  UNL     1      25.966   1.631  53.848  1.00  0.00     0.068 A 
HETATM    9  C14 UNL     1      25.915   0.319  54.308  1.00  0.00     0.039 A 
HETATM   10  C13 UNL     1      24.858  -0.534  54.074  1.00  0.00     0.041 A 
BRANCH   8  11
HETATM   11  O1  UNL     1      27.125   2.313  54.199  1.00  0.00    -0.356 OA
HETATM   12  C1  UNL     1      28.299   2.274  53.432  1.00  0.00     0.210 C 
ENDBRANCH   8  11
ENDBRANCH   4   5
ENDBRANCH   1   4
BRANCH   1  13
HETATM   13  C6  UNL     1      19.898  -0.650  53.108  1.00  0.00     0.086 A 
HETATM   14  C7  UNL     1      18.742  -1.325  53.488  1.00  0.00     0.027 A 
HETATM   15  C8  UNL     1      17.621  -1.164  52.699  1.00  0.00     0.016 A 
HETATM   16  C9  UNL     1      17.553  -0.385  51.559  1.00  0.00     0.002 A 
HETATM   17  C11 UNL     1      18.720   0.284  51.193  1.00  0.00     0.016 A 
HETATM   18  C12 UNL     1      19.855   0.139  51.965  1.00  0.00     0.027 A 
BRANCH  16  19
HETATM   19  C10 UNL     1      16.315  -0.277  50.786  1.00  0.00     0.269 C 
HETATM   20  O5  UNL     1      15.581   0.687  51.116  1.00  0.00    -0.301 OA
ENDBRANCH  16  19
ENDBRANCH   1  13
TORSDOF 5
ENDMDL
MODEL 6
REMARK VINA RESULT:      -6.5      4.789      6.704
REMARK  5 active torsions:
REMARK  status: ('A' for Active; 'I' for Inactive)
REMARK    1  A    between atoms: O1_2  and  C2_3 
REMARK    2  A    between atoms: C5_6  and  O2_7 
REMARK    3  A    between atoms: O2_7  and  S1_8 
REMARK    4  A    between atoms: S1_8  and  C6_11 
REMARK    5  A    between atoms: C9_14  and  C10_15 
ROOT
HETATM    1  S1  UNL     1      22.629  -0.866  54.132  1.00  0.00     0.303 S 
HETATM    2  O3  UNL     1      22.705  -1.490  55.489  1.00  0.00    -0.193 OA
HETATM    3  O4  UNL     1      22.478  -1.889  53.048  1.00  0.00    -0.193 OA
ENDROOT
BRANCH   1   4
HETATM    4  O2  UNL     1      21.308   0.214  54.113  1.00  0.00    -0.229 OA
BRANCH   4   5
HETATM    5  C5  UNL     1      20.358   0.151  53.101  1.00  0.00     0.089 A 
HETATM    6  C4  UNL     1      20.531   0.803  51.892  1.00  0.00     0.041 A 
HETATM    7  C3  UNL     1      19.603   0.746  50.891  1.00  0.00     0.039 A 
HETATM    8  C2  UNL     1      18.447   0.021  51.071  1.00  0.00     0.068 A 
HETATM    9  C14 UNL     1      18.277  -0.632  52.288  1.00  0.00     0.039 A 
HETATM   10  C13 UNL     1      19.197  -0.592  53.313  1.00  0.00     0.041 A 
BRANCH   8  11
HETATM   11  O1  UNL     1      17.396  -0.153  50.179  1.00  0.00    -0.356 OA
HETATM   12  C1  UNL     1      16.089  -0.466  50.586  1.00  0.00     0.210 C 
ENDBRANCH   8  11
ENDBRANCH   4   5
ENDBRANCH   1   4
BRANCH   1  13
HETATM   13  C6  UNL     1      24.104   0.006  53.851  1.00  0.00     0.086 A 
HETATM   14  C7  UNL     1      25.282  -0.478  54.410  1.00  0.00     0.027 A 
HETATM   15  C8  UNL     1      26.440   0.233  54.171  1.00  0.00     0.016 A 
HETATM   16  C9  UNL     1      26.525   1.391  53.421  1.00  0.00     0.002 A 
HETATM   17  C11 UNL     1      25.334   1.863  52.869  1.00  0.00     0.016 A 
HETATM   18  C12 UNL     1      24.162   1.169  53.093  1.00  0.00     0.027 A 
BRANCH  16  19
HETATM   19  C10 UNL     1      27.802   2.078  53.225  1.00  0.00     0.269 C 
HETATM   20  O5  UNL     1      28.259   2.627  54.258  1.00  0.00    -0.301 OA
ENDBRANCH  16  19
ENDBRANCH   1  13
TORSDOF 5
ENDMDL
MODEL 7
REMARK VINA RESULT:      -6.4      3.249      6.632
REMARK  5 active torsions:
REMARK  status: ('A' for Active; 'I' for Inactive)
REMARK    1  A    between atoms: O1_2  and  C2_3 
REMARK    2  A    between atoms: C5_6  and  O2_7 
REMARK    3  A    between atoms: O2_7  and  S1_8 
REMARK    4  A    between atoms: S1_8  and  C6_11 
REMARK    5  A    between atoms: C9_14  and  C10_15 
ROOT
HETATM    1  S1  UNL     1      23.899   3.225  51.849  1.00  0.00     0.303 S 
HETATM    2  O3  UNL     1      23.524   4.673  51.878  1.00  0.00    -0.193 OA
HETATM    3  O4  UNL     1      24.796   2.897  50.695  1.00  0.00    -0.193 OA
ENDROOT
BRANCH   1   4
HETATM    4  O2  UNL     1      24.668   2.841  53.323  1.00  0.00    -0.229 OA
BRANCH   4   5
HETATM    5  C5  UNL     1      25.535   1.759  53.406  1.00  0.00     0.089 A 
HETATM    6  C4  UNL     1      25.087   0.453  53.308  1.00  0.00     0.041 A 
HETATM    7  C3  UNL     1      25.932  -0.619  53.389  1.00  0.00     0.039 A 
HETATM    8  C2  UNL     1      27.280  -0.413  53.575  1.00  0.00     0.068 A 
HETATM    9  C14 UNL     1      27.725   0.901  53.674  1.00  0.00     0.039 A 
HETATM   10  C13 UNL     1      26.896   1.999  53.595  1.00  0.00     0.041 A 
BRANCH   8  11
HETATM   11  O1  UNL     1      28.287  -1.366  53.681  1.00  0.00    -0.356 OA
HETATM   12  C1  UNL     1      29.640  -1.079  53.447  1.00  0.00     0.210 C 
ENDBRANCH   8  11
ENDBRANCH   4   5
ENDBRANCH   1   4
BRANCH   1  13
HETATM   13  C6  UNL     1      22.444   2.291  51.685  1.00  0.00     0.086 A 
HETATM   14  C7  UNL     1      21.358   2.597  52.498  1.00  0.00     0.027 A 
HETATM   15  C8  UNL     1      20.215   1.840  52.347  1.00  0.00     0.016 A 
HETATM   16  C9  UNL     1      20.060   0.798  51.452  1.00  0.00     0.002 A 
HETATM   17  C11 UNL     1      21.159   0.504  50.645  1.00  0.00     0.016 A 
HETATM   18  C12 UNL     1      22.315   1.247  50.776  1.00  0.00     0.027 A 
BRANCH  16  19
HETATM   19  C10 UNL     1      18.806   0.050  51.366  1.00  0.00     0.269 C 
HETATM   20  O5  UNL     1      18.519  -0.602  52.400  1.00  0.00    -0.301 OA
ENDBRANCH  16  19
ENDBRANCH   1  13
TORSDOF 5
ENDMDL
MODEL 8
REMARK VINA RESULT:      -6.4      2.715      6.978
REMARK  5 active torsions:
REMARK  status: ('A' for Active; 'I' for Inactive)
REMARK    1  A    between atoms: O1_2  and  C2_3 
REMARK    2  A    between atoms: C5_6  and  O2_7 
REMARK    3  A    between atoms: O2_7  and  S1_8 
REMARK    4  A    between atoms: S1_8  and  C6_11 
REMARK    5  A    between atoms: C9_14  and  C10_15 
ROOT
HETATM    1  S1  UNL     1      23.616   4.231  50.232  1.00  0.00     0.303 S 
HETATM    2  O3  UNL     1      22.484   4.860  49.483  1.00  0.00    -0.193 OA
HETATM    3  O4  UNL     1      23.595   4.584  51.688  1.00  0.00    -0.193 OA
ENDROOT
BRANCH   1   4
HETATM    4  O2  UNL     1      23.515   2.540  50.033  1.00  0.00    -0.229 OA
BRANCH   4   5
HETATM    5  C5  UNL     1      23.526   1.696  51.137  1.00  0.00     0.089 A 
HETATM    6  C4  UNL     1      24.691   1.415  51.830  1.00  0.00     0.041 A 
HETATM    7  C3  UNL     1      24.714   0.587  52.918  1.00  0.00     0.039 A 
HETATM    8  C2  UNL     1      23.548   0.001  53.354  1.00  0.00     0.068 A 
HETATM    9  C14 UNL     1      22.380   0.286  52.654  1.00  0.00     0.039 A 
HETATM   10  C13 UNL     1      22.329   1.117  51.556  1.00  0.00     0.041 A 
BRANCH   8  11
HETATM   11  O1  UNL     1      23.371  -0.862  54.430  1.00  0.00    -0.356 OA
HETATM   12  C1  UNL     1      22.121  -1.382  54.798  1.00  0.00     0.210 C 
ENDBRANCH   8  11
ENDBRANCH   4   5
ENDBRANCH   1   4
BRANCH   1  13
HETATM   13  C6  UNL     1      25.105   4.813  49.556  1.00  0.00     0.086 A 
HETATM   14  C7  UNL     1      25.156   6.118  49.076  1.00  0.00     0.027 A 
HETATM   15  C8  UNL     1      26.351   6.555  48.543  1.00  0.00     0.016 A 
HETATM   16  C9  UNL     1      27.506   5.801  48.448  1.00  0.00     0.002 A 
HETATM   17  C11 UNL     1      27.438   4.495  48.934  1.00  0.00     0.016 A 
HETATM   18  C12 UNL     1      26.253   4.034  49.471  1.00  0.00     0.027 A 
BRANCH  16  19
HETATM   19  C10 UNL     1      28.729   6.354  47.865  1.00  0.00     0.269 C 
HETATM   20  O5  UNL     1      28.538   7.310  47.072  1.00  0.00    -0.301 OA
ENDBRANCH  16  19
ENDBRANCH   1  13
TORSDOF 5
ENDMDL
MODEL 9
REMARK VINA RESULT:      -6.2      3.453      4.352
REMARK  5 active torsions:
REMARK  status: ('A' for Active; 'I' for Inactive)
REMARK    1  A    between atoms: O1_2  and  C2_3 
REMARK    2  A    between atoms: C5_6  and  O2_7 
REMARK    3  A    between atoms: O2_7  and  S1_8 
REMARK    4  A    between atoms: S1_8  and  C6_11 
REMARK    5  A    between atoms: C9_14  and  C10_15 
ROOT
HETATM    1  S1  UNL     1      22.231   3.658  51.234  1.00  0.00     0.303 S 
HETATM    2  O3  UNL     1      21.089   4.541  51.625  1.00  0.00    -0.193 OA
HETATM    3  O4  UNL     1      22.255   3.384  49.761  1.00  0.00    -0.193 OA
ENDROOT
BRANCH   1   4
HETATM    4  O2  UNL     1      23.682   4.413  51.717  1.00  0.00    -0.229 OA
BRANCH   4   5
HETATM    5  C5  UNL     1      24.753   4.516  50.837  1.00  0.00     0.089 A 
HETATM    6  C4  UNL     1      25.582   3.440  50.565  1.00  0.00     0.041 A 
HETATM    7  C3  UNL     1      26.637   3.531  49.701  1.00  0.00     0.039 A 
HETATM    8  C2  UNL     1      26.903   4.724  49.069  1.00  0.00     0.068 A 
HETATM    9  C14 UNL     1      26.067   5.802  49.347  1.00  0.00     0.039 A 
HETATM   10  C13 UNL     1      24.997   5.738  50.213  1.00  0.00     0.041 A 
BRANCH   8  11
HETATM   11  O1  UNL     1      27.920   5.010  48.167  1.00  0.00    -0.356 OA
HETATM   12  C1  UNL     1      28.663   6.200  48.200  1.00  0.00     0.210 C 
ENDBRANCH   8  11
ENDBRANCH   4   5
ENDBRANCH   1   4
BRANCH   1  13
HETATM   13  C6  UNL     1      22.053   2.142  52.062  1.00  0.00     0.086 A 
HETATM   14  C7  UNL     1      23.171   1.329  52.216  1.00  0.00     0.027 A 
HETATM   15  C8  UNL     1      23.002   0.131  52.878  1.00  0.00     0.016 A 
HETATM   16  C9  UNL     1      21.809  -0.330  53.403  1.00  0.00     0.002 A 
HETATM   17  C11 UNL     1      20.698   0.498  53.240  1.00  0.00     0.016 A 
HETATM   18  C12 UNL     1      20.841   1.702  52.580  1.00  0.00     0.027 A 
BRANCH  16  19
HETATM   19  C10 UNL     1      21.728  -1.619  54.090  1.00  0.00     0.269 C 
HETATM   20  O5  UNL     1      21.880  -1.553  55.335  1.00  0.00    -0.301 OA
ENDBRANCH  16  19
ENDBRANCH   1  13
TORSDOF 5
ENDMDL
