MODEL 1
REMARK VINA RESULT:      -6.5      0.000      0.000
REMARK  6 active torsions:
REMARK  status: ('A' for Active; 'I' for Inactive)
REMARK    1  A    between atoms: C2_2  and  C3_3 
REMARK    2  A    between atoms: C3_3  and  C4_4 
REMARK    3  A    between atoms: C4_4  and  C5_5 
REMARK    4  A    between atoms: C4_4  and  S1_9 
REMARK    5  A    between atoms: C5_5  and  C6_6 
REMARK    6  A    between atoms: C9_12  and  O1_13 
ROOT
HETATM    1  S1  UNL     1      25.059   0.626  53.134  1.00  0.00    -0.146 SA
HETATM    2  C7  UNL     1      25.592  -0.626  52.286  1.00  0.00     0.021 C 
HETATM    3  C8  UNL     1      27.001  -0.477  51.900  1.00  0.00     0.098 C 
HETATM    4  C9  UNL     1      27.866  -0.637  53.084  1.00  0.00     0.047 C 
HETATM    5  C11 UNL     1      28.466   0.218  53.825  1.00  0.00     0.029 C 
HETATM    6  C12 UNL     1      29.107   1.234  54.614  1.00  0.00     0.261 C 
HETATM    7  N1  UNL     1      28.689   2.406  54.150  1.00  0.00    -0.295 NA
HETATM    8  C13 UNL     1      27.768   2.365  53.072  1.00  0.00     0.163 C 
HETATM    9  N2  UNL     1      26.838   2.319  52.185  1.00  0.00    -0.281 NA
HETATM   10  C14 UNL     1      25.413   2.212  52.446  1.00  0.00     0.221 C 
ENDROOT
BRANCH   1  11
HETATM   11  C4  UNL     1      23.383   0.330  53.525  1.00  0.00    -0.007 C 
BRANCH  11  12
HETATM   12  C3  UNL     1      22.256   0.989  53.212  1.00  0.00    -0.004 C 
BRANCH  12  13
HETATM   13  C2  UNL     1      22.210   0.697  51.798  1.00  0.00     0.035 C 
HETATM   14  C1  UNL     1      21.390   0.518  50.783  1.00  0.00    -0.008 C 
ENDBRANCH  12  13
ENDBRANCH  11  12
BRANCH  11  15
HETATM   15  C5  UNL     1      22.976  -0.783  54.323  1.00  0.00     0.055 C 
BRANCH  15  16
HETATM   16  C6  UNL     1      21.684  -0.970  54.501  1.00  0.00     0.246 A 
HETATM   17  F1  UNL     1      20.429  -1.476  54.457  1.00  0.00    -0.277 F 
HETATM   18 CL1  UNL     1      20.261  -1.930  54.196  1.00  0.00    -0.005 Cl
ENDBRANCH  15  16
ENDBRANCH  11  15
ENDBRANCH   1  11
BRANCH   4  19
HETATM   19  O1  UNL     1      28.083  -1.979  53.489  1.00  0.00    -0.360 OA
HETATM   20  C10 UNL     1      29.376  -2.493  53.380  1.00  0.00     0.209 C 
ENDBRANCH   4  19
TORSDOF 6
ENDMDL
MODEL 2
REMARK VINA RESULT:      -6.3      4.558      6.292
REMARK  6 active torsions:
REMARK  status: ('A' for Active; 'I' for Inactive)
REMARK    1  A    between atoms: C2_2  and  C3_3 
REMARK    2  A    between atoms: C3_3  and  C4_4 
REMARK    3  A    between atoms: C4_4  and  C5_5 
REMARK    4  A    between atoms: C4_4  and  S1_9 
REMARK    5  A    between atoms: C5_5  and  C6_6 
REMARK    6  A    between atoms: C9_12  and  O1_13 
ROOT
HETATM    1  S1  UNL     1      25.964   2.652  52.173  1.00  0.00    -0.146 SA
HETATM    2  C7  UNL     1      26.565   2.160  50.770  1.00  0.00     0.021 C 
HETATM    3  C8  UNL     1      25.937   2.838  49.628  1.00  0.00     0.098 C 
HETATM    4  C9  UNL     1      26.383   4.242  49.571  1.00  0.00     0.047 C 
HETATM    5  C11 UNL     1      25.817   5.334  49.930  1.00  0.00     0.029 C 
HETATM    6  C12 UNL     1      25.121   6.517  50.357  1.00  0.00     0.261 C 
HETATM    7  N1  UNL     1      23.997   6.115  50.942  1.00  0.00    -0.295 NA
HETATM    8  C13 UNL     1      23.785   4.714  51.004  1.00  0.00     0.163 C 
HETATM    9  N2  UNL     1      23.662   3.445  51.172  1.00  0.00    -0.281 NA
HETATM   10  C14 UNL     1      24.203   2.673  52.277  1.00  0.00     0.221 C 
ENDROOT
BRANCH   1  11
HETATM   11  C4  UNL     1      26.784   1.774  53.440  1.00  0.00    -0.007 C 
BRANCH  11  12
HETATM   12  C3  UNL     1      26.394   0.765  54.234  1.00  0.00    -0.004 C 
BRANCH  12  13
HETATM   13  C2  UNL     1      26.087  -0.214  53.218  1.00  0.00     0.035 C 
HETATM   14  C1  UNL     1      26.527  -1.318  52.648  1.00  0.00    -0.008 C 
ENDBRANCH  12  13
ENDBRANCH  11  12
BRANCH  11  15
HETATM   15  C5  UNL     1      28.129   2.073  53.821  1.00  0.00     0.055 C 
BRANCH  15  16
HETATM   16  C6  UNL     1      29.076   1.245  53.428  1.00  0.00     0.246 A 
HETATM   17  F1  UNL     1      29.903   0.179  53.322  1.00  0.00    -0.277 F 
HETATM   18 CL1  UNL     1      29.905  -0.276  53.631  1.00  0.00    -0.005 Cl
ENDBRANCH  15  16
ENDBRANCH  11  15
ENDBRANCH   1  11
BRANCH   4  19
HETATM   19  O1  UNL     1      27.676   4.438  49.021  1.00  0.00    -0.360 OA
HETATM   20  C10 UNL     1      27.931   5.642  48.364  1.00  0.00     0.209 C 
ENDBRANCH   4  19
TORSDOF 6
ENDMDL
MODEL 3
REMARK VINA RESULT:      -6.2      4.181      6.460
REMARK  6 active torsions:
REMARK  status: ('A' for Active; 'I' for Inactive)
REMARK    1  A    between atoms: C2_2  and  C3_3 
REMARK    2  A    between atoms: C3_3  and  C4_4 
REMARK    3  A    between atoms: C4_4  and  C5_5 
REMARK    4  A    between atoms: C4_4  and  S1_9 
REMARK    5  A    between atoms: C5_5  and  C6_6 
REMARK    6  A    between atoms: C9_12  and  O1_13 
ROOT
HETATM    1  S1  UNL     1      25.672   1.858  51.965  1.00  0.00    -0.146 SA
HETATM    2  C7  UNL     1      24.796   2.537  53.125  1.00  0.00     0.021 C 
HETATM    3  C8  UNL     1      23.837   3.517  52.597  1.00  0.00     0.098 C 
HETATM    4  C9  UNL     1      22.748   2.819  51.887  1.00  0.00     0.047 C 
HETATM    5  C11 UNL     1      22.525   2.629  50.640  1.00  0.00     0.029 C 
HETATM    6  C12 UNL     1      22.341   2.453  49.226  1.00  0.00     0.261 C 
HETATM    7  N1  UNL     1      23.420   2.949  48.630  1.00  0.00    -0.295 NA
HETATM    8  C13 UNL     1      24.421   3.482  49.482  1.00  0.00     0.163 C 
HETATM    9  N2  UNL     1      25.377   3.844  50.262  1.00  0.00    -0.281 NA
HETATM   10  C14 UNL     1      26.404   2.978  50.815  1.00  0.00     0.221 C 
ENDROOT
BRANCH   1  11
HETATM   11  C4  UNL     1      26.767   0.727  52.719  1.00  0.00    -0.007 C 
BRANCH  11  12
HETATM   12  C3  UNL     1      26.836  -0.613  52.691  1.00  0.00    -0.004 C 
BRANCH  12  13
HETATM   13  C2  UNL     1      25.612  -0.915  53.397  1.00  0.00     0.035 C 
HETATM   14  C1  UNL     1      25.031  -0.853  54.577  1.00  0.00    -0.008 C 
ENDBRANCH  12  13
ENDBRANCH  11  12
BRANCH  11  15
HETATM   15  C5  UNL     1      27.844   1.155  53.556  1.00  0.00     0.055 C 
BRANCH  15  16
HETATM   16  C6  UNL     1      29.031   0.622  53.349  1.00  0.00     0.246 A 
HETATM   17  F1  UNL     1      30.109  -0.195  53.389  1.00  0.00    -0.277 F 
HETATM   18 CL1  UNL     1      30.166  -0.660  53.678  1.00  0.00    -0.005 Cl
ENDBRANCH  15  16
ENDBRANCH  11  15
ENDBRANCH   1  11
BRANCH   4  19
HETATM   19  O1  UNL     1      21.757   2.249  52.726  1.00  0.00    -0.360 OA
HETATM   20  C10 UNL     1      20.428   2.616  52.510  1.00  0.00     0.209 C 
ENDBRANCH   4  19
TORSDOF 6
ENDMDL
MODEL 4
REMARK VINA RESULT:      -6.1      3.422      4.769
REMARK  6 active torsions:
REMARK  status: ('A' for Active; 'I' for Inactive)
REMARK    1  A    between atoms: C2_2  and  C3_3 
REMARK    2  A    between atoms: C3_3  and  C4_4 
REMARK    3  A    between atoms: C4_4  and  C5_5 
REMARK    4  A    between atoms: C4_4  and  S1_9 
REMARK    5  A    between atoms: C5_5  and  C6_6 
REMARK    6  A    between atoms: C9_12  and  O1_13 
ROOT
HETATM    1  S1  UNL     1      22.899   2.075  52.042  1.00  0.00    -0.146 SA
HETATM    2  C7  UNL     1      22.489   3.617  52.201  1.00  0.00     0.021 C 
HETATM    3  C8  UNL     1      23.659   4.505  52.221  1.00  0.00     0.098 C 
HETATM    4  C9  UNL     1      24.254   4.581  50.873  1.00  0.00     0.047 C 
HETATM    5  C11 UNL     1      25.281   4.012  50.360  1.00  0.00     0.029 C 
HETATM    6  C12 UNL     1      26.443   3.337  49.851  1.00  0.00     0.261 C 
HETATM    7  N1  UNL     1      26.856   2.507  50.802  1.00  0.00    -0.295 NA
HETATM    8  C13 UNL     1      26.092   2.487  51.997  1.00  0.00     0.163 C 
HETATM    9  N2  UNL     1      25.323   2.380  53.022  1.00  0.00    -0.281 NA
HETATM   10  C14 UNL     1      24.164   1.512  53.134  1.00  0.00     0.221 C 
ENDROOT
BRANCH   1  11
HETATM   11  C4  UNL     1      21.431   1.131  52.036  1.00  0.00    -0.007 C 
BRANCH  11  12
HETATM   12  C3  UNL     1      20.888   0.316  51.118  1.00  0.00    -0.004 C 
BRANCH  12  13
HETATM   13  C2  UNL     1      21.555   0.827  49.943  1.00  0.00     0.035 C 
HETATM   14  C1  UNL     1      21.353   1.233  48.706  1.00  0.00    -0.008 C 
ENDBRANCH  12  13
ENDBRANCH  11  12
BRANCH  11  15
HETATM   15  C5  UNL     1      20.530   1.124  53.146  1.00  0.00     0.055 C 
BRANCH  15  16
HETATM   16  C6  UNL     1      20.869   0.419  54.206  1.00  0.00     0.246 A 
HETATM   17  F1  UNL     1      21.350  -0.554  55.017  1.00  0.00    -0.277 F 
HETATM   18 CL1  UNL     1      21.594  -1.023  54.868  1.00  0.00    -0.005 Cl
ENDBRANCH  15  16
ENDBRANCH  11  15
ENDBRANCH   1  11
BRANCH   4  19
HETATM   19  O1  UNL     1      23.577   5.436  49.968  1.00  0.00    -0.360 OA
HETATM   20  C10 UNL     1      23.201   4.912  48.730  1.00  0.00     0.209 C 
ENDBRANCH   4  19
TORSDOF 6
ENDMDL
MODEL 5
REMARK VINA RESULT:      -6.0      3.087      5.690
REMARK  6 active torsions:
REMARK  status: ('A' for Active; 'I' for Inactive)
REMARK    1  A    between atoms: C2_2  and  C3_3 
REMARK    2  A    between atoms: C3_3  and  C4_4 
REMARK    3  A    between atoms: C4_4  and  C5_5 
REMARK    4  A    between atoms: C4_4  and  S1_9 
REMARK    5  A    between atoms: C5_5  and  C6_6 
REMARK    6  A    between atoms: C9_12  and  O1_13 
ROOT
HETATM    1  S1  UNL     1      25.048   1.800  51.954  1.00  0.00    -0.146 SA
HETATM    2  C7  UNL     1      24.363   2.649  53.130  1.00  0.00     0.021 C 
HETATM    3  C8  UNL     1      23.853   3.943  52.658  1.00  0.00     0.098 C 
HETATM    4  C9  UNL     1      22.657   3.736  51.821  1.00  0.00     0.047 C 
HETATM    5  C11 UNL     1      22.493   3.737  50.551  1.00  0.00     0.029 C 
HETATM    6  C12 UNL     1      22.385   3.752  49.118  1.00  0.00     0.261 C 
HETATM    7  N1  UNL     1      23.617   3.881  48.637  1.00  0.00    -0.295 NA
HETATM    8  C13 UNL     1      24.661   3.956  49.594  1.00  0.00     0.163 C 
HETATM    9  N2  UNL     1      25.611   3.892  50.459  1.00  0.00    -0.281 NA
HETATM   10  C14 UNL     1      26.220   2.678  50.971  1.00  0.00     0.221 C 
ENDROOT
BRANCH   1  11
HETATM   11  C4  UNL     1      25.612   0.298  52.641  1.00  0.00    -0.007 C 
BRANCH  11  12
HETATM   12  C3  UNL     1      26.545  -0.581  52.241  1.00  0.00    -0.004 C 
BRANCH  12  13
HETATM   13  C2  UNL     1      27.664  -0.084  53.009  1.00  0.00     0.035 C 
HETATM   14  C1  UNL     1      28.813  -0.435  53.547  1.00  0.00    -0.008 C 
ENDBRANCH  12  13
ENDBRANCH  11  12
BRANCH  11  15
HETATM   15  C5  UNL     1      25.073  -0.231  53.855  1.00  0.00     0.055 C 
BRANCH  15  16
HETATM   16  C6  UNL     1      23.857  -0.738  53.816  1.00  0.00     0.246 A 
HETATM   17  F1  UNL     1      22.610  -1.087  53.420  1.00  0.00    -0.277 F 
HETATM   18 CL1  UNL     1      22.365  -0.966  52.944  1.00  0.00    -0.005 Cl
ENDBRANCH  15  16
ENDBRANCH  11  15
ENDBRANCH   1  11
BRANCH   4  19
HETATM   19  O1  UNL     1      21.460   3.487  52.540  1.00  0.00    -0.360 OA
HETATM   20  C10 UNL     1      20.709   2.364  52.190  1.00  0.00     0.209 C 
ENDBRANCH   4  19
TORSDOF 6
ENDMDL
MODEL 6
REMARK VINA RESULT:      -5.9     10.638     12.223
REMARK  6 active torsions:
REMARK  status: ('A' for Active; 'I' for Inactive)
REMARK    1  A    between atoms: C2_2  and  C3_3 
REMARK    2  A    between atoms: C3_3  and  C4_4 
REMARK    3  A    between atoms: C4_4  and  C5_5 
REMARK    4  A    between atoms: C4_4  and  S1_9 
REMARK    5  A    between atoms: C5_5  and  C6_6 
REMARK    6  A    between atoms: C9_12  and  O1_13 
ROOT
HETATM    1  S1  UNL     1      33.353   5.527  47.547  1.00  0.00    -0.146 SA
HETATM    2  C7  UNL     1      32.182   5.882  48.583  1.00  0.00     0.021 C 
HETATM    3  C8  UNL     1      32.431   7.144  49.293  1.00  0.00     0.098 C 
HETATM    4  C9  UNL     1      32.253   8.281  48.372  1.00  0.00     0.047 C 
HETATM    5  C11 UNL     1      33.097   9.012  47.744  1.00  0.00     0.029 C 
HETATM    6  C12 UNL     1      34.101   9.789  47.069  1.00  0.00     0.261 C 
HETATM    7  N1  UNL     1      35.272   9.222  47.335  1.00  0.00    -0.295 NA
HETATM    8  C13 UNL     1      35.241   8.064  48.154  1.00  0.00     0.163 C 
HETATM    9  N2  UNL     1      35.193   6.945  48.786  1.00  0.00    -0.281 NA
HETATM   10  C14 UNL     1      34.992   5.635  48.191  1.00  0.00     0.221 C 
ENDROOT
BRANCH   1  11
HETATM   11  C4  UNL     1      32.943   4.015  46.778  1.00  0.00    -0.007 C 
BRANCH  11  12
HETATM   12  C3  UNL     1      32.505   3.723  45.543  1.00  0.00    -0.004 C 
BRANCH  12  13
HETATM   13  C2  UNL     1      33.453   4.502  44.780  1.00  0.00     0.035 C 
HETATM   14  C1  UNL     1      34.691   4.513  44.330  1.00  0.00    -0.008 C 
ENDBRANCH  12  13
ENDBRANCH  11  12
BRANCH  11  15
HETATM   15  C5  UNL     1      33.035   2.764  47.464  1.00  0.00     0.055 C 
BRANCH  15  16
HETATM   16  C6  UNL     1      32.426   1.725  46.930  1.00  0.00     0.246 A 
HETATM   17  F1  UNL     1      31.993   0.469  46.670  1.00  0.00    -0.277 F 
HETATM   18 CL1  UNL     1      32.121   0.008  46.942  1.00  0.00    -0.005 Cl
ENDBRANCH  15  16
ENDBRANCH  11  15
ENDBRANCH   1  11
BRANCH   4  19
HETATM   19  O1  UNL     1      30.905   8.646  48.125  1.00  0.00    -0.360 OA
HETATM   20  C10 UNL     1      30.155   9.139  49.194  1.00  0.00     0.209 C 
ENDBRANCH   4  19
TORSDOF 6
ENDMDL
MODEL 7
REMARK VINA RESULT:      -5.8      4.157      6.036
REMARK  6 active torsions:
REMARK  status: ('A' for Active; 'I' for Inactive)
REMARK    1  A    between atoms: C2_2  and  C3_3 
REMARK    2  A    between atoms: C3_3  and  C4_4 
REMARK    3  A    between atoms: C4_4  and  C5_5 
REMARK    4  A    between atoms: C4_4  and  S1_9 
REMARK    5  A    between atoms: C5_5  and  C6_6 
REMARK    6  A    between atoms: C9_12  and  O1_13 
ROOT
HETATM    1  S1  UNL     1      24.433   1.974  52.019  1.00  0.00    -0.146 SA
HETATM    2  C7  UNL     1      23.126   1.420  51.274  1.00  0.00     0.021 C 
HETATM    3  C8  UNL     1      22.341   2.496  50.655  1.00  0.00     0.098 C 
HETATM    4  C9  UNL     1      23.053   3.020  49.474  1.00  0.00     0.047 C 
HETATM    5  C11 UNL     1      23.760   4.074  49.301  1.00  0.00     0.029 C 
HETATM    6  C12 UNL     1      24.541   5.274  49.183  1.00  0.00     0.261 C 
HETATM    7  N1  UNL     1      24.617   5.810  50.396  1.00  0.00    -0.295 NA
HETATM    8  C13 UNL     1      23.959   5.105  51.437  1.00  0.00     0.163 C 
HETATM    9  N2  UNL     1      23.475   4.397  52.395  1.00  0.00    -0.281 NA
HETATM   10  C14 UNL     1      24.165   3.336  53.108  1.00  0.00     0.221 C 
ENDROOT
BRANCH   1  11
HETATM   11  C4  UNL     1      25.271   0.608  52.712  1.00  0.00    -0.007 C 
BRANCH  11  12
HETATM   12  C3  UNL     1      25.126  -0.039  53.879  1.00  0.00    -0.004 C 
BRANCH  12  13
HETATM   13  C2  UNL     1      23.783  -0.540  53.693  1.00  0.00     0.035 C 
HETATM   14  C1  UNL     1      22.668  -0.834  54.330  1.00  0.00    -0.008 C 
ENDBRANCH  12  13
ENDBRANCH  11  12
BRANCH  11  15
HETATM   15  C5  UNL     1      26.338  -0.054  52.029  1.00  0.00     0.055 C 
BRANCH  15  16
HETATM   16  C6  UNL     1      27.511  -0.103  52.627  1.00  0.00     0.246 A 
HETATM   17  F1  UNL     1      28.609  -0.530  53.295  1.00  0.00    -0.277 F 
HETATM   18 CL1  UNL     1      28.708  -1.036  53.485  1.00  0.00    -0.005 Cl
ENDBRANCH  15  16
ENDBRANCH  11  15
ENDBRANCH   1  11
BRANCH   4  19
HETATM   19  O1  UNL     1      22.944   2.222  48.307  1.00  0.00    -0.360 OA
HETATM   20  C10 UNL     1      22.153   2.698  47.260  1.00  0.00     0.209 C 
ENDBRANCH   4  19
TORSDOF 6
ENDMDL
MODEL 8
REMARK VINA RESULT:      -5.8      3.267      5.580
REMARK  6 active torsions:
REMARK  status: ('A' for Active; 'I' for Inactive)
REMARK    1  A    between atoms: C2_2  and  C3_3 
REMARK    2  A    between atoms: C3_3  and  C4_4 
REMARK    3  A    between atoms: C4_4  and  C5_5 
REMARK    4  A    between atoms: C4_4  and  S1_9 
REMARK    5  A    between atoms: C5_5  and  C6_6 
REMARK    6  A    between atoms: C9_12  and  O1_13 
ROOT
HETATM    1  S1  UNL     1      24.535   1.989  51.918  1.00  0.00    -0.146 SA
HETATM    2  C7  UNL     1      23.245   1.464  51.123  1.00  0.00     0.021 C 
HETATM    3  C8  UNL     1      22.447   2.566  50.570  1.00  0.00     0.098 C 
HETATM    4  C9  UNL     1      23.160   3.183  49.436  1.00  0.00     0.047 C 
HETATM    5  C11 UNL     1      23.849   4.259  49.343  1.00  0.00     0.029 C 
HETATM    6  C12 UNL     1      24.610   5.477  49.316  1.00  0.00     0.261 C 
HETATM    7  N1  UNL     1      24.664   5.930  50.564  1.00  0.00    -0.295 NA
HETATM    8  C13 UNL     1      24.009   5.144  51.547  1.00  0.00     0.163 C 
HETATM    9  N2  UNL     1      23.529   4.363  52.448  1.00  0.00    -0.281 NA
HETATM   10  C14 UNL     1      24.231   3.268  53.094  1.00  0.00     0.221 C 
ENDROOT
BRANCH   1  11
HETATM   11  C4  UNL     1      25.390   0.593  52.525  1.00  0.00    -0.007 C 
BRANCH  11  12
HETATM   12  C3  UNL     1      26.417  -0.118  52.032  1.00  0.00    -0.004 C 
BRANCH  12  13
HETATM   13  C2  UNL     1      27.394   0.157  53.060  1.00  0.00     0.035 C 
HETATM   14  C1  UNL     1      28.627  -0.107  53.442  1.00  0.00    -0.008 C 
ENDBRANCH  12  13
ENDBRANCH  11  12
BRANCH  11  15
HETATM   15  C5  UNL     1      25.047  -0.026  53.767  1.00  0.00     0.055 C 
BRANCH  15  16
HETATM   16  C6  UNL     1      23.832  -0.521  53.890  1.00  0.00     0.246 A 
HETATM   17  F1  UNL     1      22.638  -1.104  53.632  1.00  0.00    -0.277 F 
HETATM   18 CL1  UNL     1      22.461  -1.306  53.153  1.00  0.00    -0.005 Cl
ENDBRANCH  15  16
ENDBRANCH  11  15
ENDBRANCH   1  11
BRANCH   4  19
HETATM   19  O1  UNL     1      23.078   2.465  48.216  1.00  0.00    -0.360 OA
HETATM   20  C10 UNL     1      21.813   2.082  47.766  1.00  0.00     0.209 C 
ENDBRANCH   4  19
TORSDOF 6
ENDMDL
MODEL 9
REMARK VINA RESULT:      -5.8      9.582     11.291
REMARK  6 active torsions:
REMARK  status: ('A' for Active; 'I' for Inactive)
REMARK    1  A    between atoms: C2_2  and  C3_3 
REMARK    2  A    between atoms: C3_3  and  C4_4 
REMARK    3  A    between atoms: C4_4  and  C5_5 
REMARK    4  A    between atoms: C4_4  and  S1_9 
REMARK    5  A    between atoms: C5_5  and  C6_6 
REMARK    6  A    between atoms: C9_12  and  O1_13 
ROOT
HETATM    1  S1  UNL     1      31.980   7.080  47.824  1.00  0.00    -0.146 SA
HETATM    2  C7  UNL     1      32.131   7.197  46.232  1.00  0.00     0.021 C 
HETATM    3  C8  UNL     1      33.444   6.737  45.762  1.00  0.00     0.098 C 
HETATM    4  C9  UNL     1      33.532   5.269  45.877  1.00  0.00     0.047 C 
HETATM    5  C11 UNL     1      34.098   4.512  46.741  1.00  0.00     0.029 C 
HETATM    6  C12 UNL     1      34.755   3.727  47.750  1.00  0.00     0.261 C 
HETATM    7  N1  UNL     1      35.202   4.574  48.670  1.00  0.00    -0.295 NA
HETATM    8  C13 UNL     1      34.929   5.948  48.448  1.00  0.00     0.163 C 
HETATM    9  N2  UNL     1      34.566   7.174  48.307  1.00  0.00    -0.281 NA
HETATM   10  C14 UNL     1      33.314   7.752  48.762  1.00  0.00     0.221 C 
ENDROOT
BRANCH   1  11
HETATM   11  C4  UNL     1      30.389   7.658  48.251  1.00  0.00    -0.007 C 
BRANCH  11  12
HETATM   12  C3  UNL     1      29.975   8.598  49.116  1.00  0.00    -0.004 C 
BRANCH  12  13
HETATM   13  C2  UNL     1      30.211   9.769  48.303  1.00  0.00     0.035 C 
HETATM   14  C1  UNL     1      31.073  10.739  48.074  1.00  0.00    -0.008 C 
ENDBRANCH  12  13
ENDBRANCH  11  12
BRANCH  11  15
HETATM   15  C5  UNL     1      29.203   7.125  47.657  1.00  0.00     0.055 C 
BRANCH  15  16
HETATM   16  C6  UNL     1      28.856   5.894  47.978  1.00  0.00     0.246 A 
HETATM   17  F1  UNL     1      28.174   4.817  48.431  1.00  0.00    -0.277 F 
HETATM   18 CL1  UNL     1      27.672   4.809  48.657  1.00  0.00    -0.005 Cl
ENDBRANCH  15  16
ENDBRANCH  11  15
ENDBRANCH   1  11
BRANCH   4  19
HETATM   19  O1  UNL     1      32.873   4.548  44.848  1.00  0.00    -0.360 OA
HETATM   20  C10 UNL     1      33.261   4.789  43.529  1.00  0.00     0.209 C 
ENDBRANCH   4  19
TORSDOF 6
ENDMDL
