MODEL 1
REMARK VINA RESULT:      -8.1      0.000      0.000
REMARK  9 active torsions:
REMARK  status: ('A' for Active; 'I' for Inactive)
REMARK    1  A    between atoms: C2_2  and  C3_3 
REMARK       I    between atoms: C3_3  and  N1_5 
REMARK    2  A    between atoms: N1_5  and  C4_6 
REMARK    3  A    between atoms: C5_7  and  C6_8 
REMARK    4  A    between atoms: C7_9  and  C8_10 
REMARK    5  A    between atoms: C9_11  and  C10_12 
REMARK    6  A    between atoms: C10_12  and  O2_13 
REMARK    7  A    between atoms: C12_16  and  C13_17 
REMARK    8  A    between atoms: C15_20  and  N4_21 
REMARK    9  A    between atoms: N4_21  and  C16_22 
ROOT
HETATM    1  C13 UNL     1      21.258   0.577  54.113  1.00  0.00     0.166 C 
HETATM    2  C14 UNL     1      20.501  -0.683  53.900  1.00  0.00     0.063 C 
HETATM    3  N3  UNL     1      19.896  -1.656  53.737  1.00  0.00    -0.197 NA
ENDROOT
BRANCH   1   4
HETATM    4  C12 UNL     1      22.657   0.381  53.655  1.00  0.00     0.000 A 
HETATM    5  C11 UNL     1      23.366  -0.684  54.161  1.00  0.00     0.127 A 
HETATM    6  N2  UNL     1      24.629  -0.902  53.782  1.00  0.00    -0.260 NA
HETATM    7  C7  UNL     1      25.262  -0.112  52.906  1.00  0.00     0.068 A 
HETATM    8  C6  UNL     1      24.610   0.972  52.362  1.00  0.00     0.021 A 
HETATM    9  C15 UNL     1      23.307   1.194  52.755  1.00  0.00     0.054 A 
BRANCH   7  10
HETATM   10  C8  UNL     1      26.637  -0.434  52.558  1.00  0.00     0.030 C 
HETATM   11  C9  UNL     1      27.317  -1.345  53.236  1.00  0.00     0.001 C 
BRANCH  11  12
HETATM   12  C10 UNL     1      28.694  -1.815  53.056  1.00  0.00     0.191 C 
BRANCH  12  13
HETATM   13  O2  UNL     1      28.684  -3.221  53.172  1.00  0.00    -0.397 OA
HETATM   14  H11 UNL     1      28.329  -3.652  52.355  1.00  0.00     0.209 HD
ENDBRANCH  12  13
ENDBRANCH  11  12
ENDBRANCH   7  10
BRANCH   8  15
HETATM   15  C5  UNL     1      25.266   1.848  51.421  1.00  0.00     0.033 C 
HETATM   16  C4  UNL     1      25.768   3.042  51.480  1.00  0.00     0.092 C 
BRANCH  16  17
HETATM   17  N1  UNL     1      26.398   3.821  50.478  1.00  0.00    -0.334 N 
HETATM   18  C3  UNL     1      25.936   5.000  49.841  1.00  0.00     0.244 C 
HETATM   19  O1  UNL     1      24.855   5.578  50.061  1.00  0.00    -0.268 OA
HETATM   20  H4  UNL     1      27.345   3.448  50.182  1.00  0.00     0.168 HD
BRANCH  18  21
HETATM   21  C2  UNL     1      26.733   5.667  48.821  1.00  0.00     0.064 C 
HETATM   22  C1  UNL     1      27.828   4.953  48.578  1.00  0.00     0.017 C 
ENDBRANCH  18  21
ENDBRANCH  16  17
ENDBRANCH   8  15
BRANCH   9  23
HETATM   23  N4  UNL     1      22.511   2.260  52.260  1.00  0.00    -0.355 N 
HETATM   24  H15 UNL     1      22.180   3.081  52.810  1.00  0.00     0.166 HD
BRANCH  23  25
HETATM   25  C16 UNL     1      22.163   2.133  50.878  1.00  0.00     0.033 A 
HETATM   26  C17 UNL     1      21.632   0.966  50.374  1.00  0.00     0.029 A 
HETATM   27  C18 UNL     1      21.331   0.940  49.022  1.00  0.00     0.004 A 
HETATM   28  C19 UNL     1      21.513   1.974  48.135  1.00  0.00     0.019 A 
HETATM   29  C20 UNL     1      22.045   3.108  48.700  1.00  0.00     0.013 A 
HETATM   30 BR1  UNL     1      22.364   4.636  47.611  1.00  0.00    -0.051 Br
HETATM   31  C21 UNL     1      22.378   3.229  50.033  1.00  0.00     0.048 A 
ENDBRANCH  23  25
ENDBRANCH   9  23
ENDBRANCH   1   4
TORSDOF 9
ENDMDL
MODEL 2
REMARK VINA RESULT:      -7.5      2.997      5.310
REMARK  9 active torsions:
REMARK  status: ('A' for Active; 'I' for Inactive)
REMARK    1  A    between atoms: C2_2  and  C3_3 
REMARK       I    between atoms: C3_3  and  N1_5 
REMARK    2  A    between atoms: N1_5  and  C4_6 
REMARK    3  A    between atoms: C5_7  and  C6_8 
REMARK    4  A    between atoms: C7_9  and  C8_10 
REMARK    5  A    between atoms: C9_11  and  C10_12 
REMARK    6  A    between atoms: C10_12  and  O2_13 
REMARK    7  A    between atoms: C12_16  and  C13_17 
REMARK    8  A    between atoms: C15_20  and  N4_21 
REMARK    9  A    between atoms: N4_21  and  C16_22 
ROOT
HETATM    1  C13 UNL     1      21.331   0.313  54.310  1.00  0.00     0.166 C 
HETATM    2  C14 UNL     1      21.547  -1.148  54.459  1.00  0.00     0.063 C 
HETATM    3  N3  UNL     1      21.708  -2.287  54.592  1.00  0.00    -0.197 NA
ENDROOT
BRANCH   1   4
HETATM    4  C12 UNL     1      21.526   0.685  52.885  1.00  0.00     0.000 A 
HETATM    5  C11 UNL     1      20.575   0.294  51.973  1.00  0.00     0.127 A 
HETATM    6  N2  UNL     1      20.706   0.602  50.679  1.00  0.00    -0.260 NA
HETATM    7  C7  UNL     1      21.749   1.295  50.208  1.00  0.00     0.068 A 
HETATM    8  C6  UNL     1      22.739   1.716  51.068  1.00  0.00     0.021 A 
HETATM    9  C15 UNL     1      22.601   1.397  52.402  1.00  0.00     0.054 A 
BRANCH   7  10
HETATM   10  C8  UNL     1      21.800   1.580  48.783  1.00  0.00     0.030 C 
HETATM   11  C9  UNL     1      21.340   2.722  48.298  1.00  0.00     0.001 C 
BRANCH  11  12
HETATM   12  C10 UNL     1      21.295   3.205  46.914  1.00  0.00     0.191 C 
BRANCH  12  13
HETATM   13  O2  UNL     1      19.942   3.235  46.517  1.00  0.00    -0.397 OA
HETATM   14  H11 UNL     1      19.485   2.379  46.711  1.00  0.00     0.209 HD
ENDBRANCH  12  13
ENDBRANCH  11  12
ENDBRANCH   7  10
BRANCH   8  15
HETATM   15  C5  UNL     1      23.882   2.458  50.593  1.00  0.00     0.033 C 
HETATM   16  C4  UNL     1      24.264   3.695  50.664  1.00  0.00     0.092 C 
BRANCH  16  17
HETATM   17  N1  UNL     1      25.424   4.327  50.152  1.00  0.00    -0.334 N 
HETATM   18  C3  UNL     1      25.532   5.305  49.133  1.00  0.00     0.244 C 
HETATM   19  O1  UNL     1      24.590   5.800  48.486  1.00  0.00    -0.268 OA
HETATM   20  H4  UNL     1      26.322   4.003  50.613  1.00  0.00     0.168 HD
BRANCH  18  21
HETATM   21  C2  UNL     1      26.828   5.842  48.736  1.00  0.00     0.064 C 
HETATM   22  C1  UNL     1      27.700   4.844  48.614  1.00  0.00     0.017 C 
ENDBRANCH  18  21
ENDBRANCH  16  17
ENDBRANCH   8  15
BRANCH   9  23
HETATM   23  N4  UNL     1      23.532   1.784  53.401  1.00  0.00    -0.355 N 
HETATM   24  H15 UNL     1      23.367   2.490  54.150  1.00  0.00     0.166 HD
BRANCH  23  25
HETATM   25  C16 UNL     1      24.791   1.110  53.315  1.00  0.00     0.033 A 
HETATM   26  C17 UNL     1      24.868  -0.241  53.059  1.00  0.00     0.029 A 
HETATM   27  C18 UNL     1      26.133  -0.803  52.998  1.00  0.00     0.004 A 
HETATM   28  C19 UNL     1      27.321  -0.134  53.170  1.00  0.00     0.019 A 
HETATM   29  C20 UNL     1      27.177   1.208  53.422  1.00  0.00     0.013 A 
HETATM   30 BR1  UNL     1      28.723   2.284  53.687  1.00  0.00    -0.051 Br
HETATM   31  C21 UNL     1      25.962   1.856  53.503  1.00  0.00     0.048 A 
ENDBRANCH  23  25
ENDBRANCH   9  23
ENDBRANCH   1   4
TORSDOF 9
ENDMDL
MODEL 3
REMARK VINA RESULT:      -7.3      2.486      5.542
REMARK  9 active torsions:
REMARK  status: ('A' for Active; 'I' for Inactive)
REMARK    1  A    between atoms: C2_2  and  C3_3 
REMARK       I    between atoms: C3_3  and  N1_5 
REMARK    2  A    between atoms: N1_5  and  C4_6 
REMARK    3  A    between atoms: C5_7  and  C6_8 
REMARK    4  A    between atoms: C7_9  and  C8_10 
REMARK    5  A    between atoms: C9_11  and  C10_12 
REMARK    6  A    between atoms: C10_12  and  O2_13 
REMARK    7  A    between atoms: C12_16  and  C13_17 
REMARK    8  A    between atoms: C15_20  and  N4_21 
REMARK    9  A    between atoms: N4_21  and  C16_22 
ROOT
HETATM    1  C13 UNL     1      22.065   3.088  48.387  1.00  0.00     0.166 C 
HETATM    2  C14 UNL     1      21.101   4.195  48.611  1.00  0.00     0.063 C 
HETATM    3  N3  UNL     1      20.349   5.060  48.769  1.00  0.00    -0.197 NA
ENDROOT
BRANCH   1   4
HETATM    4  C12 UNL     1      22.271   2.363  49.666  1.00  0.00     0.000 A 
HETATM    5  C11 UNL     1      21.187   1.752  50.252  1.00  0.00     0.127 A 
HETATM    6  N2  UNL     1      21.320   1.089  51.404  1.00  0.00    -0.260 NA
HETATM    7  C7  UNL     1      22.492   0.984  52.041  1.00  0.00     0.068 A 
HETATM    8  C6  UNL     1      23.618   1.572  51.510  1.00  0.00     0.021 A 
HETATM    9  C15 UNL     1      23.477   2.256  50.321  1.00  0.00     0.054 A 
BRANCH   7  10
HETATM   10  C8  UNL     1      22.533   0.240  53.290  1.00  0.00     0.030 C 
HETATM   11  C9  UNL     1      21.731  -0.792  53.497  1.00  0.00     0.001 C 
BRANCH  11  12
HETATM   12  C10 UNL     1      21.609  -1.667  54.667  1.00  0.00     0.191 C 
BRANCH  12  13
HETATM   13  O2  UNL     1      22.692  -1.387  55.525  1.00  0.00    -0.397 OA
HETATM   14  H11 UNL     1      22.384  -1.144  56.434  1.00  0.00     0.209 HD
ENDBRANCH  12  13
ENDBRANCH  11  12
ENDBRANCH   7  10
BRANCH   8  15
HETATM   15  C5  UNL     1      24.896   1.485  52.175  1.00  0.00     0.033 C 
HETATM   16  C4  UNL     1      25.984   0.806  51.981  1.00  0.00     0.092 C 
BRANCH  16  17
HETATM   17  N1  UNL     1      27.200   0.797  52.708  1.00  0.00    -0.334 N 
HETATM   18  C3  UNL     1      27.846  -0.286  53.353  1.00  0.00     0.244 C 
HETATM   19  O1  UNL     1      27.442  -1.463  53.395  1.00  0.00    -0.268 OA
HETATM   20  H4  UNL     1      27.670   1.746  52.760  1.00  0.00     0.168 HD
BRANCH  18  21
HETATM   21  C2  UNL     1      29.106  -0.099  54.061  1.00  0.00     0.064 C 
HETATM   22  C1  UNL     1      29.971  -1.034  53.678  1.00  0.00     0.017 C 
ENDBRANCH  18  21
ENDBRANCH  16  17
ENDBRANCH   8  15
BRANCH   9  23
HETATM   23  N4  UNL     1      24.555   2.892  49.651  1.00  0.00    -0.355 N 
HETATM   24  H15 UNL     1      25.204   2.441  48.971  1.00  0.00     0.166 HD
BRANCH  23  25
HETATM   25  C16 UNL     1      24.713   4.275  49.985  1.00  0.00     0.033 A 
HETATM   26  C17 UNL     1      23.926   4.879  50.939  1.00  0.00     0.029 A 
HETATM   27  C18 UNL     1      24.153   6.222  51.190  1.00  0.00     0.004 A 
HETATM   28  C19 UNL     1      25.094   7.010  50.572  1.00  0.00     0.019 A 
HETATM   29  C20 UNL     1      25.847   6.348  49.632  1.00  0.00     0.013 A 
HETATM   30 BR1  UNL     1      27.197   7.292  48.679  1.00  0.00    -0.051 Br
HETATM   31  C21 UNL     1      25.694   5.015  49.313  1.00  0.00     0.048 A 
ENDBRANCH  23  25
ENDBRANCH   9  23
ENDBRANCH   1   4
TORSDOF 9
ENDMDL
MODEL 4
REMARK VINA RESULT:      -7.1      3.227      6.691
REMARK  9 active torsions:
REMARK  status: ('A' for Active; 'I' for Inactive)
REMARK    1  A    between atoms: C2_2  and  C3_3 
REMARK       I    between atoms: C3_3  and  N1_5 
REMARK    2  A    between atoms: N1_5  and  C4_6 
REMARK    3  A    between atoms: C5_7  and  C6_8 
REMARK    4  A    between atoms: C7_9  and  C8_10 
REMARK    5  A    between atoms: C9_11  and  C10_12 
REMARK    6  A    between atoms: C10_12  and  O2_13 
REMARK    7  A    between atoms: C12_16  and  C13_17 
REMARK    8  A    between atoms: C15_20  and  N4_21 
REMARK    9  A    between atoms: N4_21  and  C16_22 
ROOT
HETATM    1  C13 UNL     1      23.026   7.190  49.462  1.00  0.00     0.166 C 
HETATM    2  C14 UNL     1      23.029   8.497  48.758  1.00  0.00     0.063 C 
HETATM    3  N3  UNL     1      23.017   9.521  48.217  1.00  0.00    -0.197 NA
ENDROOT
BRANCH   1   4
HETATM    4  C12 UNL     1      24.340   6.530  49.256  1.00  0.00     0.000 A 
HETATM    5  C11 UNL     1      25.288   7.184  48.505  1.00  0.00     0.127 A 
HETATM    6  N2  UNL     1      26.486   6.631  48.290  1.00  0.00    -0.260 NA
HETATM    7  C7  UNL     1      26.822   5.433  48.781  1.00  0.00     0.068 A 
HETATM    8  C6  UNL     1      25.918   4.723  49.539  1.00  0.00     0.021 A 
HETATM    9  C15 UNL     1      24.684   5.296  49.761  1.00  0.00     0.054 A 
BRANCH   7  10
HETATM   10  C8  UNL     1      28.150   4.917  48.489  1.00  0.00     0.030 C 
HETATM   11  C9  UNL     1      29.153   5.733  48.209  1.00  0.00     0.001 C 
BRANCH  11  12
HETATM   12  C10 UNL     1      30.551   5.428  47.890  1.00  0.00     0.191 C 
BRANCH  12  13
HETATM   13  O2  UNL     1      31.248   5.292  49.108  1.00  0.00    -0.397 OA
HETATM   14  H11 UNL     1      31.151   4.382  49.485  1.00  0.00     0.209 HD
ENDBRANCH  12  13
ENDBRANCH  11  12
ENDBRANCH   7  10
BRANCH   8  15
HETATM   15  C5  UNL     1      26.245   3.424  50.078  1.00  0.00     0.033 C 
HETATM   16  C4  UNL     1      26.531   2.968  51.257  1.00  0.00     0.092 C 
BRANCH  16  17
HETATM   17  N1  UNL     1      26.842   1.653  51.681  1.00  0.00    -0.334 N 
HETATM   18  C3  UNL     1      27.291   1.205  52.948  1.00  0.00     0.244 C 
HETATM   19  O1  UNL     1      27.497   1.918  53.948  1.00  0.00    -0.268 OA
HETATM   20  H4  UNL     1      26.713   0.921  50.924  1.00  0.00     0.168 HD
BRANCH  18  21
HETATM   21  C2  UNL     1      27.564  -0.204  53.197  1.00  0.00     0.064 C 
HETATM   22  C1  UNL     1      26.806  -0.949  52.396  1.00  0.00     0.017 C 
ENDBRANCH  18  21
ENDBRANCH  16  17
ENDBRANCH   8  15
BRANCH   9  23
HETATM   23  N4  UNL     1      23.665   4.688  50.540  1.00  0.00    -0.355 N 
HETATM   24  H15 UNL     1      23.373   4.979  51.497  1.00  0.00     0.166 HD
BRANCH  23  25
HETATM   25  C16 UNL     1      23.025   3.580  49.899  1.00  0.00     0.033 A 
HETATM   26  C17 UNL     1      22.920   3.506  48.528  1.00  0.00     0.029 A 
HETATM   27  C18 UNL     1      22.280   2.395  48.001  1.00  0.00     0.004 A 
HETATM   28  C19 UNL     1      21.739   1.359  48.723  1.00  0.00     0.019 A 
HETATM   29  C20 UNL     1      21.877   1.493  50.084  1.00  0.00     0.013 A 
HETATM   30 BR1  UNL     1      21.183   0.145  51.233  1.00  0.00    -0.051 Br
HETATM   31  C21 UNL     1      22.496   2.560  50.699  1.00  0.00     0.048 A 
ENDBRANCH  23  25
ENDBRANCH   9  23
ENDBRANCH   1   4
TORSDOF 9
ENDMDL
MODEL 5
REMARK VINA RESULT:      -6.9      2.436      5.827
REMARK  9 active torsions:
REMARK  status: ('A' for Active; 'I' for Inactive)
REMARK    1  A    between atoms: C2_2  and  C3_3 
REMARK       I    between atoms: C3_3  and  N1_5 
REMARK    2  A    between atoms: N1_5  and  C4_6 
REMARK    3  A    between atoms: C5_7  and  C6_8 
REMARK    4  A    between atoms: C7_9  and  C8_10 
REMARK    5  A    between atoms: C9_11  and  C10_12 
REMARK    6  A    between atoms: C10_12  and  O2_13 
REMARK    7  A    between atoms: C12_16  and  C13_17 
REMARK    8  A    between atoms: C15_20  and  N4_21 
REMARK    9  A    between atoms: N4_21  and  C16_22 
ROOT
HETATM    1  C13 UNL     1      24.963   6.057  49.172  1.00  0.00     0.166 C 
HETATM    2  C14 UNL     1      25.725   7.141  49.844  1.00  0.00     0.063 C 
HETATM    3  N3  UNL     1      26.308   7.997  50.359  1.00  0.00    -0.197 NA
ENDROOT
BRANCH   1   4
HETATM    4  C12 UNL     1      25.325   4.758  49.794  1.00  0.00     0.000 A 
HETATM    5  C11 UNL     1      26.638   4.353  49.740  1.00  0.00     0.127 A 
HETATM    6  N2  UNL     1      27.014   3.191  50.284  1.00  0.00    -0.260 NA
HETATM    7  C7  UNL     1      26.151   2.373  50.898  1.00  0.00     0.068 A 
HETATM    8  C6  UNL     1      24.821   2.718  50.986  1.00  0.00     0.021 A 
HETATM    9  C15 UNL     1      24.437   3.917  50.424  1.00  0.00     0.054 A 
BRANCH   7  10
HETATM   10  C8  UNL     1      26.660   1.130  51.456  1.00  0.00     0.030 C 
HETATM   11  C9  UNL     1      27.149   1.083  52.685  1.00  0.00     0.001 C 
BRANCH  11  12
HETATM   12  C10 UNL     1      27.705  -0.049  53.433  1.00  0.00     0.191 C 
BRANCH  12  13
HETATM   13  O2  UNL     1      26.634  -0.706  54.072  1.00  0.00    -0.397 OA
HETATM   14  H11 UNL     1      26.796  -0.810  55.043  1.00  0.00     0.209 HD
ENDBRANCH  12  13
ENDBRANCH  11  12
ENDBRANCH   7  10
BRANCH   8  15
HETATM   15  C5  UNL     1      23.863   1.855  51.634  1.00  0.00     0.033 C 
HETATM   16  C4  UNL     1      23.168   1.918  52.727  1.00  0.00     0.092 C 
BRANCH  16  17
HETATM   17  N1  UNL     1      22.241   0.998  53.277  1.00  0.00    -0.334 N 
HETATM   18  C3  UNL     1      22.489  -0.210  53.976  1.00  0.00     0.244 C 
HETATM   19  O1  UNL     1      23.608  -0.690  54.237  1.00  0.00    -0.268 OA
HETATM   20  H4  UNL     1      21.229   1.277  53.131  1.00  0.00     0.168 HD
BRANCH  18  21
HETATM   21  C2  UNL     1      21.394  -1.033  54.471  1.00  0.00     0.064 C 
HETATM   22  C1  UNL     1      20.272  -0.704  53.835  1.00  0.00     0.017 C 
ENDBRANCH  18  21
ENDBRANCH  16  17
ENDBRANCH   8  15
BRANCH   9  23
HETATM   23  N4  UNL     1      23.105   4.407  50.460  1.00  0.00    -0.355 N 
HETATM   24  H15 UNL     1      22.748   5.161  51.085  1.00  0.00     0.166 HD
BRANCH  23  25
HETATM   25  C16 UNL     1      22.224   3.766  49.532  1.00  0.00     0.033 A 
HETATM   26  C17 UNL     1      22.632   3.444  48.257  1.00  0.00     0.029 A 
HETATM   27  C18 UNL     1      21.705   2.827  47.432  1.00  0.00     0.004 A 
HETATM   28  C19 UNL     1      20.413   2.506  47.770  1.00  0.00     0.019 A 
HETATM   29  C20 UNL     1      20.068   2.852  49.055  1.00  0.00     0.013 A 
HETATM   30 BR1  UNL     1      18.312   2.480  49.686  1.00  0.00    -0.051 Br
HETATM   31  C21 UNL     1      20.919   3.469  49.947  1.00  0.00     0.048 A 
ENDBRANCH  23  25
ENDBRANCH   9  23
ENDBRANCH   1   4
TORSDOF 9
ENDMDL
MODEL 6
REMARK VINA RESULT:      -6.8      3.060      5.482
REMARK  9 active torsions:
REMARK  status: ('A' for Active; 'I' for Inactive)
REMARK    1  A    between atoms: C2_2  and  C3_3 
REMARK       I    between atoms: C3_3  and  N1_5 
REMARK    2  A    between atoms: N1_5  and  C4_6 
REMARK    3  A    between atoms: C5_7  and  C6_8 
REMARK    4  A    between atoms: C7_9  and  C8_10 
REMARK    5  A    between atoms: C9_11  and  C10_12 
REMARK    6  A    between atoms: C10_12  and  O2_13 
REMARK    7  A    between atoms: C12_16  and  C13_17 
REMARK    8  A    between atoms: C15_20  and  N4_21 
REMARK    9  A    between atoms: N4_21  and  C16_22 
ROOT
HETATM    1  C13 UNL     1      25.375   0.886  53.553  1.00  0.00     0.166 C 
HETATM    2  C14 UNL     1      26.076  -0.421  53.501  1.00  0.00     0.063 C 
HETATM    3  N3  UNL     1      26.635  -1.434  53.470  1.00  0.00    -0.197 NA
ENDROOT
BRANCH   1   4
HETATM    4  C12 UNL     1      23.986   0.708  53.057  1.00  0.00     0.000 A 
HETATM    5  C11 UNL     1      23.091   0.033  53.854  1.00  0.00     0.127 A 
HETATM    6  N2  UNL     1      21.830  -0.155  53.453  1.00  0.00    -0.260 NA
HETATM    7  C7  UNL     1      21.377   0.292  52.276  1.00  0.00     0.068 A 
HETATM    8  C6  UNL     1      22.221   0.975  51.429  1.00  0.00     0.021 A 
HETATM    9  C15 UNL     1      23.522   1.168  51.846  1.00  0.00     0.054 A 
BRANCH   7  10
HETATM   10  C8  UNL     1      19.988   0.036  51.930  1.00  0.00     0.030 C 
HETATM   11  C9  UNL     1      19.159  -0.519  52.800  1.00  0.00     0.001 C 
BRANCH  11  12
HETATM   12  C10 UNL     1      17.741  -0.861  52.660  1.00  0.00     0.191 C 
BRANCH  12  13
HETATM   13  O2  UNL     1      17.249  -1.182  53.942  1.00  0.00    -0.397 OA
HETATM   14  H11 UNL     1      17.345  -0.422  54.570  1.00  0.00     0.209 HD
ENDBRANCH  12  13
ENDBRANCH  11  12
ENDBRANCH   7  10
BRANCH   8  15
HETATM   15  C5  UNL     1      21.768   1.464  50.149  1.00  0.00     0.033 C 
HETATM   16  C4  UNL     1      21.070   2.484  49.755  1.00  0.00     0.092 C 
BRANCH  16  17
HETATM   17  N1  UNL     1      20.676   2.875  48.451  1.00  0.00    -0.334 N 
HETATM   18  C3  UNL     1      21.449   3.477  47.428  1.00  0.00     0.244 C 
HETATM   19  O1  UNL     1      22.656   3.778  47.499  1.00  0.00    -0.268 OA
HETATM   20  H4  UNL     1      19.656   2.679  48.239  1.00  0.00     0.168 HD
BRANCH  18  21
HETATM   21  C2  UNL     1      20.862   3.813  46.138  1.00  0.00     0.064 C 
HETATM   22  C1  UNL     1      21.734   4.524  45.427  1.00  0.00     0.017 C 
ENDBRANCH  18  21
ENDBRANCH  16  17
ENDBRANCH   8  15
BRANCH   9  23
HETATM   23  N4  UNL     1      24.492   1.871  51.086  1.00  0.00    -0.355 N 
HETATM   24  H15 UNL     1      25.261   1.440  50.529  1.00  0.00     0.166 HD
BRANCH  23  25
HETATM   25  C16 UNL     1      24.349   3.294  51.131  1.00  0.00     0.033 A 
HETATM   26  C17 UNL     1      23.622   3.912  52.124  1.00  0.00     0.029 A 
HETATM   27  C18 UNL     1      23.539   5.294  52.081  1.00  0.00     0.004 A 
HETATM   28  C19 UNL     1      24.116   6.107  51.136  1.00  0.00     0.019 A 
HETATM   29  C20 UNL     1      24.827   5.431  50.175  1.00  0.00     0.013 A 
HETATM   30 BR1  UNL     1      25.692   6.406  48.788  1.00  0.00    -0.051 Br
HETATM   31  C21 UNL     1      24.966   4.059  50.134  1.00  0.00     0.048 A 
ENDBRANCH  23  25
ENDBRANCH   9  23
ENDBRANCH   1   4
TORSDOF 9
ENDMDL
MODEL 7
REMARK VINA RESULT:      -6.6      2.469      5.974
REMARK  9 active torsions:
REMARK  status: ('A' for Active; 'I' for Inactive)
REMARK    1  A    between atoms: C2_2  and  C3_3 
REMARK       I    between atoms: C3_3  and  N1_5 
REMARK    2  A    between atoms: N1_5  and  C4_6 
REMARK    3  A    between atoms: C5_7  and  C6_8 
REMARK    4  A    between atoms: C7_9  and  C8_10 
REMARK    5  A    between atoms: C9_11  and  C10_12 
REMARK    6  A    between atoms: C10_12  and  O2_13 
REMARK    7  A    between atoms: C12_16  and  C13_17 
REMARK    8  A    between atoms: C15_20  and  N4_21 
REMARK    9  A    between atoms: N4_21  and  C16_22 
ROOT
HETATM    1  C13 UNL     1      25.443   6.034  48.660  1.00  0.00     0.166 C 
HETATM    2  C14 UNL     1      26.121   7.171  49.332  1.00  0.00     0.063 C 
HETATM    3  N3  UNL     1      26.641   8.069  49.846  1.00  0.00    -0.197 NA
ENDROOT
BRANCH   1   4
HETATM    4  C12 UNL     1      25.651   4.805  49.466  1.00  0.00     0.000 A 
HETATM    5  C11 UNL     1      26.936   4.343  49.631  1.00  0.00     0.127 A 
HETATM    6  N2  UNL     1      27.175   3.239  50.346  1.00  0.00    -0.260 NA
HETATM    7  C7  UNL     1      26.198   2.536  50.930  1.00  0.00     0.068 A 
HETATM    8  C6  UNL     1      24.889   2.943  50.804  1.00  0.00     0.021 A 
HETATM    9  C15 UNL     1      24.645   4.082  50.066  1.00  0.00     0.054 A 
BRANCH   7  10
HETATM   10  C8  UNL     1      26.562   1.349  51.688  1.00  0.00     0.030 C 
HETATM   11  C9  UNL     1      26.912   1.432  52.961  1.00  0.00     0.001 C 
BRANCH  11  12
HETATM   12  C10 UNL     1      27.311   0.376  53.897  1.00  0.00     0.191 C 
BRANCH  12  13
HETATM   13  O2  UNL     1      28.168   0.956  54.855  1.00  0.00    -0.397 OA
HETATM   14  H11 UNL     1      28.049   0.546  55.748  1.00  0.00     0.209 HD
ENDBRANCH  12  13
ENDBRANCH  11  12
ENDBRANCH   7  10
BRANCH   8  15
HETATM   15  C5  UNL     1      23.810   2.204  51.415  1.00  0.00     0.033 C 
HETATM   16  C4  UNL     1      23.126   2.321  52.510  1.00  0.00     0.092 C 
BRANCH  16  17
HETATM   17  N1  UNL     1      22.070   1.525  53.020  1.00  0.00    -0.334 N 
HETATM   18  C3  UNL     1      22.092   0.168  53.428  1.00  0.00     0.244 C 
HETATM   19  O1  UNL     1      23.082  -0.589  53.410  1.00  0.00    -0.268 OA
HETATM   20  H4  UNL     1      21.147   2.040  53.095  1.00  0.00     0.168 HD
BRANCH  18  21
HETATM   21  C2  UNL     1      20.893  -0.488  53.930  1.00  0.00     0.064 C 
HETATM   22  C1  UNL     1      21.216  -1.678  54.430  1.00  0.00     0.017 C 
ENDBRANCH  18  21
ENDBRANCH  16  17
ENDBRANCH   8  15
BRANCH   9  23
HETATM   23  N4  UNL     1      23.349   4.627  49.871  1.00  0.00    -0.355 N 
HETATM   24  H15 UNL     1      22.834   5.235  50.543  1.00  0.00     0.166 HD
BRANCH  23  25
HETATM   25  C16 UNL     1      22.748   4.268  48.622  1.00  0.00     0.033 A 
HETATM   26  C17 UNL     1      22.704   2.960  48.194  1.00  0.00     0.029 A 
HETATM   27  C18 UNL     1      22.105   2.715  46.970  1.00  0.00     0.004 A 
HETATM   28  C19 UNL     1      21.548   3.658  46.141  1.00  0.00     0.019 A 
HETATM   29  C20 UNL     1      21.624   4.942  46.625  1.00  0.00     0.013 A 
HETATM   30 BR1  UNL     1      20.901   6.374  45.600  1.00  0.00    -0.051 Br
HETATM   31  C21 UNL     1      22.201   5.285  47.829  1.00  0.00     0.048 A 
ENDBRANCH  23  25
ENDBRANCH   9  23
ENDBRANCH   1   4
TORSDOF 9
ENDMDL
MODEL 8
REMARK VINA RESULT:      -6.4      7.438     11.958
REMARK  9 active torsions:
REMARK  status: ('A' for Active; 'I' for Inactive)
REMARK    1  A    between atoms: C2_2  and  C3_3 
REMARK       I    between atoms: C3_3  and  N1_5 
REMARK    2  A    between atoms: N1_5  and  C4_6 
REMARK    3  A    between atoms: C5_7  and  C6_8 
REMARK    4  A    between atoms: C7_9  and  C8_10 
REMARK    5  A    between atoms: C9_11  and  C10_12 
REMARK    6  A    between atoms: C10_12  and  O2_13 
REMARK    7  A    between atoms: C12_16  and  C13_17 
REMARK    8  A    between atoms: C15_20  and  N4_21 
REMARK    9  A    between atoms: N4_21  and  C16_22 
ROOT
HETATM    1  C13 UNL     1      34.585   5.071  47.689  1.00  0.00     0.166 C 
HETATM    2  C14 UNL     1      34.775   4.294  46.438  1.00  0.00     0.063 C 
HETATM    3  N3  UNL     1      34.939   3.684  45.468  1.00  0.00    -0.197 NA
ENDROOT
BRANCH   1   4
HETATM    4  C12 UNL     1      33.149   5.421  47.824  1.00  0.00     0.000 A 
HETATM    5  C11 UNL     1      32.220   4.409  47.748  1.00  0.00     0.127 A 
HETATM    6  N2  UNL     1      30.915   4.673  47.863  1.00  0.00    -0.260 NA
HETATM    7  C7  UNL     1      30.447   5.912  48.053  1.00  0.00     0.068 A 
HETATM    8  C6  UNL     1      31.322   6.972  48.137  1.00  0.00     0.021 A 
HETATM    9  C15 UNL     1      32.669   6.696  48.019  1.00  0.00     0.054 A 
BRANCH   7  10
HETATM   10  C8  UNL     1      29.009   6.095  48.164  1.00  0.00     0.030 C 
HETATM   11  C9  UNL     1      28.228   5.119  48.598  1.00  0.00     0.001 C 
BRANCH  11  12
HETATM   12  C10 UNL     1      26.774   5.091  48.784  1.00  0.00     0.191 C 
BRANCH  12  13
HETATM   13  O2  UNL     1      26.492   5.674  50.037  1.00  0.00    -0.397 OA
HETATM   14  H11 UNL     1      25.527   5.867  50.141  1.00  0.00     0.209 HD
ENDBRANCH  12  13
ENDBRANCH  11  12
ENDBRANCH   7  10
BRANCH   8  15
HETATM   15  C5  UNL     1      30.851   8.322  48.334  1.00  0.00     0.033 C 
HETATM   16  C4  UNL     1      30.597   9.060  49.368  1.00  0.00     0.092 C 
BRANCH  16  17
HETATM   17  N1  UNL     1      30.129  10.395  49.449  1.00  0.00    -0.334 N 
HETATM   18  C3  UNL     1      30.669  11.567  48.862  1.00  0.00     0.244 C 
HETATM   19  O1  UNL     1      31.685  11.628  48.145  1.00  0.00    -0.268 OA
HETATM   20  H4  UNL     1      29.254  10.504  50.037  1.00  0.00     0.168 HD
BRANCH  18  21
HETATM   21  C2  UNL     1      30.043  12.867  49.061  1.00  0.00     0.064 C 
HETATM   22  C1  UNL     1      28.720  12.736  48.994  1.00  0.00     0.017 C 
ENDBRANCH  18  21
ENDBRANCH  16  17
ENDBRANCH   8  15
BRANCH   9  23
HETATM   23  N4  UNL     1      33.681   7.687  48.107  1.00  0.00    -0.355 N 
HETATM   24  H15 UNL     1      34.281   7.874  48.939  1.00  0.00     0.166 HD
BRANCH  23  25
HETATM   25  C16 UNL     1      33.841   8.464  46.916  1.00  0.00     0.033 A 
HETATM   26  C17 UNL     1      34.024   9.828  46.967  1.00  0.00     0.029 A 
HETATM   27  C18 UNL     1      34.165  10.492  45.759  1.00  0.00     0.004 A 
HETATM   28  C19 UNL     1      34.140   9.914  44.513  1.00  0.00     0.019 A 
HETATM   29  C20 UNL     1      33.956   8.553  44.531  1.00  0.00     0.013 A 
HETATM   30 BR1  UNL     1      33.894   7.593  42.889  1.00  0.00    -0.051 Br
HETATM   31  C21 UNL     1      33.804   7.806  45.680  1.00  0.00     0.048 A 
ENDBRANCH  23  25
ENDBRANCH   9  23
ENDBRANCH   1   4
TORSDOF 9
ENDMDL
MODEL 9
REMARK VINA RESULT:      -6.1      3.072      5.579
REMARK  9 active torsions:
REMARK  status: ('A' for Active; 'I' for Inactive)
REMARK    1  A    between atoms: C2_2  and  C3_3 
REMARK       I    between atoms: C3_3  and  N1_5 
REMARK    2  A    between atoms: N1_5  and  C4_6 
REMARK    3  A    between atoms: C5_7  and  C6_8 
REMARK    4  A    between atoms: C7_9  and  C8_10 
REMARK    5  A    between atoms: C9_11  and  C10_12 
REMARK    6  A    between atoms: C10_12  and  O2_13 
REMARK    7  A    between atoms: C12_16  and  C13_17 
REMARK    8  A    between atoms: C15_20  and  N4_21 
REMARK    9  A    between atoms: N4_21  and  C16_22 
ROOT
HETATM    1  C13 UNL     1      25.624   1.643  53.022  1.00  0.00     0.166 C 
HETATM    2  C14 UNL     1      26.081   0.381  53.656  1.00  0.00     0.063 C 
HETATM    3  N3  UNL     1      26.449  -0.594  54.159  1.00  0.00    -0.197 NA
ENDROOT
BRANCH   1   4
HETATM    4  C12 UNL     1      24.321   1.401  52.351  1.00  0.00     0.000 A 
HETATM    5  C11 UNL     1      23.416   0.568  52.966  1.00  0.00     0.127 A 
HETATM    6  N2  UNL     1      22.231   0.316  52.403  1.00  0.00    -0.260 NA
HETATM    7  C7  UNL     1      21.865   0.850  51.231  1.00  0.00     0.068 A 
HETATM    8  C6  UNL     1      22.724   1.693  50.562  1.00  0.00     0.021 A 
HETATM    9  C15 UNL     1      23.947   1.950  51.146  1.00  0.00     0.054 A 
BRANCH   7  10
HETATM   10  C8  UNL     1      20.553   0.514  50.701  1.00  0.00     0.030 C 
HETATM   11  C9  UNL     1      19.448   0.900  51.318  1.00  0.00     0.001 C 
BRANCH  11  12
HETATM   12  C10 UNL     1      18.044   0.672  50.962  1.00  0.00     0.191 C 
BRANCH  12  13
HETATM   13  O2  UNL     1      17.970   0.581  49.556  1.00  0.00    -0.397 OA
HETATM   14  H11 UNL     1      18.351  -0.270  49.225  1.00  0.00     0.209 HD
ENDBRANCH  12  13
ENDBRANCH  11  12
ENDBRANCH   7  10
BRANCH   8  15
HETATM   15  C5  UNL     1      22.365   2.279  49.293  1.00  0.00     0.033 C 
HETATM   16  C4  UNL     1      22.655   2.029  48.055  1.00  0.00     0.092 C 
BRANCH  16  17
HETATM   17  N1  UNL     1      22.240   2.681  46.867  1.00  0.00    -0.334 N 
HETATM   18  C3  UNL     1      21.849   4.030  46.678  1.00  0.00     0.244 C 
HETATM   19  O1  UNL     1      21.801   4.911  47.558  1.00  0.00    -0.268 OA
HETATM   20  H4  UNL     1      22.229   2.048  46.017  1.00  0.00     0.168 HD
BRANCH  18  21
HETATM   21  C2  UNL     1      21.448   4.522  45.367  1.00  0.00     0.064 C 
HETATM   22  C1  UNL     1      22.107   5.646  45.097  1.00  0.00     0.017 C 
ENDBRANCH  18  21
ENDBRANCH  16  17
ENDBRANCH   8  15
BRANCH   9  23
HETATM   23  N4  UNL     1      24.919   2.814  50.579  1.00  0.00    -0.355 N 
HETATM   24  H15 UNL     1      25.835   2.522  50.176  1.00  0.00     0.166 HD
BRANCH  23  25
HETATM   25  C16 UNL     1      24.550   4.197  50.594  1.00  0.00     0.033 A 
HETATM   26  C17 UNL     1      23.959   4.771  51.698  1.00  0.00     0.029 A 
HETATM   27  C18 UNL     1      23.635   6.116  51.614  1.00  0.00     0.004 A 
HETATM   28  C19 UNL     1      23.850   6.931  50.529  1.00  0.00     0.019 A 
HETATM   29  C20 UNL     1      24.442   6.299  49.463  1.00  0.00     0.013 A 
HETATM   30 BR1  UNL     1      24.811   7.283  47.876  1.00  0.00    -0.051 Br
HETATM   31  C21 UNL     1      24.799   4.967  49.451  1.00  0.00     0.048 A 
ENDBRANCH  23  25
ENDBRANCH   9  23
ENDBRANCH   1   4
TORSDOF 9
ENDMDL
