MODEL 1
REMARK VINA RESULT:      -7.8      0.000      0.000
REMARK  6 active torsions:
REMARK  status: ('A' for Active; 'I' for Inactive)
REMARK    1  A    between atoms: C2_2  and  O1_3 
REMARK    2  A    between atoms: C2_2  and  C8_11 
REMARK    3  A    between atoms: O1_3  and  C3_4 
REMARK    4  A    between atoms: C4_5  and  C5_6 
REMARK       I    between atoms: C5_6  and  N1_7 
REMARK    5  A    between atoms: C6_9  and  C7_10 
REMARK    6  A    between atoms: C13_16  and  C14_17 
ROOT
HETATM    1  C1  UNL     1      24.583   2.994  53.398  1.00  0.00     0.045 C 
HETATM    2  C2  UNL     1      24.570   1.557  52.909  1.00  0.00     0.153 C 
ENDROOT
BRANCH   2   3
HETATM    3  O1  UNL     1      25.859   1.280  52.418  1.00  0.00    -0.359 OA
BRANCH   3   4
HETATM    4  C3  UNL     1      26.214  -0.057  52.113  1.00  0.00     0.137 A 
HETATM    5  C4  UNL     1      27.896  -0.640  53.041  1.00  0.00     0.134 A 
HETATM    6  C6  UNL     1      27.273  -0.436  52.692  1.00  0.00    -0.006 A 
HETATM    7  C7  UNL     1      26.843  -0.287  52.455  1.00  0.00    -0.006 A 
BRANCH   5   8
HETATM    8  C5  UNL     1      28.681   0.238  53.949  1.00  0.00     0.236 C 
HETATM    9  N1  UNL     1      30.043   0.484  53.538  1.00  0.00    -0.369 N 
HETATM   10  H5  UNL     1      30.635  -0.279  53.962  1.00  0.00     0.159 HD
HETATM   11  H6  UNL     1      30.037   1.344  52.944  1.00  0.00     0.159 HD
HETATM   12  O2  UNL     1      28.615   0.915  55.040  1.00  0.00    -0.272 OA
ENDBRANCH   5   8
ENDBRANCH   3   4
ENDBRANCH   2   3
BRANCH   2  13
HETATM   13  C8  UNL     1      23.466   1.288  51.965  1.00  0.00    -0.015 A 
HETATM   14  C9  UNL     1      23.303   1.889  50.736  1.00  0.00     0.010 A 
HETATM   15  C10 UNL     1      22.284   1.672  49.835  1.00  0.00     0.001 A 
HETATM   16  C11 UNL     1      21.321   0.754  50.202  1.00  0.00     0.001 A 
HETATM   17  C12 UNL     1      21.432   0.123  51.422  1.00  0.00     0.017 A 
HETATM   18  C13 UNL     1      22.474   0.369  52.300  1.00  0.00     0.056 A 
BRANCH  18  19
HETATM   19  C14 UNL     1      22.438  -0.401  53.544  1.00  0.00     0.418 C 
HETATM   20  F1  UNL     1      23.644  -0.915  53.953  1.00  0.00    -0.166 F 
HETATM   21  F2  UNL     1      21.592  -1.490  53.473  1.00  0.00    -0.166 F 
HETATM   22  F3  UNL     1      21.862   0.390  54.553  1.00  0.00    -0.166 F 
ENDBRANCH  18  19
ENDBRANCH   2  13
TORSDOF 6
ENDMDL
MODEL 2
REMARK VINA RESULT:      -7.3      3.524      4.683
REMARK  6 active torsions:
REMARK  status: ('A' for Active; 'I' for Inactive)
REMARK    1  A    between atoms: C2_2  and  O1_3 
REMARK    2  A    between atoms: C2_2  and  C8_11 
REMARK    3  A    between atoms: O1_3  and  C3_4 
REMARK    4  A    between atoms: C4_5  and  C5_6 
REMARK       I    between atoms: C5_6  and  N1_7 
REMARK    5  A    between atoms: C6_9  and  C7_10 
REMARK    6  A    between atoms: C13_16  and  C14_17 
ROOT
HETATM    1  C1  UNL     1      23.693   4.200  52.550  1.00  0.00     0.045 C 
HETATM    2  C2  UNL     1      24.514   3.010  52.087  1.00  0.00     0.153 C 
ENDROOT
BRANCH   2   3
HETATM    3  O1  UNL     1      24.823   3.228  50.731  1.00  0.00    -0.359 OA
BRANCH   3   4
HETATM    4  C3  UNL     1      26.087   2.829  50.234  1.00  0.00     0.137 A 
HETATM    5  C4  UNL     1      26.989   4.273  49.170  1.00  0.00     0.134 A 
HETATM    6  C6  UNL     1      26.666   3.732  49.561  1.00  0.00    -0.006 A 
HETATM    7  C7  UNL     1      26.435   3.362  49.833  1.00  0.00    -0.006 A 
BRANCH   5   8
HETATM    8  C5  UNL     1      26.392   5.615  48.933  1.00  0.00     0.236 C 
HETATM    9  N1  UNL     1      27.217   6.731  49.330  1.00  0.00    -0.369 N 
HETATM   10  H5  UNL     1      26.988   6.941  50.337  1.00  0.00     0.159 HD
HETATM   11  H6  UNL     1      27.796   6.999  48.500  1.00  0.00     0.159 HD
HETATM   12  O2  UNL     1      25.349   6.214  48.479  1.00  0.00    -0.272 OA
ENDBRANCH   5   8
ENDBRANCH   3   4
ENDBRANCH   2   3
BRANCH   2  13
HETATM   13  C8  UNL     1      23.861   1.719  52.384  1.00  0.00    -0.015 A 
HETATM   14  C9  UNL     1      22.605   1.344  51.957  1.00  0.00     0.010 A 
HETATM   15  C10 UNL     1      21.961   0.155  52.221  1.00  0.00     0.001 A 
HETATM   16  C11 UNL     1      22.644  -0.759  52.997  1.00  0.00     0.001 A 
HETATM   17  C12 UNL     1      23.904  -0.436  53.453  1.00  0.00     0.017 A 
HETATM   18  C13 UNL     1      24.519   0.771  53.164  1.00  0.00     0.056 A 
BRANCH  18  19
HETATM   19  C14 UNL     1      25.861   0.937  53.721  1.00  0.00     0.418 C 
HETATM   20  F1  UNL     1      26.093   2.136  54.350  1.00  0.00    -0.166 F 
HETATM   21  F2  UNL     1      26.852   0.840  52.764  1.00  0.00    -0.166 F 
HETATM   22  F3  UNL     1      26.135  -0.141  54.581  1.00  0.00    -0.166 F 
ENDBRANCH  18  19
ENDBRANCH   2  13
TORSDOF 6
ENDMDL
MODEL 3
REMARK VINA RESULT:      -7.3      1.585      1.911
REMARK  6 active torsions:
REMARK  status: ('A' for Active; 'I' for Inactive)
REMARK    1  A    between atoms: C2_2  and  O1_3 
REMARK    2  A    between atoms: C2_2  and  C8_11 
REMARK    3  A    between atoms: O1_3  and  C3_4 
REMARK    4  A    between atoms: C4_5  and  C5_6 
REMARK       I    between atoms: C5_6  and  N1_7 
REMARK    5  A    between atoms: C6_9  and  C7_10 
REMARK    6  A    between atoms: C13_16  and  C14_17 
ROOT
HETATM    1  C1  UNL     1      23.974   3.820  52.710  1.00  0.00     0.045 C 
HETATM    2  C2  UNL     1      23.675   2.334  52.785  1.00  0.00     0.153 C 
ENDROOT
BRANCH   2   3
HETATM    3  O1  UNL     1      24.903   1.678  52.991  1.00  0.00    -0.359 OA
BRANCH   3   4
HETATM    4  C3  UNL     1      25.785   1.497  51.899  1.00  0.00     0.137 A 
HETATM    5  C4  UNL     1      26.792  -0.237  51.998  1.00  0.00     0.134 A 
HETATM    6  C6  UNL     1      26.426   0.407  51.950  1.00  0.00    -0.006 A 
HETATM    7  C7  UNL     1      26.168   0.850  51.924  1.00  0.00    -0.006 A 
BRANCH   5   8
HETATM    8  C5  UNL     1      26.626  -1.223  53.099  1.00  0.00     0.236 C 
HETATM    9  N1  UNL     1      27.298  -2.484  52.899  1.00  0.00    -0.369 N 
HETATM   10  H5  UNL     1      26.622  -3.117  52.395  1.00  0.00     0.159 HD
HETATM   11  H6  UNL     1      28.254  -2.396  53.314  1.00  0.00     0.159 HD
HETATM   12  O2  UNL     1      26.076  -1.404  54.247  1.00  0.00    -0.272 OA
ENDBRANCH   5   8
ENDBRANCH   3   4
ENDBRANCH   2   3
BRANCH   2  13
HETATM   13  C8  UNL     1      22.892   1.853  51.628  1.00  0.00    -0.015 A 
HETATM   14  C9  UNL     1      22.867   2.441  50.383  1.00  0.00     0.010 A 
HETATM   15  C10 UNL     1      22.143   2.028  49.285  1.00  0.00     0.001 A 
HETATM   16  C11 UNL     1      21.359   0.905  49.450  1.00  0.00     0.001 A 
HETATM   17  C12 UNL     1      21.345   0.276  50.676  1.00  0.00     0.017 A 
HETATM   18  C13 UNL     1      22.088   0.722  51.756  1.00  0.00     0.056 A 
BRANCH  18  19
HETATM   19  C14 UNL     1      21.960  -0.076  52.975  1.00  0.00     0.418 C 
HETATM   20  F1  UNL     1      20.848  -0.879  53.039  1.00  0.00    -0.166 F 
HETATM   21  F2  UNL     1      21.906   0.699  54.117  1.00  0.00    -0.166 F 
HETATM   22  F3  UNL     1      23.134  -0.830  53.152  1.00  0.00    -0.166 F 
ENDBRANCH  18  19
ENDBRANCH   2  13
TORSDOF 6
ENDMDL
MODEL 4
REMARK VINA RESULT:      -7.1      1.497      2.360
REMARK  6 active torsions:
REMARK  status: ('A' for Active; 'I' for Inactive)
REMARK    1  A    between atoms: C2_2  and  O1_3 
REMARK    2  A    between atoms: C2_2  and  C8_11 
REMARK    3  A    between atoms: O1_3  and  C3_4 
REMARK    4  A    between atoms: C4_5  and  C5_6 
REMARK       I    between atoms: C5_6  and  N1_7 
REMARK    5  A    between atoms: C6_9  and  C7_10 
REMARK    6  A    between atoms: C13_16  and  C14_17 
ROOT
HETATM    1  C1  UNL     1      23.739  -1.031  55.439  1.00  0.00     0.045 C 
HETATM    2  C2  UNL     1      24.354  -0.806  54.069  1.00  0.00     0.153 C 
ENDROOT
BRANCH   2   3
HETATM    3  O1  UNL     1      25.734  -1.050  54.194  1.00  0.00    -0.359 OA
BRANCH   3   4
HETATM    4  C3  UNL     1      26.466  -1.493  53.066  1.00  0.00     0.137 A 
HETATM    5  C4  UNL     1      28.314  -0.711  52.988  1.00  0.00     0.134 A 
HETATM    6  C6  UNL     1      27.634  -1.006  53.006  1.00  0.00    -0.006 A 
HETATM    7  C7  UNL     1      27.161  -1.207  53.026  1.00  0.00    -0.006 A 
BRANCH   5   8
HETATM    8  C5  UNL     1      28.852   0.229  54.007  1.00  0.00     0.236 C 
HETATM    9  N1  UNL     1      30.092   0.877  53.649  1.00  0.00    -0.369 N 
HETATM   10  H5  UNL     1      30.873   0.255  53.987  1.00  0.00     0.159 HD
HETATM   11  H6  UNL     1      29.845   1.770  53.162  1.00  0.00     0.159 HD
HETATM   12  O2  UNL     1      28.628   0.728  55.171  1.00  0.00    -0.272 OA
ENDBRANCH   5   8
ENDBRANCH   3   4
ENDBRANCH   2   3
BRANCH   2  13
HETATM   13  C8  UNL     1      23.997   0.507  53.496  1.00  0.00    -0.015 A 
HETATM   14  C9  UNL     1      24.789   1.634  53.530  1.00  0.00     0.010 A 
HETATM   15  C10 UNL     1      24.486   2.876  53.016  1.00  0.00     0.001 A 
HETATM   16  C11 UNL     1      23.258   3.008  52.401  1.00  0.00     0.001 A 
HETATM   17  C12 UNL     1      22.424   1.913  52.338  1.00  0.00     0.017 A 
HETATM   18  C13 UNL     1      22.766   0.679  52.867  1.00  0.00     0.056 A 
BRANCH  18  19
HETATM   19  C14 UNL     1      21.763  -0.373  52.699  1.00  0.00     0.418 C 
HETATM   20  F1  UNL     1      20.917  -0.555  53.765  1.00  0.00    -0.166 F 
HETATM   21  F2  UNL     1      22.324  -1.614  52.472  1.00  0.00    -0.166 F 
HETATM   22  F3  UNL     1      21.037  -0.126  51.519  1.00  0.00    -0.166 F 
ENDBRANCH  18  19
ENDBRANCH   2  13
TORSDOF 6
ENDMDL
MODEL 5
REMARK VINA RESULT:      -7.1      1.037      1.418
REMARK  6 active torsions:
REMARK  status: ('A' for Active; 'I' for Inactive)
REMARK    1  A    between atoms: C2_2  and  O1_3 
REMARK    2  A    between atoms: C2_2  and  C8_11 
REMARK    3  A    between atoms: O1_3  and  C3_4 
REMARK    4  A    between atoms: C4_5  and  C5_6 
REMARK       I    between atoms: C5_6  and  N1_7 
REMARK    5  A    between atoms: C6_9  and  C7_10 
REMARK    6  A    between atoms: C13_16  and  C14_17 
ROOT
HETATM    1  C1  UNL     1      24.332   3.441  53.210  1.00  0.00     0.045 C 
HETATM    2  C2  UNL     1      24.480   2.047  52.629  1.00  0.00     0.153 C 
ENDROOT
BRANCH   2   3
HETATM    3  O1  UNL     1      25.826   1.906  52.241  1.00  0.00    -0.359 OA
BRANCH   3   4
HETATM    4  C3  UNL     1      26.238   0.721  51.584  1.00  0.00     0.137 A 
HETATM    5  C4  UNL     1      27.018  -0.630  52.847  1.00  0.00     0.134 A 
HETATM    6  C6  UNL     1      26.732  -0.140  52.371  1.00  0.00    -0.006 A 
HETATM    7  C7  UNL     1      26.532   0.206  52.048  1.00  0.00    -0.006 A 
BRANCH   5   8
HETATM    8  C5  UNL     1      27.146  -0.409  54.312  1.00  0.00     0.236 C 
HETATM    9  N1  UNL     1      28.500  -0.298  54.800  1.00  0.00    -0.369 N 
HETATM   10  H5  UNL     1      28.821  -1.273  55.043  1.00  0.00     0.159 HD
HETATM   11  H6  UNL     1      28.759   0.715  54.769  1.00  0.00     0.159 HD
HETATM   12  O2  UNL     1      26.470  -0.267  55.397  1.00  0.00    -0.272 OA
ENDBRANCH   5   8
ENDBRANCH   3   4
ENDBRANCH   2   3
BRANCH   2  13
HETATM   13  C8  UNL     1      23.488   1.764  51.572  1.00  0.00    -0.015 A 
HETATM   14  C9  UNL     1      23.433   2.384  50.343  1.00  0.00     0.010 A 
HETATM   15  C10 UNL     1      22.519   2.154  49.338  1.00  0.00     0.001 A 
HETATM   16  C11 UNL     1      21.553   1.200  49.588  1.00  0.00     0.001 A 
HETATM   17  C12 UNL     1      21.559   0.548  50.802  1.00  0.00     0.017 A 
HETATM   18  C13 UNL     1      22.498   0.807  51.787  1.00  0.00     0.056 A 
BRANCH  18  19
HETATM   19  C14 UNL     1      22.359   0.012  53.007  1.00  0.00     0.418 C 
HETATM   20  F1  UNL     1      21.172  -0.666  53.136  1.00  0.00    -0.166 F 
HETATM   21  F2  UNL     1      22.462   0.773  54.155  1.00  0.00    -0.166 F 
HETATM   22  F3  UNL     1      23.452  -0.868  53.104  1.00  0.00    -0.166 F 
ENDBRANCH  18  19
ENDBRANCH   2  13
TORSDOF 6
ENDMDL
MODEL 6
REMARK VINA RESULT:      -7.0      3.045      5.206
REMARK  6 active torsions:
REMARK  status: ('A' for Active; 'I' for Inactive)
REMARK    1  A    between atoms: C2_2  and  O1_3 
REMARK    2  A    between atoms: C2_2  and  C8_11 
REMARK    3  A    between atoms: O1_3  and  C3_4 
REMARK    4  A    between atoms: C4_5  and  C5_6 
REMARK       I    between atoms: C5_6  and  N1_7 
REMARK    5  A    between atoms: C6_9  and  C7_10 
REMARK    6  A    between atoms: C13_16  and  C14_17 
ROOT
HETATM    1  C1  UNL     1      21.513   0.367  50.993  1.00  0.00     0.045 C 
HETATM    2  C2  UNL     1      22.140   1.241  52.065  1.00  0.00     0.153 C 
ENDROOT
BRANCH   2   3
HETATM    3  O1  UNL     1      22.209   2.545  51.540  1.00  0.00    -0.359 OA
BRANCH   3   4
HETATM    4  C3  UNL     1      21.392   3.561  52.093  1.00  0.00     0.137 A 
HETATM    5  C4  UNL     1      22.255   5.372  52.019  1.00  0.00     0.134 A 
HETATM    6  C6  UNL     1      21.925   4.708  52.052  1.00  0.00    -0.006 A 
HETATM    7  C7  UNL     1      21.705   4.245  52.071  1.00  0.00    -0.006 A 
BRANCH   5   8
HETATM    8  C5  UNL     1      23.604   5.617  51.444  1.00  0.00     0.236 C 
HETATM    9  N1  UNL     1      24.331   6.717  52.033  1.00  0.00    -0.369 N 
HETATM   10  H5  UNL     1      24.075   7.582  51.488  1.00  0.00     0.159 HD
HETATM   11  H6  UNL     1      24.895   6.328  52.823  1.00  0.00     0.159 HD
HETATM   12  O2  UNL     1      24.440   5.201  50.559  1.00  0.00    -0.272 OA
ENDBRANCH   5   8
ENDBRANCH   3   4
ENDBRANCH   2   3
BRANCH   2  13
HETATM   13  C8  UNL     1      23.418   0.696  52.566  1.00  0.00    -0.015 A 
HETATM   14  C9  UNL     1      24.662   0.967  52.040  1.00  0.00     0.010 A 
HETATM   15  C10 UNL     1      25.872   0.471  52.473  1.00  0.00     0.001 A 
HETATM   16  C11 UNL     1      25.836  -0.391  53.550  1.00  0.00     0.001 A 
HETATM   17  C12 UNL     1      24.618  -0.699  54.117  1.00  0.00     0.017 A 
HETATM   18  C13 UNL     1      23.421  -0.178  53.651  1.00  0.00     0.056 A 
BRANCH  18  19
HETATM   19  C14 UNL     1      22.228  -0.604  54.381  1.00  0.00     0.418 C 
HETATM   20  F1  UNL     1      21.361   0.402  54.732  1.00  0.00    -0.166 F 
HETATM   21  F2  UNL     1      22.528  -1.245  55.567  1.00  0.00    -0.166 F 
HETATM   22  F3  UNL     1      21.568  -1.597  53.636  1.00  0.00    -0.166 F 
ENDBRANCH  18  19
ENDBRANCH   2  13
TORSDOF 6
ENDMDL
MODEL 7
REMARK VINA RESULT:      -6.9      2.736      3.161
REMARK  6 active torsions:
REMARK  status: ('A' for Active; 'I' for Inactive)
REMARK    1  A    between atoms: C2_2  and  O1_3 
REMARK    2  A    between atoms: C2_2  and  C8_11 
REMARK    3  A    between atoms: O1_3  and  C3_4 
REMARK    4  A    between atoms: C4_5  and  C5_6 
REMARK       I    between atoms: C5_6  and  N1_7 
REMARK    5  A    between atoms: C6_9  and  C7_10 
REMARK    6  A    between atoms: C13_16  and  C14_17 
ROOT
HETATM    1  C1  UNL     1      23.778   3.591  52.604  1.00  0.00     0.045 C 
HETATM    2  C2  UNL     1      22.789   2.444  52.489  1.00  0.00     0.153 C 
ENDROOT
BRANCH   2   3
HETATM    3  O1  UNL     1      23.305   1.381  53.255  1.00  0.00    -0.359 OA
BRANCH   3   4
HETATM    4  C3  UNL     1      24.456   0.693  52.800  1.00  0.00     0.137 A 
HETATM    5  C4  UNL     1      24.965  -0.836  53.997  1.00  0.00     0.134 A 
HETATM    6  C6  UNL     1      24.787  -0.274  53.547  1.00  0.00    -0.006 A 
HETATM    7  C7  UNL     1      24.657   0.117  53.240  1.00  0.00    -0.006 A 
BRANCH   5   8
HETATM    8  C5  UNL     1      24.212  -1.204  55.226  1.00  0.00     0.236 C 
HETATM    9  N1  UNL     1      25.019  -1.372  56.411  1.00  0.00    -0.369 N 
HETATM   10  H5  UNL     1      25.318  -2.382  56.439  1.00  0.00     0.159 HD
HETATM   11  H6  UNL     1      25.065  -0.443  56.889  1.00  0.00     0.159 HD
HETATM   12  O2  UNL     1      23.034  -1.450  55.679  1.00  0.00    -0.272 OA
ENDBRANCH   5   8
ENDBRANCH   3   4
ENDBRANCH   2   3
BRANCH   2  13
HETATM   13  C8  UNL     1      22.467   2.110  51.087  1.00  0.00    -0.015 A 
HETATM   14  C9  UNL     1      23.108   2.618  49.978  1.00  0.00     0.010 A 
HETATM   15  C10 UNL     1      22.829   2.338  48.658  1.00  0.00     0.001 A 
HETATM   16  C11 UNL     1      21.796   1.454  48.419  1.00  0.00     0.001 A 
HETATM   17  C12 UNL     1      21.119   0.915  49.492  1.00  0.00     0.017 A 
HETATM   18  C13 UNL     1      21.431   1.222  50.806  1.00  0.00     0.056 A 
BRANCH  18  19
HETATM   19  C14 UNL     1      20.615   0.547  51.816  1.00  0.00     0.418 C 
HETATM   20  F1  UNL     1      20.172   1.344  52.843  1.00  0.00    -0.166 F 
HETATM   21  F2  UNL     1      21.283  -0.492  52.434  1.00  0.00    -0.166 F 
HETATM   22  F3  UNL     1      19.539  -0.095  51.178  1.00  0.00    -0.166 F 
ENDBRANCH  18  19
ENDBRANCH   2  13
TORSDOF 6
ENDMDL
MODEL 8
REMARK VINA RESULT:      -6.7      3.907      5.762
REMARK  6 active torsions:
REMARK  status: ('A' for Active; 'I' for Inactive)
REMARK    1  A    between atoms: C2_2  and  O1_3 
REMARK    2  A    between atoms: C2_2  and  C8_11 
REMARK    3  A    between atoms: O1_3  and  C3_4 
REMARK    4  A    between atoms: C4_5  and  C5_6 
REMARK       I    between atoms: C5_6  and  N1_7 
REMARK    5  A    between atoms: C6_9  and  C7_10 
REMARK    6  A    between atoms: C13_16  and  C14_17 
ROOT
HETATM    1  C1  UNL     1      23.689   3.490  52.907  1.00  0.00     0.045 C 
HETATM    2  C2  UNL     1      23.391   2.214  52.138  1.00  0.00     0.153 C 
ENDROOT
BRANCH   2   3
HETATM    3  O1  UNL     1      22.582   2.575  51.044  1.00  0.00    -0.359 OA
BRANCH   3   4
HETATM    4  C3  UNL     1      22.787   1.946  49.792  1.00  0.00     0.137 A 
HETATM    5  C4  UNL     1      21.101   1.155  49.041  1.00  0.00     0.134 A 
HETATM    6  C6  UNL     1      21.731   1.443  49.308  1.00  0.00    -0.006 A 
HETATM    7  C7  UNL     1      22.162   1.646  49.500  1.00  0.00    -0.006 A 
BRANCH   5   8
HETATM    8  C5  UNL     1      19.783   1.226  49.726  1.00  0.00     0.236 C 
HETATM    9  N1  UNL     1      18.721   1.823  48.952  1.00  0.00    -0.369 N 
HETATM   10  H5  UNL     1      18.742   2.859  49.148  1.00  0.00     0.159 HD
HETATM   11  H6  UNL     1      18.247   1.051  48.428  1.00  0.00     0.159 HD
HETATM   12  O2  UNL     1      19.173   0.942  50.822  1.00  0.00    -0.272 OA
ENDBRANCH   5   8
ENDBRANCH   3   4
ENDBRANCH   2   3
BRANCH   2  13
HETATM   13  C8  UNL     1      22.842   1.148  53.000  1.00  0.00    -0.015 A 
HETATM   14  C9  UNL     1      21.518   1.010  53.355  1.00  0.00     0.010 A 
HETATM   15  C10 UNL     1      20.973   0.036  54.162  1.00  0.00     0.001 A 
HETATM   16  C11 UNL     1      21.845  -0.904  54.672  1.00  0.00     0.001 A 
HETATM   17  C12 UNL     1      23.183  -0.814  54.351  1.00  0.00     0.017 A 
HETATM   18  C13 UNL     1      23.692   0.181  53.534  1.00  0.00     0.056 A 
BRANCH  18  19
HETATM   19  C14 UNL     1      25.133   0.113  53.291  1.00  0.00     0.418 C 
HETATM   20  F1  UNL     1      25.512   0.186  51.973  1.00  0.00    -0.166 F 
HETATM   21  F2  UNL     1      25.699  -1.056  53.760  1.00  0.00    -0.166 F 
HETATM   22  F3  UNL     1      25.771   1.109  54.052  1.00  0.00    -0.166 F 
ENDBRANCH  18  19
ENDBRANCH   2  13
TORSDOF 6
ENDMDL
MODEL 9
REMARK VINA RESULT:      -6.7      3.381      4.269
REMARK  6 active torsions:
REMARK  status: ('A' for Active; 'I' for Inactive)
REMARK    1  A    between atoms: C2_2  and  O1_3 
REMARK    2  A    between atoms: C2_2  and  C8_11 
REMARK    3  A    between atoms: O1_3  and  C3_4 
REMARK    4  A    between atoms: C4_5  and  C5_6 
REMARK       I    between atoms: C5_6  and  N1_7 
REMARK    5  A    between atoms: C6_9  and  C7_10 
REMARK    6  A    between atoms: C13_16  and  C14_17 
ROOT
HETATM    1  C1  UNL     1      23.061   1.065  51.826  1.00  0.00     0.045 C 
HETATM    2  C2  UNL     1      24.294   1.877  51.473  1.00  0.00     0.153 C 
ENDROOT
BRANCH   2   3
HETATM    3  O1  UNL     1      25.301   1.509  52.385  1.00  0.00    -0.359 OA
BRANCH   3   4
HETATM    4  C3  UNL     1      25.955   0.263  52.232  1.00  0.00     0.137 A 
HETATM    5  C4  UNL     1      27.844   0.293  52.913  1.00  0.00     0.134 A 
HETATM    6  C6  UNL     1      27.148   0.269  52.658  1.00  0.00    -0.006 A 
HETATM    7  C7  UNL     1      26.664   0.261  52.484  1.00  0.00    -0.006 A 
BRANCH   5   8
HETATM    8  C5  UNL     1      28.482   1.493  53.515  1.00  0.00     0.236 C 
HETATM    9  N1  UNL     1      28.912   1.338  54.884  1.00  0.00    -0.369 N 
HETATM   10  H5  UNL     1      28.099   1.615  55.495  1.00  0.00     0.159 HD
HETATM   11  H6  UNL     1      29.902   0.999  54.862  1.00  0.00     0.159 HD
HETATM   12  O2  UNL     1      28.827   2.709  53.273  1.00  0.00    -0.272 OA
ENDBRANCH   5   8
ENDBRANCH   3   4
ENDBRANCH   2   3
BRANCH   2  13
HETATM   13  C8  UNL     1      24.016   3.326  51.395  1.00  0.00    -0.015 A 
HETATM   14  C9  UNL     1      22.946   3.966  51.980  1.00  0.00     0.010 A 
HETATM   15  C10 UNL     1      22.649   5.310  51.920  1.00  0.00     0.001 A 
HETATM   16  C11 UNL     1      23.518   6.102  51.196  1.00  0.00     0.001 A 
HETATM   17  C12 UNL     1      24.606   5.515  50.588  1.00  0.00     0.017 A 
HETATM   18  C13 UNL     1      24.870   4.158  50.673  1.00  0.00     0.056 A 
BRANCH  18  19
HETATM   19  C14 UNL     1      26.076   3.711  49.976  1.00  0.00     0.418 C 
HETATM   20  F1  UNL     1      25.900   2.660  49.110  1.00  0.00    -0.166 F 
HETATM   21  F2  UNL     1      27.070   3.297  50.841  1.00  0.00    -0.166 F 
HETATM   22  F3  UNL     1      26.656   4.810  49.319  1.00  0.00    -0.166 F 
ENDBRANCH  18  19
ENDBRANCH   2  13
TORSDOF 6
ENDMDL
