MODEL 1
REMARK VINA RESULT:      -7.6      0.000      0.000
REMARK  7 active torsions:
REMARK  status: ('A' for Active; 'I' for Inactive)
REMARK    1  A    between atoms: C3_3  and  C4_4 
REMARK    2  A    between atoms: C4_4  and  C5_5 
REMARK    3  A    between atoms: C4_4  and  C20_25 
REMARK    4  A    between atoms: C5_5  and  C6_6 
REMARK    5  A    between atoms: C6_6  and  N1_7 
REMARK    6  A    between atoms: N1_7  and  C7_8 
REMARK    7  A    between atoms: C12_14  and  O1_15 
ROOT
HETATM    1  C7  UNL     1      22.819   1.576  52.003  1.00  0.00     0.156 C 
HETATM    2  C8  UNL     1      21.756   2.134  51.516  1.00  0.00     0.129 C 
HETATM    3  N2  UNL     1      21.670   2.296  50.274  1.00  0.00    -0.280 NA
HETATM    4  C9  UNL     1      22.816   2.555  49.484  1.00  0.00     0.178 C 
HETATM    5  C10 UNL     1      23.099   3.959  49.119  1.00  0.00     0.011 C 
HETATM    6  C11 UNL     1      24.277   4.512  49.472  1.00  0.00     0.020 C 
HETATM    7  C12 UNL     1      24.387   5.916  49.027  1.00  0.00     0.080 C 
HETATM    8  C14 UNL     1      25.507   6.505  48.568  1.00  0.00     0.037 C 
HETATM    9  C15 UNL     1      26.846   6.000  48.373  1.00  0.00    -0.001 C 
HETATM   10  C16 UNL     1      27.230   4.838  48.858  1.00  0.00    -0.021 C 
HETATM   11  C17 UNL     1      26.750   3.683  49.645  1.00  0.00     0.087 C 
HETATM   12  C18 UNL     1      25.406   3.894  50.218  1.00  0.00     0.052 C 
HETATM   13  N3  UNL     1      25.065   3.577  51.428  1.00  0.00    -0.245 NA
HETATM   14  C19 UNL     1      23.704   3.864  51.830  1.00  0.00     0.235 C 
HETATM   15  N4  UNL     1      23.653   2.653  51.804  1.00  0.00    -0.222 NA
ENDROOT
BRANCH   1  16
HETATM   16  N1  UNL     1      23.176   0.356  52.574  1.00  0.00    -0.369 N 
HETATM   17  H9  UNL     1      22.723  -0.241  51.819  1.00  0.00     0.161 HD
BRANCH  16  18
HETATM   18  C6  UNL     1      23.854  -0.350  53.665  1.00  0.00     0.149 C 
BRANCH  18  19
HETATM   19  C5  UNL     1      25.257  -0.568  53.387  1.00  0.00     0.000 C 
BRANCH  19  20
HETATM   20  C4  UNL     1      26.454  -0.588  52.868  1.00  0.00    -0.051 C 
BRANCH  20  21
HETATM   21  C3  UNL     1      27.505  -1.586  52.834  1.00  0.00     0.003 C 
HETATM   22  C2  UNL     1      28.755  -1.769  53.122  1.00  0.00    -0.030 C 
HETATM   23  C1  UNL     1      29.885  -1.005  53.691  1.00  0.00     0.036 C 
ENDBRANCH  20  21
BRANCH  20  24
HETATM   24  C20 UNL     1      26.787   0.664  52.145  1.00  0.00     0.123 C 
HETATM   25 BR1  UNL     1      27.601   1.974  53.318  1.00  0.00    -0.091 Br
ENDBRANCH  20  24
ENDBRANCH  19  20
ENDBRANCH  18  19
ENDBRANCH  16  18
ENDBRANCH   1  16
BRANCH   7  26
HETATM   26  O1  UNL     1      23.164   6.611  49.127  1.00  0.00    -0.355 OA
HETATM   27  C13 UNL     1      23.096   7.458  50.272  1.00  0.00     0.210 C 
ENDBRANCH   7  26
TORSDOF 7
ENDMDL
MODEL 2
REMARK VINA RESULT:      -7.5      3.802      6.843
REMARK  7 active torsions:
REMARK  status: ('A' for Active; 'I' for Inactive)
REMARK    1  A    between atoms: C3_3  and  C4_4 
REMARK    2  A    between atoms: C4_4  and  C5_5 
REMARK    3  A    between atoms: C4_4  and  C20_25 
REMARK    4  A    between atoms: C5_5  and  C6_6 
REMARK    5  A    between atoms: C6_6  and  N1_7 
REMARK    6  A    between atoms: N1_7  and  C7_8 
REMARK    7  A    between atoms: C12_14  and  O1_15 
ROOT
HETATM    1  C7  UNL     1      23.405   1.644  51.862  1.00  0.00     0.156 C 
HETATM    2  C8  UNL     1      24.001   2.790  51.971  1.00  0.00     0.129 C 
HETATM    3  N2  UNL     1      25.083   2.971  51.361  1.00  0.00    -0.280 NA
HETATM    4  C9  UNL     1      26.000   1.911  51.156  1.00  0.00     0.178 C 
HETATM    5  C10 UNL     1      27.147   1.803  52.083  1.00  0.00     0.011 C 
HETATM    6  C11 UNL     1      27.322   0.671  52.792  1.00  0.00     0.020 C 
HETATM    7  C12 UNL     1      28.514   0.739  53.663  1.00  0.00     0.080 C 
HETATM    8  C14 UNL     1      29.354  -0.280  53.919  1.00  0.00     0.037 C 
HETATM    9  C15 UNL     1      29.368  -1.650  53.462  1.00  0.00    -0.001 C 
HETATM   10  C16 UNL     1      28.343  -2.185  52.834  1.00  0.00    -0.021 C 
HETATM   11  C17 UNL     1      26.980  -1.882  52.349  1.00  0.00     0.087 C 
HETATM   12  C18 UNL     1      26.490  -0.563  52.793  1.00  0.00     0.052 C 
HETATM   13  N3  UNL     1      25.294  -0.335  53.239  1.00  0.00    -0.245 NA
HETATM   14  C19 UNL     1      24.984   1.020  53.642  1.00  0.00     0.235 C 
HETATM   15  N4  UNL     1      24.291   0.944  52.651  1.00  0.00    -0.222 NA
ENDROOT
BRANCH   1  16
HETATM   16  N1  UNL     1      22.273   1.124  51.237  1.00  0.00    -0.369 N 
HETATM   17  H9  UNL     1      22.609   0.114  51.256  1.00  0.00     0.161 HD
BRANCH  16  18
HETATM   18  C6  UNL     1      20.958   1.380  50.646  1.00  0.00     0.149 C 
BRANCH  18  19
HETATM   19  C5  UNL     1      19.915   0.593  51.268  1.00  0.00     0.000 C 
BRANCH  19  20
HETATM   20  C4  UNL     1      19.158  -0.071  52.097  1.00  0.00    -0.051 C 
BRANCH  20  21
HETATM   21  C3  UNL     1      19.437  -0.865  53.278  1.00  0.00     0.003 C 
HETATM   22  C2  UNL     1      20.341  -1.075  54.183  1.00  0.00    -0.030 C 
HETATM   23  C1  UNL     1      21.689  -0.582  54.538  1.00  0.00     0.036 C 
ENDBRANCH  20  21
BRANCH  20  24
HETATM   24  C20 UNL     1      17.716   0.037  51.770  1.00  0.00     0.123 C 
HETATM   25 BR1  UNL     1      16.683  -1.373  52.607  1.00  0.00    -0.091 Br
ENDBRANCH  20  24
ENDBRANCH  19  20
ENDBRANCH  18  19
ENDBRANCH  16  18
ENDBRANCH   1  16
BRANCH   7  26
HETATM   26  O1  UNL     1      28.700   2.020  54.222  1.00  0.00    -0.355 OA
HETATM   27  C13 UNL     1      29.950   2.159  54.895  1.00  0.00     0.210 C 
ENDBRANCH   7  26
TORSDOF 7
ENDMDL
MODEL 3
REMARK VINA RESULT:      -7.5      2.959      5.927
REMARK  7 active torsions:
REMARK  status: ('A' for Active; 'I' for Inactive)
REMARK    1  A    between atoms: C3_3  and  C4_4 
REMARK    2  A    between atoms: C4_4  and  C5_5 
REMARK    3  A    between atoms: C4_4  and  C20_25 
REMARK    4  A    between atoms: C5_5  and  C6_6 
REMARK    5  A    between atoms: C6_6  and  N1_7 
REMARK    6  A    between atoms: N1_7  and  C7_8 
REMARK    7  A    between atoms: C12_14  and  O1_15 
ROOT
HETATM    1  C7  UNL     1      22.799   4.335  52.017  1.00  0.00     0.156 C 
HETATM    2  C8  UNL     1      23.793   4.999  51.517  1.00  0.00     0.129 C 
HETATM    3  N2  UNL     1      24.487   4.468  50.616  1.00  0.00    -0.280 NA
HETATM    4  C9  UNL     1      24.714   3.070  50.590  1.00  0.00     0.178 C 
HETATM    5  C10 UNL     1      25.992   2.569  51.140  1.00  0.00     0.011 C 
HETATM    6  C11 UNL     1      25.974   1.678  52.151  1.00  0.00     0.020 C 
HETATM    7  C12 UNL     1      27.336   1.290  52.574  1.00  0.00     0.080 C 
HETATM    8  C14 UNL     1      27.713   0.057  52.960  1.00  0.00     0.037 C 
HETATM    9  C15 UNL     1      26.976  -1.180  53.073  1.00  0.00    -0.001 C 
HETATM   10  C16 UNL     1      25.663  -1.218  52.998  1.00  0.00    -0.021 C 
HETATM   11  C17 UNL     1      24.475  -0.355  52.822  1.00  0.00     0.087 C 
HETATM   12  C18 UNL     1      24.800   1.084  52.846  1.00  0.00     0.052 C 
HETATM   13  N3  UNL     1      24.111   1.983  53.477  1.00  0.00    -0.245 NA
HETATM   14  C19 UNL     1      24.578   3.351  53.402  1.00  0.00     0.235 C 
HETATM   15  N4  UNL     1      23.567   3.450  52.742  1.00  0.00    -0.222 NA
ENDROOT
BRANCH   1  16
HETATM   16  N1  UNL     1      21.407   4.365  51.969  1.00  0.00    -0.369 N 
HETATM   17  H9  UNL     1      21.315   5.313  52.443  1.00  0.00     0.161 HD
BRANCH  16  18
HETATM   18  C6  UNL     1      20.167   3.698  51.564  1.00  0.00     0.149 C 
BRANCH  18  19
HETATM   19  C5  UNL     1      20.190   2.280  51.850  1.00  0.00     0.000 C 
BRANCH  19  20
HETATM   20  C4  UNL     1      20.504   1.019  51.963  1.00  0.00    -0.051 C 
BRANCH  20  21
HETATM   21  C3  UNL     1      19.981  -0.066  52.770  1.00  0.00     0.003 C 
HETATM   22  C2  UNL     1      20.297  -0.871  53.735  1.00  0.00    -0.030 C 
HETATM   23  C1  UNL     1      21.452  -1.145  54.616  1.00  0.00     0.036 C 
ENDBRANCH  20  21
BRANCH  20  24
HETATM   24  C20 UNL     1      21.605   0.618  51.054  1.00  0.00     0.123 C 
HETATM   25 BR1  UNL     1      21.242   1.129  49.220  1.00  0.00    -0.091 Br
ENDBRANCH  20  24
ENDBRANCH  19  20
ENDBRANCH  18  19
ENDBRANCH  16  18
ENDBRANCH   1  16
BRANCH   7  26
HETATM   26  O1  UNL     1      28.242   2.370  52.531  1.00  0.00    -0.355 OA
HETATM   27  C13 UNL     1      29.009   2.502  53.726  1.00  0.00     0.210 C 
ENDBRANCH   7  26
TORSDOF 7
ENDMDL
MODEL 4
REMARK VINA RESULT:      -7.3      2.638      5.673
REMARK  7 active torsions:
REMARK  status: ('A' for Active; 'I' for Inactive)
REMARK    1  A    between atoms: C3_3  and  C4_4 
REMARK    2  A    between atoms: C4_4  and  C5_5 
REMARK    3  A    between atoms: C4_4  and  C20_25 
REMARK    4  A    between atoms: C5_5  and  C6_6 
REMARK    5  A    between atoms: C6_6  and  N1_7 
REMARK    6  A    between atoms: N1_7  and  C7_8 
REMARK    7  A    between atoms: C12_14  and  O1_15 
ROOT
HETATM    1  C7  UNL     1      23.732   3.462  50.575  1.00  0.00     0.156 C 
HETATM    2  C8  UNL     1      22.632   4.084  50.290  1.00  0.00     0.129 C 
HETATM    3  N2  UNL     1      21.826   4.348  51.215  1.00  0.00    -0.280 NA
HETATM    4  C9  UNL     1      21.677   3.487  52.330  1.00  0.00     0.178 C 
HETATM    5  C10 UNL     1      20.543   2.539  52.322  1.00  0.00     0.011 C 
HETATM    6  C11 UNL     1      20.783   1.217  52.423  1.00  0.00     0.020 C 
HETATM    7  C12 UNL     1      19.537   0.423  52.399  1.00  0.00     0.080 C 
HETATM    8  C14 UNL     1      19.302  -0.686  53.125  1.00  0.00     0.037 C 
HETATM    9  C15 UNL     1      20.117  -1.394  54.085  1.00  0.00    -0.001 C 
HETATM   10  C16 UNL     1      21.398  -1.135  54.237  1.00  0.00    -0.021 C 
HETATM   11  C17 UNL     1      22.487  -0.276  53.726  1.00  0.00     0.087 C 
HETATM   12  C18 UNL     1      22.090   0.517  52.546  1.00  0.00     0.052 C 
HETATM   13  N3  UNL     1      22.824   0.684  51.491  1.00  0.00    -0.245 NA
HETATM   14  C19 UNL     1      22.274   1.487  50.420  1.00  0.00     0.235 C 
HETATM   15  N4  UNL     1      23.151   2.233  50.798  1.00  0.00    -0.222 NA
ENDROOT
BRANCH   1  16
HETATM   16  N1  UNL     1      25.092   3.755  50.661  1.00  0.00    -0.369 N 
HETATM   17  H9  UNL     1      24.954   4.742  51.033  1.00  0.00     0.161 HD
BRANCH  16  18
HETATM   18  C6  UNL     1      26.471   3.297  50.477  1.00  0.00     0.149 C 
BRANCH  18  19
HETATM   19  C5  UNL     1      26.894   2.395  51.525  1.00  0.00     0.000 C 
BRANCH  19  20
HETATM   20  C4  UNL     1      27.174   1.826  52.665  1.00  0.00    -0.051 C 
BRANCH  20  21
HETATM   21  C3  UNL     1      28.359   1.804  53.500  1.00  0.00     0.003 C 
HETATM   22  C2  UNL     1      29.340   1.042  53.867  1.00  0.00    -0.030 C 
HETATM   23  C1  UNL     1      29.833  -0.329  53.617  1.00  0.00     0.036 C 
ENDBRANCH  20  21
BRANCH  20  24
HETATM   24  C20 UNL     1      26.027   1.070  53.226  1.00  0.00     0.123 C 
HETATM   25 BR1  UNL     1      26.155  -0.823  52.832  1.00  0.00    -0.091 Br
ENDBRANCH  20  24
ENDBRANCH  19  20
ENDBRANCH  18  19
ENDBRANCH  16  18
ENDBRANCH   1  16
BRANCH   7  26
HETATM   26  O1  UNL     1      18.577   0.953  51.512  1.00  0.00    -0.355 OA
HETATM   27  C13 UNL     1      17.776  -0.051  50.893  1.00  0.00     0.210 C 
ENDBRANCH   7  26
TORSDOF 7
ENDMDL
MODEL 5
REMARK VINA RESULT:      -7.2      3.464      7.814
REMARK  7 active torsions:
REMARK  status: ('A' for Active; 'I' for Inactive)
REMARK    1  A    between atoms: C3_3  and  C4_4 
REMARK    2  A    between atoms: C4_4  and  C5_5 
REMARK    3  A    between atoms: C4_4  and  C20_25 
REMARK    4  A    between atoms: C5_5  and  C6_6 
REMARK    5  A    between atoms: C6_6  and  N1_7 
REMARK    6  A    between atoms: N1_7  and  C7_8 
REMARK    7  A    between atoms: C12_14  and  O1_15 
ROOT
HETATM    1  C7  UNL     1      26.772   2.619  51.823  1.00  0.00     0.156 C 
HETATM    2  C8  UNL     1      27.653   1.873  52.412  1.00  0.00     0.129 C 
HETATM    3  N2  UNL     1      27.597   0.629  52.258  1.00  0.00    -0.280 NA
HETATM    4  C9  UNL     1      26.358  -0.038  52.096  1.00  0.00     0.178 C 
HETATM    5  C10 UNL     1      25.764  -0.687  53.283  1.00  0.00     0.011 C 
HETATM    6  C11 UNL     1      24.533  -0.321  53.692  1.00  0.00     0.020 C 
HETATM    7  C12 UNL     1      24.100  -1.070  54.890  1.00  0.00     0.080 C 
HETATM    8  C14 UNL     1      22.848  -1.501  55.132  1.00  0.00     0.037 C 
HETATM    9  C15 UNL     1      21.629  -1.387  54.366  1.00  0.00    -0.001 C 
HETATM   10  C16 UNL     1      21.534  -0.591  53.322  1.00  0.00    -0.021 C 
HETATM   11  C17 UNL     1      22.306   0.378  52.516  1.00  0.00     0.087 C 
HETATM   12  C18 UNL     1      23.622   0.697  53.102  1.00  0.00     0.052 C 
HETATM   13  N3  UNL     1      24.124   1.890  53.178  1.00  0.00    -0.245 NA
HETATM   14  C19 UNL     1      25.426   2.024  53.794  1.00  0.00     0.235 C 
HETATM   15  N4  UNL     1      25.721   2.282  52.647  1.00  0.00    -0.222 NA
ENDROOT
BRANCH   1  16
HETATM   16  N1  UNL     1      26.723   3.508  50.751  1.00  0.00    -0.369 N 
HETATM   17  H9  UNL     1      26.898   4.378  51.340  1.00  0.00     0.161 HD
BRANCH  16  18
HETATM   18  C6  UNL     1      26.556   3.702  49.309  1.00  0.00     0.149 C 
BRANCH  18  19
HETATM   19  C5  UNL     1      26.843   5.059  48.901  1.00  0.00     0.000 C 
BRANCH  19  20
HETATM   20  C4  UNL     1      27.411   6.194  48.597  1.00  0.00    -0.051 C 
BRANCH  20  21
HETATM   21  C3  UNL     1      28.677   6.536  47.978  1.00  0.00     0.003 C 
HETATM   22  C2  UNL     1      29.191   7.216  47.002  1.00  0.00    -0.030 C 
HETATM   23  C1  UNL     1      28.735   8.085  45.896  1.00  0.00     0.036 C 
ENDBRANCH  20  21
BRANCH  20  24
HETATM   24  C20 UNL     1      26.567   7.366  48.932  1.00  0.00     0.123 C 
HETATM   25 BR1  UNL     1      25.256   7.724  47.550  1.00  0.00    -0.091 Br
ENDBRANCH  20  24
ENDBRANCH  19  20
ENDBRANCH  18  19
ENDBRANCH  16  18
ENDBRANCH   1  16
BRANCH   7  26
HETATM   26  O1  UNL     1      25.159  -1.305  55.791  1.00  0.00    -0.355 OA
HETATM   27  C13 UNL     1      24.853  -0.911  57.127  1.00  0.00     0.210 C 
ENDBRANCH   7  26
TORSDOF 7
ENDMDL
MODEL 6
REMARK VINA RESULT:      -7.1      2.152      2.986
REMARK  7 active torsions:
REMARK  status: ('A' for Active; 'I' for Inactive)
REMARK    1  A    between atoms: C3_3  and  C4_4 
REMARK    2  A    between atoms: C4_4  and  C5_5 
REMARK    3  A    between atoms: C4_4  and  C20_25 
REMARK    4  A    between atoms: C5_5  and  C6_6 
REMARK    5  A    between atoms: C6_6  and  N1_7 
REMARK    6  A    between atoms: N1_7  and  C7_8 
REMARK    7  A    between atoms: C12_14  and  O1_15 
ROOT
HETATM    1  C7  UNL     1      21.208   4.018  50.938  1.00  0.00     0.156 C 
HETATM    2  C8  UNL     1      20.733   4.990  50.226  1.00  0.00     0.129 C 
HETATM    3  N2  UNL     1      21.021   5.046  49.006  1.00  0.00    -0.280 NA
HETATM    4  C9  UNL     1      22.274   4.595  48.523  1.00  0.00     0.178 C 
HETATM    5  C10 UNL     1      23.323   5.608  48.279  1.00  0.00     0.011 C 
HETATM    6  C11 UNL     1      24.504   5.507  48.921  1.00  0.00     0.020 C 
HETATM    7  C12 UNL     1      25.429   6.601  48.557  1.00  0.00     0.080 C 
HETATM    8  C14 UNL     1      26.760   6.479  48.399  1.00  0.00     0.037 C 
HETATM    9  C15 UNL     1      27.639   5.339  48.518  1.00  0.00    -0.001 C 
HETATM   10  C16 UNL     1      27.239   4.203  49.047  1.00  0.00    -0.021 C 
HETATM   11  C17 UNL     1      26.066   3.547  49.661  1.00  0.00     0.087 C 
HETATM   12  C18 UNL     1      24.945   4.477  49.899  1.00  0.00     0.052 C 
HETATM   13  N3  UNL     1      24.231   4.507  50.981  1.00  0.00    -0.245 NA
HETATM   14  C19 UNL     1      23.173   5.492  51.051  1.00  0.00     0.235 C 
HETATM   15  N4  UNL     1      22.503   4.485  50.978  1.00  0.00    -0.222 NA
ENDROOT
BRANCH   1  16
HETATM   16  N1  UNL     1      20.736   2.854  51.543  1.00  0.00    -0.369 N 
HETATM   17  H9  UNL     1      20.149   2.545  50.711  1.00  0.00     0.161 HD
BRANCH  16  18
HETATM   18  C6  UNL     1      20.734   1.985  52.722  1.00  0.00     0.149 C 
BRANCH  18  19
HETATM   19  C5  UNL     1      21.914   1.152  52.791  1.00  0.00     0.000 C 
BRANCH  19  20
HETATM   20  C4  UNL     1      23.126   0.670  52.738  1.00  0.00    -0.051 C 
BRANCH  20  21
HETATM   21  C3  UNL     1      24.387   1.203  52.260  1.00  0.00     0.003 C 
HETATM   22  C2  UNL     1      25.630   0.888  52.078  1.00  0.00    -0.030 C 
HETATM   23  C1  UNL     1      26.518  -0.278  52.270  1.00  0.00     0.036 C 
ENDBRANCH  20  21
BRANCH  20  24
HETATM   24  C20 UNL     1      23.227  -0.693  53.314  1.00  0.00     0.123 C 
HETATM   25 BR1  UNL     1      21.980  -0.947  54.776  1.00  0.00    -0.091 Br
ENDBRANCH  20  24
ENDBRANCH  19  20
ENDBRANCH  18  19
ENDBRANCH  16  18
ENDBRANCH   1  16
BRANCH   7  26
HETATM   26  O1  UNL     1      24.764   7.832  48.380  1.00  0.00    -0.355 OA
HETATM   27  C13 UNL     1      24.991   8.747  49.450  1.00  0.00     0.210 C 
ENDBRANCH   7  26
TORSDOF 7
ENDMDL
MODEL 7
REMARK VINA RESULT:      -7.0      3.280      7.493
REMARK  7 active torsions:
REMARK  status: ('A' for Active; 'I' for Inactive)
REMARK    1  A    between atoms: C3_3  and  C4_4 
REMARK    2  A    between atoms: C4_4  and  C5_5 
REMARK    3  A    between atoms: C4_4  and  C20_25 
REMARK    4  A    between atoms: C5_5  and  C6_6 
REMARK    5  A    between atoms: C6_6  and  N1_7 
REMARK    6  A    between atoms: N1_7  and  C7_8 
REMARK    7  A    between atoms: C12_14  and  O1_15 
ROOT
HETATM    1  C7  UNL     1      24.676   4.120  51.045  1.00  0.00     0.156 C 
HETATM    2  C8  UNL     1      23.771   3.200  51.162  1.00  0.00     0.129 C 
HETATM    3  N2  UNL     1      23.568   2.687  52.289  1.00  0.00    -0.280 NA
HETATM    4  C9  UNL     1      24.620   2.519  53.222  1.00  0.00     0.178 C 
HETATM    5  C10 UNL     1      25.255   1.187  53.312  1.00  0.00     0.011 C 
HETATM    6  C11 UNL     1      26.580   1.068  53.098  1.00  0.00     0.020 C 
HETATM    7  C12 UNL     1      27.041  -0.329  53.229  1.00  0.00     0.080 C 
HETATM    8  C14 UNL     1      28.212  -0.719  53.767  1.00  0.00     0.037 C 
HETATM    9  C15 UNL     1      29.300   0.034  54.345  1.00  0.00    -0.001 C 
HETATM   10  C16 UNL     1      29.384   1.342  54.225  1.00  0.00    -0.021 C 
HETATM   11  C17 UNL     1      28.694   2.509  53.635  1.00  0.00     0.087 C 
HETATM   12  C18 UNL     1      27.566   2.131  52.762  1.00  0.00     0.052 C 
HETATM   13  N3  UNL     1      27.315   2.671  51.610  1.00  0.00    -0.245 NA
HETATM   14  C19 UNL     1      26.169   2.173  50.880  1.00  0.00     0.235 C 
HETATM   15  N4  UNL     1      25.758   3.276  51.166  1.00  0.00    -0.222 NA
ENDROOT
BRANCH   1  16
HETATM   16  N1  UNL     1      24.729   5.499  50.850  1.00  0.00    -0.369 N 
HETATM   17  H9  UNL     1      25.771   5.526  50.637  1.00  0.00     0.161 HD
BRANCH  16  18
HETATM   18  C6  UNL     1      24.007   6.773  50.815  1.00  0.00     0.149 C 
BRANCH  18  19
HETATM   19  C5  UNL     1      24.721   7.787  50.071  1.00  0.00     0.000 C 
BRANCH  19  20
HETATM   20  C4  UNL     1      25.538   8.726  49.678  1.00  0.00    -0.051 C 
BRANCH  20  21
HETATM   21  C3  UNL     1      26.808   9.211  50.180  1.00  0.00     0.003 C 
HETATM   22  C2  UNL     1      28.065   9.298  49.877  1.00  0.00    -0.030 C 
HETATM   23  C1  UNL     1      28.966   8.924  48.767  1.00  0.00     0.036 C 
ENDBRANCH  20  21
BRANCH  20  24
HETATM   24  C20 UNL     1      25.074   9.411  48.447  1.00  0.00     0.123 C 
HETATM   25 BR1  UNL     1      25.497   8.391  46.855  1.00  0.00    -0.091 Br
ENDBRANCH  20  24
ENDBRANCH  19  20
ENDBRANCH  18  19
ENDBRANCH  16  18
ENDBRANCH   1  16
BRANCH   7  26
HETATM   26  O1  UNL     1      26.106  -1.255  52.722  1.00  0.00    -0.355 OA
HETATM   27  C13 UNL     1      26.718  -2.405  52.142  1.00  0.00     0.210 C 
ENDBRANCH   7  26
TORSDOF 7
ENDMDL
MODEL 8
REMARK VINA RESULT:      -6.9      2.992      7.057
REMARK  7 active torsions:
REMARK  status: ('A' for Active; 'I' for Inactive)
REMARK    1  A    between atoms: C3_3  and  C4_4 
REMARK    2  A    between atoms: C4_4  and  C5_5 
REMARK    3  A    between atoms: C4_4  and  C20_25 
REMARK    4  A    between atoms: C5_5  and  C6_6 
REMARK    5  A    between atoms: C6_6  and  N1_7 
REMARK    6  A    between atoms: N1_7  and  C7_8 
REMARK    7  A    between atoms: C12_14  and  O1_15 
ROOT
HETATM    1  C7  UNL     1      24.900   5.495  50.559  1.00  0.00     0.156 C 
HETATM    2  C8  UNL     1      23.628   5.333  50.742  1.00  0.00     0.129 C 
HETATM    3  N2  UNL     1      23.210   5.059  51.893  1.00  0.00    -0.280 NA
HETATM    4  C9  UNL     1      23.981   4.280  52.790  1.00  0.00     0.178 C 
HETATM    5  C10 UNL     1      23.662   2.840  52.903  1.00  0.00     0.011 C 
HETATM    6  C11 UNL     1      24.617   1.927  52.642  1.00  0.00     0.020 C 
HETATM    7  C12 UNL     1      24.123   0.544  52.804  1.00  0.00     0.080 C 
HETATM    8  C14 UNL     1      24.829  -0.485  53.309  1.00  0.00     0.037 C 
HETATM    9  C15 UNL     1      26.178  -0.564  53.819  1.00  0.00    -0.001 C 
HETATM   10  C16 UNL     1      27.045   0.412  53.650  1.00  0.00    -0.021 C 
HETATM   11  C17 UNL     1      27.194   1.753  53.047  1.00  0.00     0.087 C 
HETATM   12  C18 UNL     1      26.029   2.151  52.232  1.00  0.00     0.052 C 
HETATM   13  N3  UNL     1      26.106   2.727  51.072  1.00  0.00    -0.245 NA
HETATM   14  C19 UNL     1      24.861   3.041  50.404  1.00  0.00     0.235 C 
HETATM   15  N4  UNL     1      25.234   4.163  50.667  1.00  0.00    -0.222 NA
ENDROOT
BRANCH   1  16
HETATM   16  N1  UNL     1      25.783   6.545  50.313  1.00  0.00    -0.369 N 
HETATM   17  H9  UNL     1      26.577   5.925  49.971  1.00  0.00     0.161 HD
BRANCH  16  18
HETATM   18  C6  UNL     1      26.022   7.990  50.327  1.00  0.00     0.149 C 
BRANCH  18  19
HETATM   19  C5  UNL     1      27.168   8.363  49.526  1.00  0.00     0.000 C 
BRANCH  19  20
HETATM   20  C4  UNL     1      28.293   8.391  48.867  1.00  0.00    -0.051 C 
BRANCH  20  21
HETATM   21  C3  UNL     1      29.533   9.121  49.048  1.00  0.00     0.003 C 
HETATM   22  C2  UNL     1      30.792   8.955  49.302  1.00  0.00    -0.030 C 
HETATM   23  C1  UNL     1      31.733   7.846  49.565  1.00  0.00     0.036 C 
ENDBRANCH  20  21
BRANCH  20  24
HETATM   24  C20 UNL     1      28.304   7.461  47.712  1.00  0.00     0.123 C 
HETATM   25 BR1  UNL     1      28.810   5.667  48.242  1.00  0.00    -0.091 Br
ENDBRANCH  20  24
ENDBRANCH  19  20
ENDBRANCH  18  19
ENDBRANCH  16  18
ENDBRANCH   1  16
BRANCH   7  26
HETATM   26  O1  UNL     1      22.791   0.393  52.366  1.00  0.00    -0.355 OA
HETATM   27  C13 UNL     1      22.094  -0.648  53.047  1.00  0.00     0.210 C 
ENDBRANCH   7  26
TORSDOF 7
ENDMDL
MODEL 9
REMARK VINA RESULT:      -6.8      2.939      6.420
REMARK  7 active torsions:
REMARK  status: ('A' for Active; 'I' for Inactive)
REMARK    1  A    between atoms: C3_3  and  C4_4 
REMARK    2  A    between atoms: C4_4  and  C5_5 
REMARK    3  A    between atoms: C4_4  and  C20_25 
REMARK    4  A    between atoms: C5_5  and  C6_6 
REMARK    5  A    between atoms: C6_6  and  N1_7 
REMARK    6  A    between atoms: N1_7  and  C7_8 
REMARK    7  A    between atoms: C12_14  and  O1_15 
ROOT
HETATM    1  C7  UNL     1      22.708   5.413  49.774  1.00  0.00     0.156 C 
HETATM    2  C8  UNL     1      21.781   5.268  50.667  1.00  0.00     0.129 C 
HETATM    3  N2  UNL     1      22.106   5.228  51.879  1.00  0.00    -0.280 NA
HETATM    4  C9  UNL     1      23.337   4.665  52.293  1.00  0.00     0.178 C 
HETATM    5  C10 UNL     1      23.325   3.274  52.794  1.00  0.00     0.011 C 
HETATM    6  C11 UNL     1      24.090   2.344  52.188  1.00  0.00     0.020 C 
HETATM    7  C12 UNL     1      23.953   1.015  52.818  1.00  0.00     0.080 C 
HETATM    8  C14 UNL     1      24.949   0.126  52.991  1.00  0.00     0.037 C 
HETATM    9  C15 UNL     1      26.352   0.179  52.654  1.00  0.00    -0.001 C 
HETATM   10  C16 UNL     1      26.846   1.115  51.872  1.00  0.00    -0.021 C 
HETATM   11  C17 UNL     1      26.460   2.306  51.086  1.00  0.00     0.087 C 
HETATM   12  C18 UNL     1      25.000   2.506  51.021  1.00  0.00     0.052 C 
HETATM   13  N3  UNL     1      24.349   2.833  49.948  1.00  0.00    -0.245 NA
HETATM   14  C19 UNL     1      22.914   2.979  50.061  1.00  0.00     0.235 C 
HETATM   15  N4  UNL     1      23.219   4.139  49.885  1.00  0.00    -0.222 NA
ENDROOT
BRANCH   1  16
HETATM   16  N1  UNL     1      23.163   6.407  48.910  1.00  0.00    -0.369 N 
HETATM   17  H9  UNL     1      22.367   7.083  49.113  1.00  0.00     0.161 HD
BRANCH  16  18
HETATM   18  C6  UNL     1      24.184   6.846  47.955  1.00  0.00     0.149 C 
BRANCH  18  19
HETATM   19  C5  UNL     1      25.526   6.624  48.447  1.00  0.00     0.000 C 
BRANCH  19  20
HETATM   20  C4  UNL     1      26.813   6.644  48.661  1.00  0.00    -0.051 C 
BRANCH  20  21
HETATM   21  C3  UNL     1      27.858   5.648  48.522  1.00  0.00     0.003 C 
HETATM   22  C2  UNL     1      29.079   5.493  48.117  1.00  0.00    -0.030 C 
HETATM   23  C1  UNL     1      30.164   6.308  47.531  1.00  0.00     0.036 C 
ENDBRANCH  20  21
BRANCH  20  24
HETATM   24  C20 UNL     1      27.299   7.970  49.112  1.00  0.00     0.123 C 
HETATM   25 BR1  UNL     1      27.543   9.188  47.624  1.00  0.00    -0.091 Br
ENDBRANCH  20  24
ENDBRANCH  19  20
ENDBRANCH  18  19
ENDBRANCH  16  18
ENDBRANCH   1  16
BRANCH   7  26
HETATM   26  O1  UNL     1      22.634   0.752  53.240  1.00  0.00    -0.355 OA
HETATM   27  C13 UNL     1      22.353  -0.641  53.359  1.00  0.00     0.210 C 
ENDBRANCH   7  26
TORSDOF 7
ENDMDL
