MODEL 1
REMARK VINA RESULT:      -8.3      0.000      0.000
REMARK  5 active torsions:
REMARK  status: ('A' for Active; 'I' for Inactive)
REMARK    1  A    between atoms: C2_2  and  C3_3 
REMARK       I    between atoms: C3_3  and  N1_5 
REMARK    2  A    between atoms: C10_13  and  N2_14 
REMARK    3  A    between atoms: N2_14  and  C11_15 
REMARK    4  A    between atoms: C11_15  and  C12_16 
REMARK    5  A    between atoms: C11_15  and  C14_18 
ROOT
HETATM    1  C3  UNL     1      22.718   5.234  50.078  1.00  0.00     0.243 C 
HETATM    2  O1  UNL     1      23.805   5.205  50.727  1.00  0.00    -0.268 OA
HETATM    3  N1  UNL     1      22.071   4.017  49.769  1.00  0.00    -0.335 N 
HETATM    4  C4  UNL     1      20.819   4.049  49.024  1.00  0.00     0.206 C 
HETATM    5  S1  UNL     1      20.176   2.318  49.087  1.00  0.00    -0.102 SA
HETATM    6  C5  UNL     1      20.586   1.813  50.788  1.00  0.00     0.049 C 
HETATM    7  C6  UNL     1      21.823   2.077  51.211  1.00  0.00    -0.022 C 
HETATM    8  C7  UNL     1      22.638   2.753  50.164  1.00  0.00     0.164 C 
HETATM    9  C8  UNL     1      21.982   1.616  52.576  1.00  0.00     0.131 A 
HETATM   10  C9  UNL     1      23.402   1.436  53.030  1.00  0.00     0.065 A 
HETATM   11  C10 UNL     1      24.325   2.391  53.048  1.00  0.00     0.112 C 
HETATM   12  N3  UNL     1      24.022   0.240  53.544  1.00  0.00    -0.244 NA
HETATM   13  C20 UNL     1      23.262  -0.796  53.653  1.00  0.00     0.234 A 
HETATM   14  N4  UNL     1      21.880  -0.780  53.282  1.00  0.00    -0.238 NA
HETATM   15  C21 UNL     1      21.338   0.314  52.806  1.00  0.00     0.091 A 
HETATM   16  S2  UNL     1      19.782   0.994  52.193  1.00  0.00    -0.066 SA
ENDROOT
BRANCH  11  17
HETATM   17  N2  UNL     1      25.711   2.389  53.445  1.00  0.00    -0.389 N 
HETATM   18  H10 UNL     1      25.994   2.537  54.437  1.00  0.00     0.159 HD
BRANCH  17  19
HETATM   19  C11 UNL     1      26.772   2.181  52.489  1.00  0.00     0.114 C 
BRANCH  19  20
HETATM   20  C12 UNL     1      26.239   2.043  51.070  1.00  0.00     0.025 C 
HETATM   21  C13 UNL     1      26.625   3.278  50.269  1.00  0.00     0.007 C 
ENDBRANCH  19  20
BRANCH  19  22
HETATM   22  C14 UNL     1      27.636   1.030  52.849  1.00  0.00    -0.036 A 
HETATM   23  C15 UNL     1      28.899   1.240  53.394  1.00  0.00     0.009 A 
HETATM   24  C16 UNL     1      29.728   0.173  53.741  1.00  0.00     0.001 A 
HETATM   25  C17 UNL     1      29.288  -1.128  53.540  1.00  0.00     0.000 A 
HETATM   26  C18 UNL     1      28.035  -1.372  52.999  1.00  0.00     0.001 A 
HETATM   27  C19 UNL     1      27.252  -0.284  52.672  1.00  0.00     0.009 A 
ENDBRANCH  19  22
ENDBRANCH  17  19
ENDBRANCH  11  17
BRANCH   1  28
HETATM   28  C2  UNL     1      22.267   6.555  49.726  1.00  0.00     0.064 C 
HETATM   29  C1  UNL     1      21.680   7.389  50.556  1.00  0.00     0.017 C 
ENDBRANCH   1  28
TORSDOF 5
ENDMDL
MODEL 2
REMARK VINA RESULT:      -8.3      1.798      2.669
REMARK  5 active torsions:
REMARK  status: ('A' for Active; 'I' for Inactive)
REMARK    1  A    between atoms: C2_2  and  C3_3 
REMARK       I    between atoms: C3_3  and  N1_5 
REMARK    2  A    between atoms: C10_13  and  N2_14 
REMARK    3  A    between atoms: N2_14  and  C11_15 
REMARK    4  A    between atoms: C11_15  and  C12_16 
REMARK    5  A    between atoms: C11_15  and  C14_18 
ROOT
HETATM    1  C3  UNL     1      25.607   4.256  49.592  1.00  0.00     0.243 C 
HETATM    2  O1  UNL     1      26.275   3.493  50.351  1.00  0.00    -0.268 OA
HETATM    3  N1  UNL     1      24.265   3.927  49.297  1.00  0.00    -0.335 N 
HETATM    4  C4  UNL     1      23.494   4.805  48.427  1.00  0.00     0.206 C 
HETATM    5  S1  UNL     1      21.756   4.189  48.536  1.00  0.00    -0.102 SA
HETATM    6  C5  UNL     1      21.607   3.761  50.300  1.00  0.00     0.049 C 
HETATM    7  C6  UNL     1      22.598   3.046  50.831  1.00  0.00    -0.022 C 
HETATM    8  C7  UNL     1      23.658   2.735  49.832  1.00  0.00     0.164 C 
HETATM    9  C8  UNL     1      22.326   2.795  52.232  1.00  0.00     0.131 A 
HETATM   10  C9  UNL     1      23.096   1.660  52.842  1.00  0.00     0.065 A 
HETATM   11  C10 UNL     1      24.421   1.576  52.892  1.00  0.00     0.112 C 
HETATM   12  N3  UNL     1      22.574   0.486  53.495  1.00  0.00    -0.244 NA
HETATM   13  C20 UNL     1      21.290   0.409  53.592  1.00  0.00     0.234 A 
HETATM   14  N4  UNL     1      20.417   1.420  53.080  1.00  0.00    -0.238 NA
HETATM   15  C21 UNL     1      20.912   2.476  52.479  1.00  0.00     0.091 A 
HETATM   16  S2  UNL     1      20.438   4.015  51.665  1.00  0.00    -0.066 SA
ENDROOT
BRANCH  11  17
HETATM   17  N2  UNL     1      25.307   0.574  53.431  1.00  0.00    -0.389 N 
HETATM   18  H10 UNL     1      24.981  -0.397  53.622  1.00  0.00     0.159 HD
BRANCH  17  19
HETATM   19  C11 UNL     1      26.689   0.866  53.729  1.00  0.00     0.114 C 
BRANCH  19  20
HETATM   20  C12 UNL     1      27.198   2.065  52.941  1.00  0.00     0.025 C 
HETATM   21  C13 UNL     1      28.472   2.586  53.591  1.00  0.00     0.007 C 
ENDBRANCH  19  20
BRANCH  19  22
HETATM   22  C14 UNL     1      27.568  -0.313  53.534  1.00  0.00    -0.036 A 
HETATM   23  C15 UNL     1      27.085  -1.455  52.902  1.00  0.00     0.009 A 
HETATM   24  C16 UNL     1      27.893  -2.575  52.707  1.00  0.00     0.001 A 
HETATM   25  C17 UNL     1      29.209  -2.555  53.150  1.00  0.00     0.000 A 
HETATM   26  C18 UNL     1      29.721  -1.432  53.783  1.00  0.00     0.001 A 
HETATM   27  C19 UNL     1      28.883  -0.350  53.952  1.00  0.00     0.009 A 
ENDBRANCH  19  22
ENDBRANCH  17  19
ENDBRANCH  11  17
BRANCH   1  28
HETATM   28  C2  UNL     1      26.332   5.402  49.109  1.00  0.00     0.064 C 
HETATM   29  C1  UNL     1      27.505   5.348  48.517  1.00  0.00     0.017 C 
ENDBRANCH   1  28
TORSDOF 5
ENDMDL
MODEL 3
REMARK VINA RESULT:      -8.0      2.485      4.561
REMARK  5 active torsions:
REMARK  status: ('A' for Active; 'I' for Inactive)
REMARK    1  A    between atoms: C2_2  and  C3_3 
REMARK       I    between atoms: C3_3  and  N1_5 
REMARK    2  A    between atoms: C10_13  and  N2_14 
REMARK    3  A    between atoms: N2_14  and  C11_15 
REMARK    4  A    between atoms: C11_15  and  C12_16 
REMARK    5  A    between atoms: C11_15  and  C14_18 
ROOT
HETATM    1  C3  UNL     1      18.923   0.301  51.902  1.00  0.00     0.243 C 
HETATM    2  O1  UNL     1      19.779  -0.034  52.772  1.00  0.00    -0.268 OA
HETATM    3  N1  UNL     1      19.130   1.482  51.154  1.00  0.00    -0.335 N 
HETATM    4  C4  UNL     1      18.146   1.868  50.152  1.00  0.00     0.206 C 
HETATM    5  S1  UNL     1      18.922   3.266  49.227  1.00  0.00    -0.102 SA
HETATM    6  C5  UNL     1      20.660   2.736  49.109  1.00  0.00     0.049 C 
HETATM    7  C6  UNL     1      21.228   2.285  50.228  1.00  0.00    -0.022 C 
HETATM    8  C7  UNL     1      20.286   2.311  51.381  1.00  0.00     0.164 C 
HETATM    9  C8  UNL     1      22.601   1.906  49.962  1.00  0.00     0.131 A 
HETATM   10  C9  UNL     1      23.485   1.805  51.171  1.00  0.00     0.065 A 
HETATM   11  C10 UNL     1      23.269   1.006  52.210  1.00  0.00     0.112 C 
HETATM   12  N3  UNL     1      24.714   2.512  51.430  1.00  0.00    -0.244 NA
HETATM   13  C20 UNL     1      25.122   3.309  50.502  1.00  0.00     0.234 A 
HETATM   14  N4  UNL     1      24.403   3.499  49.279  1.00  0.00    -0.238 NA
HETATM   15  C21 UNL     1      23.280   2.856  49.068  1.00  0.00     0.091 A 
HETATM   16  S2  UNL     1      21.965   2.630  47.853  1.00  0.00    -0.066 SA
ENDROOT
BRANCH  11  17
HETATM   17  N2  UNL     1      24.002   0.789  53.432  1.00  0.00    -0.389 N 
HETATM   18  H10 UNL     1      24.181   1.564  54.106  1.00  0.00     0.159 HD
BRANCH  17  19
HETATM   19  C11 UNL     1      24.523  -0.511  53.782  1.00  0.00     0.114 C 
BRANCH  19  20
HETATM   20  C12 UNL     1      23.943  -1.021  55.093  1.00  0.00     0.025 C 
HETATM   21  C13 UNL     1      22.444  -1.227  54.931  1.00  0.00     0.007 C 
ENDBRANCH  19  20
BRANCH  19  22
HETATM   22  C14 UNL     1      26.006  -0.534  53.810  1.00  0.00    -0.036 A 
HETATM   23  C15 UNL     1      26.705   0.220  54.750  1.00  0.00     0.009 A 
HETATM   24  C16 UNL     1      28.098   0.214  54.796  1.00  0.00     0.001 A 
HETATM   25  C17 UNL     1      28.810  -0.559  53.888  1.00  0.00     0.000 A 
HETATM   26  C18 UNL     1      28.144  -1.321  52.940  1.00  0.00     0.001 A 
HETATM   27  C19 UNL     1      26.766  -1.282  52.934  1.00  0.00     0.009 A 
ENDBRANCH  19  22
ENDBRANCH  17  19
ENDBRANCH  11  17
BRANCH   1  28
HETATM   28  C2  UNL     1      17.806  -0.599  51.786  1.00  0.00     0.064 C 
HETATM   29  C1  UNL     1      17.080  -1.023  52.797  1.00  0.00     0.017 C 
ENDBRANCH   1  28
TORSDOF 5
ENDMDL
MODEL 4
REMARK VINA RESULT:      -8.0      2.152      5.804
REMARK  5 active torsions:
REMARK  status: ('A' for Active; 'I' for Inactive)
REMARK    1  A    between atoms: C2_2  and  C3_3 
REMARK       I    between atoms: C3_3  and  N1_5 
REMARK    2  A    between atoms: C10_13  and  N2_14 
REMARK    3  A    between atoms: N2_14  and  C11_15 
REMARK    4  A    between atoms: C11_15  and  C12_16 
REMARK    5  A    between atoms: C11_15  and  C14_18 
ROOT
HETATM    1  C3  UNL     1      25.434   0.784  52.237  1.00  0.00     0.243 C 
HETATM    2  O1  UNL     1      25.705   1.846  51.604  1.00  0.00    -0.268 OA
HETATM    3  N1  UNL     1      24.210   0.694  52.937  1.00  0.00    -0.335 N 
HETATM    4  C4  UNL     1      23.898  -0.529  53.664  1.00  0.00     0.206 C 
HETATM    5  S1  UNL     1      22.132  -0.348  54.176  1.00  0.00    -0.102 SA
HETATM    6  C5  UNL     1      21.384   0.445  52.718  1.00  0.00     0.049 C 
HETATM    7  C6  UNL     1      22.035   1.487  52.201  1.00  0.00    -0.022 C 
HETATM    8  C7  UNL     1      23.283   1.795  52.954  1.00  0.00     0.164 C 
HETATM    9  C8  UNL     1      21.311   1.996  51.053  1.00  0.00     0.131 A 
HETATM   10  C9  UNL     1      21.661   3.398  50.644  1.00  0.00     0.065 A 
HETATM   11  C10 UNL     1      22.875   3.812  50.297  1.00  0.00     0.112 C 
HETATM   12  N3  UNL     1      20.779   4.531  50.525  1.00  0.00    -0.244 NA
HETATM   13  C20 UNL     1      19.532   4.314  50.775  1.00  0.00     0.234 A 
HETATM   14  N4  UNL     1      19.036   3.027  51.156  1.00  0.00    -0.238 NA
HETATM   15  C21 UNL     1      19.857   2.011  51.270  1.00  0.00     0.091 A 
HETATM   16  S2  UNL     1      19.914   0.252  51.672  1.00  0.00    -0.066 SA
ENDROOT
BRANCH  11  17
HETATM   17  N2  UNL     1      23.377   5.099  49.886  1.00  0.00    -0.389 N 
HETATM   18  H10 UNL     1      22.974   5.607  49.070  1.00  0.00     0.159 HD
BRANCH  17  19
HETATM   19  C11 UNL     1      24.460   5.748  50.586  1.00  0.00     0.114 C 
BRANCH  19  20
HETATM   20  C12 UNL     1      24.083   7.150  51.042  1.00  0.00     0.025 C 
HETATM   21  C13 UNL     1      22.776   7.557  50.378  1.00  0.00     0.007 C 
ENDBRANCH  19  20
BRANCH  19  22
HETATM   22  C14 UNL     1      25.713   5.765  49.791  1.00  0.00    -0.036 A 
HETATM   23  C15 UNL     1      26.251   6.971  49.351  1.00  0.00     0.009 A 
HETATM   24  C16 UNL     1      27.428   7.012  48.603  1.00  0.00     0.001 A 
HETATM   25  C17 UNL     1      28.080   5.828  48.288  1.00  0.00     0.000 A 
HETATM   26  C18 UNL     1      27.570   4.609  48.712  1.00  0.00     0.001 A 
HETATM   27  C19 UNL     1      26.404   4.621  49.448  1.00  0.00     0.009 A 
ENDBRANCH  19  22
ENDBRANCH  17  19
ENDBRANCH  11  17
BRANCH   1  28
HETATM   28  C2  UNL     1      26.450  -0.233  52.158  1.00  0.00     0.064 C 
HETATM   29  C1  UNL     1      27.569  -0.226  52.849  1.00  0.00     0.017 C 
ENDBRANCH   1  28
TORSDOF 5
ENDMDL
MODEL 5
REMARK VINA RESULT:      -7.8      2.694      6.160
REMARK  5 active torsions:
REMARK  status: ('A' for Active; 'I' for Inactive)
REMARK    1  A    between atoms: C2_2  and  C3_3 
REMARK       I    between atoms: C3_3  and  N1_5 
REMARK    2  A    between atoms: C10_13  and  N2_14 
REMARK    3  A    between atoms: N2_14  and  C11_15 
REMARK    4  A    between atoms: C11_15  and  C12_16 
REMARK    5  A    between atoms: C11_15  and  C14_18 
ROOT
HETATM    1  C3  UNL     1      20.825   4.994  50.421  1.00  0.00     0.243 C 
HETATM    2  O1  UNL     1      20.422   3.880  50.869  1.00  0.00    -0.268 OA
HETATM    3  N1  UNL     1      22.117   5.448  50.771  1.00  0.00    -0.335 N 
HETATM    4  C4  UNL     1      22.583   6.727  50.255  1.00  0.00     0.206 C 
HETATM    5  S1  UNL     1      24.375   6.803  50.697  1.00  0.00    -0.102 SA
HETATM    6  C5  UNL     1      24.917   5.087  50.412  1.00  0.00     0.049 C 
HETATM    7  C6  UNL     1      24.148   4.123  50.918  1.00  0.00    -0.022 C 
HETATM    8  C7  UNL     1      22.966   4.672  51.639  1.00  0.00     0.164 C 
HETATM    9  C8  UNL     1      24.717   2.828  50.603  1.00  0.00     0.131 A 
HETATM   10  C9  UNL     1      24.234   1.690  51.456  1.00  0.00     0.065 A 
HETATM   11  C10 UNL     1      22.966   1.312  51.579  1.00  0.00     0.112 C 
HETATM   12  N3  UNL     1      25.022   0.795  52.265  1.00  0.00    -0.244 NA
HETATM   13  C20 UNL     1      26.300   0.972  52.236  1.00  0.00     0.234 A 
HETATM   14  N4  UNL     1      26.917   2.000  51.455  1.00  0.00    -0.238 NA
HETATM   15  C21 UNL     1      26.181   2.812  50.734  1.00  0.00     0.091 A 
HETATM   16  S2  UNL     1      26.283   4.212  49.600  1.00  0.00    -0.066 SA
ENDROOT
BRANCH  11  17
HETATM   17  N2  UNL     1      22.341   0.262  52.343  1.00  0.00    -0.389 N 
HETATM   18  H10 UNL     1      22.667  -0.726  52.281  1.00  0.00     0.159 HD
BRANCH  17  19
HETATM   19  C11 UNL     1      21.233   0.527  53.230  1.00  0.00     0.114 C 
BRANCH  19  20
HETATM   20  C12 UNL     1      21.442  -0.097  54.602  1.00  0.00     0.025 C 
HETATM   21  C13 UNL     1      22.660  -1.007  54.557  1.00  0.00     0.007 C 
ENDBRANCH  19  20
BRANCH  19  22
HETATM   22  C14 UNL     1      19.934   0.111  52.647  1.00  0.00    -0.036 A 
HETATM   23  C15 UNL     1      19.097  -0.758  53.342  1.00  0.00     0.009 A 
HETATM   24  C16 UNL     1      17.870  -1.163  52.815  1.00  0.00     0.001 A 
HETATM   25  C17 UNL     1      17.471  -0.691  51.572  1.00  0.00     0.000 A 
HETATM   26  C18 UNL     1      18.282   0.176  50.855  1.00  0.00     0.001 A 
HETATM   27  C19 UNL     1      19.485   0.547  51.418  1.00  0.00     0.009 A 
ENDBRANCH  19  22
ENDBRANCH  17  19
ENDBRANCH  11  17
BRANCH   1  28
HETATM   28  C2  UNL     1      19.877   5.679  49.583  1.00  0.00     0.064 C 
HETATM   29  C1  UNL     1      18.600   5.376  49.497  1.00  0.00     0.017 C 
ENDBRANCH   1  28
TORSDOF 5
ENDMDL
MODEL 6
REMARK VINA RESULT:      -7.8      2.819      6.248
REMARK  5 active torsions:
REMARK  status: ('A' for Active; 'I' for Inactive)
REMARK    1  A    between atoms: C2_2  and  C3_3 
REMARK       I    between atoms: C3_3  and  N1_5 
REMARK    2  A    between atoms: C10_13  and  N2_14 
REMARK    3  A    between atoms: N2_14  and  C11_15 
REMARK    4  A    between atoms: C11_15  and  C12_16 
REMARK    5  A    between atoms: C11_15  and  C14_18 
ROOT
HETATM    1  C3  UNL     1      25.448   3.113  50.547  1.00  0.00     0.243 C 
HETATM    2  O1  UNL     1      24.243   3.376  50.258  1.00  0.00    -0.268 OA
HETATM    3  N1  UNL     1      25.757   2.652  51.846  1.00  0.00    -0.335 N 
HETATM    4  C4  UNL     1      27.142   2.347  52.179  1.00  0.00     0.206 C 
HETATM    5  S1  UNL     1      27.071   1.518  53.829  1.00  0.00    -0.102 SA
HETATM    6  C5  UNL     1      25.582   0.480  53.677  1.00  0.00     0.049 C 
HETATM    7  C6  UNL     1      24.491   1.063  53.180  1.00  0.00    -0.022 C 
HETATM    8  C7  UNL     1      24.728   2.495  52.842  1.00  0.00     0.164 C 
HETATM    9  C8  UNL     1      23.405   0.105  53.126  1.00  0.00     0.131 A 
HETATM   10  C9  UNL     1      22.030   0.699  53.017  1.00  0.00     0.065 A 
HETATM   11  C10 UNL     1      21.620   1.502  52.041  1.00  0.00     0.112 C 
HETATM   12  N3  UNL     1      20.911   0.507  53.904  1.00  0.00    -0.244 NA
HETATM   13  C20 UNL     1      21.100  -0.292  54.899  1.00  0.00     0.234 A 
HETATM   14  N4  UNL     1      22.348  -0.953  55.129  1.00  0.00    -0.238 NA
HETATM   15  C21 UNL     1      23.358  -0.756  54.317  1.00  0.00     0.091 A 
HETATM   16  S2  UNL     1      25.076  -1.227  54.025  1.00  0.00    -0.066 SA
ENDROOT
BRANCH  11  17
HETATM   17  N2  UNL     1      20.357   2.150  51.788  1.00  0.00    -0.389 N 
HETATM   18  H10 UNL     1      19.866   2.695  52.528  1.00  0.00     0.159 HD
BRANCH  17  19
HETATM   19  C11 UNL     1      19.713   2.075  50.499  1.00  0.00     0.114 C 
BRANCH  19  20
HETATM   20  C12 UNL     1      19.092   0.707  50.252  1.00  0.00     0.025 C 
HETATM   21  C13 UNL     1      18.214   0.335  51.438  1.00  0.00     0.007 C 
ENDBRANCH  19  20
BRANCH  19  22
HETATM   22  C14 UNL     1      20.625   2.454  49.391  1.00  0.00    -0.036 A 
HETATM   23  C15 UNL     1      21.364   1.481  48.723  1.00  0.00     0.009 A 
HETATM   24  C16 UNL     1      22.227   1.813  47.679  1.00  0.00     0.001 A 
HETATM   25  C17 UNL     1      22.356   3.141  47.294  1.00  0.00     0.000 A 
HETATM   26  C18 UNL     1      21.633   4.134  47.939  1.00  0.00     0.001 A 
HETATM   27  C19 UNL     1      20.793   3.755  48.965  1.00  0.00     0.009 A 
ENDBRANCH  19  22
ENDBRANCH  17  19
ENDBRANCH  11  17
BRANCH   1  28
HETATM   28  C2  UNL     1      26.381   3.330  49.473  1.00  0.00     0.064 C 
HETATM   29  C1  UNL     1      26.819   4.509  49.091  1.00  0.00     0.017 C 
ENDBRANCH   1  28
TORSDOF 5
ENDMDL
MODEL 7
REMARK VINA RESULT:      -7.7      2.670      4.588
REMARK  5 active torsions:
REMARK  status: ('A' for Active; 'I' for Inactive)
REMARK    1  A    between atoms: C2_2  and  C3_3 
REMARK       I    between atoms: C3_3  and  N1_5 
REMARK    2  A    between atoms: C10_13  and  N2_14 
REMARK    3  A    between atoms: N2_14  and  C11_15 
REMARK    4  A    between atoms: C11_15  and  C12_16 
REMARK    5  A    between atoms: C11_15  and  C14_18 
ROOT
HETATM    1  C3  UNL     1      19.251   3.290  50.933  1.00  0.00     0.243 C 
HETATM    2  O1  UNL     1      20.283   3.932  50.579  1.00  0.00    -0.268 OA
HETATM    3  N1  UNL     1      19.362   1.909  51.210  1.00  0.00    -0.335 N 
HETATM    4  C4  UNL     1      18.175   1.170  51.620  1.00  0.00     0.206 C 
HETATM    5  S1  UNL     1      18.798  -0.485  52.154  1.00  0.00    -0.102 SA
HETATM    6  C5  UNL     1      20.343  -0.058  53.018  1.00  0.00     0.049 C 
HETATM    7  C6  UNL     1      21.163   0.790  52.397  1.00  0.00    -0.022 C 
HETATM    8  C7  UNL     1      20.623   1.225  51.079  1.00  0.00     0.164 C 
HETATM    9  C8  UNL     1      22.337   1.023  53.215  1.00  0.00     0.131 A 
HETATM   10  C9  UNL     1      23.526   1.581  52.487  1.00  0.00     0.065 A 
HETATM   11  C10 UNL     1      23.539   2.725  51.811  1.00  0.00     0.112 C 
HETATM   12  N3  UNL     1      24.851   1.022  52.397  1.00  0.00    -0.244 NA
HETATM   13  C20 UNL     1      25.052  -0.078  53.040  1.00  0.00     0.234 A 
HETATM   14  N4  UNL     1      24.027  -0.725  53.799  1.00  0.00    -0.238 NA
HETATM   15  C21 UNL     1      22.824  -0.206  53.859  1.00  0.00     0.091 A 
HETATM   16  S2  UNL     1      21.186  -0.462  54.573  1.00  0.00    -0.066 SA
ENDROOT
BRANCH  11  17
HETATM   17  N2  UNL     1      24.576   3.396  51.067  1.00  0.00    -0.389 N 
HETATM   18  H10 UNL     1      25.569   3.380  51.379  1.00  0.00     0.159 HD
BRANCH  17  19
HETATM   19  C11 UNL     1      24.287   4.122  49.853  1.00  0.00     0.114 C 
BRANCH  19  20
HETATM   20  C12 UNL     1      23.625   3.237  48.806  1.00  0.00     0.025 C 
HETATM   21  C13 UNL     1      22.628   4.065  48.009  1.00  0.00     0.007 C 
ENDBRANCH  19  20
BRANCH  19  22
HETATM   22  C14 UNL     1      25.489   4.794  49.299  1.00  0.00    -0.036 A 
HETATM   23  C15 UNL     1      25.425   6.121  48.884  1.00  0.00     0.009 A 
HETATM   24  C16 UNL     1      26.541   6.773  48.361  1.00  0.00     0.001 A 
HETATM   25  C17 UNL     1      27.744   6.089  48.252  1.00  0.00     0.000 A 
HETATM   26  C18 UNL     1      27.841   4.766  48.657  1.00  0.00     0.001 A 
HETATM   27  C19 UNL     1      26.710   4.165  49.167  1.00  0.00     0.009 A 
ENDBRANCH  19  22
ENDBRANCH  17  19
ENDBRANCH  11  17
BRANCH   1  28
HETATM   28  C2  UNL     1      18.051   4.082  51.007  1.00  0.00     0.064 C 
HETATM   29  C1  UNL     1      17.271   4.354  49.984  1.00  0.00     0.017 C 
ENDBRANCH   1  28
TORSDOF 5
ENDMDL
MODEL 8
REMARK VINA RESULT:      -7.6      7.952     11.188
REMARK  5 active torsions:
REMARK  status: ('A' for Active; 'I' for Inactive)
REMARK    1  A    between atoms: C2_2  and  C3_3 
REMARK       I    between atoms: C3_3  and  N1_5 
REMARK    2  A    between atoms: C10_13  and  N2_14 
REMARK    3  A    between atoms: N2_14  and  C11_15 
REMARK    4  A    between atoms: C11_15  and  C12_16 
REMARK    5  A    between atoms: C11_15  and  C14_18 
ROOT
HETATM    1  C3  UNL     1      32.168   4.541  47.196  1.00  0.00     0.243 C 
HETATM    2  O1  UNL     1      31.065   4.562  47.818  1.00  0.00    -0.268 OA
HETATM    3  N1  UNL     1      32.503   5.627  46.356  1.00  0.00    -0.335 N 
HETATM    4  C4  UNL     1      33.773   5.605  45.643  1.00  0.00     0.206 C 
HETATM    5  S1  UNL     1      33.946   7.294  44.914  1.00  0.00    -0.102 SA
HETATM    6  C5  UNL     1      33.295   8.358  46.241  1.00  0.00     0.049 C 
HETATM    7  C6  UNL     1      32.140   7.989  46.795  1.00  0.00    -0.022 C 
HETATM    8  C7  UNL     1      31.604   6.739  46.187  1.00  0.00     0.164 C 
HETATM    9  C8  UNL     1      31.767   8.936  47.827  1.00  0.00     0.131 A 
HETATM   10  C9  UNL     1      30.319   8.916  48.223  1.00  0.00     0.065 A 
HETATM   11  C10 UNL     1      29.672   7.857  48.699  1.00  0.00     0.112 C 
HETATM   12  N3  UNL     1      29.378  10.007  48.192  1.00  0.00    -0.244 NA
HETATM   13  C20 UNL     1      29.837  11.147  47.802  1.00  0.00     0.234 A 
HETATM   14  N4  UNL     1      31.201  11.335  47.411  1.00  0.00    -0.238 NA
HETATM   15  C21 UNL     1      32.039  10.327  47.435  1.00  0.00     0.091 A 
HETATM   16  S2  UNL     1      33.758   9.883  47.108  1.00  0.00    -0.066 SA
ENDROOT
BRANCH  11  17
HETATM   17  N2  UNL     1      28.307   7.668  49.120  1.00  0.00    -0.389 N 
HETATM   18  H10 UNL     1      27.978   7.975  50.060  1.00  0.00     0.159 HD
BRANCH  17  19
HETATM   19  C11 UNL     1      27.329   7.044  48.260  1.00  0.00     0.114 C 
BRANCH  19  20
HETATM   20  C12 UNL     1      26.302   8.045  47.749  1.00  0.00     0.025 C 
HETATM   21  C13 UNL     1      26.668   8.457  46.331  1.00  0.00     0.007 C 
ENDBRANCH  19  20
BRANCH  19  22
HETATM   22  C14 UNL     1      26.667   5.885  48.908  1.00  0.00    -0.036 A 
HETATM   23  C15 UNL     1      27.257   4.625  48.869  1.00  0.00     0.009 A 
HETATM   24  C16 UNL     1      26.655   3.521  49.471  1.00  0.00     0.001 A 
HETATM   25  C17 UNL     1      25.441   3.676  50.126  1.00  0.00     0.000 A 
HETATM   26  C18 UNL     1      24.827   4.919  50.183  1.00  0.00     0.001 A 
HETATM   27  C19 UNL     1      25.461   5.980  49.572  1.00  0.00     0.009 A 
ENDBRANCH  19  22
ENDBRANCH  17  19
ENDBRANCH  11  17
BRANCH   1  28
HETATM   28  C2  UNL     1      32.966   3.367  47.435  1.00  0.00     0.064 C 
HETATM   29  C1  UNL     1      32.713   2.178  46.934  1.00  0.00     0.017 C 
ENDBRANCH   1  28
TORSDOF 5
ENDMDL
MODEL 9
REMARK VINA RESULT:      -7.6      3.190      5.433
REMARK  5 active torsions:
REMARK  status: ('A' for Active; 'I' for Inactive)
REMARK    1  A    between atoms: C2_2  and  C3_3 
REMARK       I    between atoms: C3_3  and  N1_5 
REMARK    2  A    between atoms: C10_13  and  N2_14 
REMARK    3  A    between atoms: N2_14  and  C11_15 
REMARK    4  A    between atoms: C11_15  and  C12_16 
REMARK    5  A    between atoms: C11_15  and  C14_18 
ROOT
HETATM    1  C3  UNL     1      21.735   7.210  50.151  1.00  0.00     0.243 C 
HETATM    2  O1  UNL     1      21.133   6.214  50.650  1.00  0.00    -0.268 OA
HETATM    3  N1  UNL     1      23.123   7.355  50.372  1.00  0.00    -0.335 N 
HETATM    4  C4  UNL     1      23.817   8.499  49.796  1.00  0.00     0.206 C 
HETATM    5  S1  UNL     1      25.613   8.160  50.066  1.00  0.00    -0.102 SA
HETATM    6  C5  UNL     1      25.721   6.368  49.756  1.00  0.00     0.049 C 
HETATM    7  C6  UNL     1      24.804   5.601  50.346  1.00  0.00    -0.022 C 
HETATM    8  C7  UNL     1      23.852   6.399  51.166  1.00  0.00     0.164 C 
HETATM    9  C8  UNL     1      25.030   4.212  49.997  1.00  0.00     0.131 A 
HETATM   10  C9  UNL     1      24.385   3.208  50.908  1.00  0.00     0.065 A 
HETATM   11  C10 UNL     1      23.082   3.129  51.155  1.00  0.00     0.112 C 
HETATM   12  N3  UNL     1      25.021   2.151  51.652  1.00  0.00    -0.244 NA
HETATM   13  C20 UNL     1      26.297   2.032  51.500  1.00  0.00     0.234 A 
HETATM   14  N4  UNL     1      27.055   2.898  50.650  1.00  0.00    -0.238 NA
HETATM   15  C21 UNL     1      26.459   3.862  49.990  1.00  0.00     0.091 A 
HETATM   16  S2  UNL     1      26.769   5.211  48.832  1.00  0.00    -0.066 SA
ENDROOT
BRANCH  11  17
HETATM   17  N2  UNL     1      22.308   2.242  51.989  1.00  0.00    -0.389 N 
HETATM   18  H10 UNL     1      21.842   2.579  52.858  1.00  0.00     0.159 HD
BRANCH  17  19
HETATM   19  C11 UNL     1      22.141   0.847  51.658  1.00  0.00     0.114 C 
BRANCH  19  20
HETATM   20  C12 UNL     1      20.870   0.601  50.857  1.00  0.00     0.025 C 
HETATM   21  C13 UNL     1      21.126   0.942  49.397  1.00  0.00     0.007 C 
ENDBRANCH  19  20
BRANCH  19  22
HETATM   22  C14 UNL     1      22.192  -0.025  52.858  1.00  0.00    -0.036 A 
HETATM   23  C15 UNL     1      21.050  -0.691  53.294  1.00  0.00     0.009 A 
HETATM   24  C16 UNL     1      21.074  -1.516  54.418  1.00  0.00     0.001 A 
HETATM   25  C17 UNL     1      22.259  -1.680  55.121  1.00  0.00     0.000 A 
HETATM   26  C18 UNL     1      23.415  -1.030  54.713  1.00  0.00     0.001 A 
HETATM   27  C19 UNL     1      23.341  -0.225  53.596  1.00  0.00     0.009 A 
ENDBRANCH  19  22
ENDBRANCH  17  19
ENDBRANCH  11  17
BRANCH   1  28
HETATM   28  C2  UNL     1      20.893   8.100  49.396  1.00  0.00     0.064 C 
HETATM   29  C1  UNL     1      20.024   8.935  49.925  1.00  0.00     0.017 C 
ENDBRANCH   1  28
TORSDOF 5
ENDMDL
