MODEL 1
REMARK VINA RESULT:      -7.8      0.000      0.000
REMARK  4 active torsions:
REMARK  status: ('A' for Active; 'I' for Inactive)
REMARK    1  A    between atoms: C1_2  and  C2_3 
REMARK       I    between atoms: C1_2  and  N1_10 
REMARK    2  A    between atoms: C2_3  and  C3_4 
REMARK    3  A    between atoms: N1_10  and  S1_11 
REMARK    4  A    between atoms: S1_11  and  C9_14 
ROOT
HETATM    1  O1  UNL     1      26.143   2.320  54.409  1.00  0.00    -0.272 OA
HETATM    2  C1  UNL     1      26.807   2.256  53.344  1.00  0.00     0.235 C 
HETATM    3  N1  UNL     1      26.120   2.453  52.095  1.00  0.00    -0.250 N 
HETATM    4  H8  UNL     1      26.615   2.413  51.156  1.00  0.00     0.181 HD
ENDROOT
BRANCH   3   5
HETATM    5  S1  UNL     1      24.427   2.768  52.100  1.00  0.00     0.265 S 
HETATM    6  O2  UNL     1      24.001   3.088  50.686  1.00  0.00    -0.200 OA
HETATM    7  O3  UNL     1      24.090   3.974  52.929  1.00  0.00    -0.200 OA
BRANCH   5   8
HETATM    8  C9  UNL     1      23.487   1.430  52.693  1.00  0.00     0.080 A 
HETATM    9  C10 UNL     1      23.948   0.170  53.033  1.00  0.00     0.027 A 
HETATM   10  C11 UNL     1      23.062  -0.788  53.492  1.00  0.00     0.025 A 
HETATM   11  C12 UNL     1      21.710  -0.553  53.630  1.00  0.00     0.034 A 
HETATM   12 CL1  UNL     1      20.608  -1.784  54.214  1.00  0.00    -0.084 Cl
HETATM   13  C13 UNL     1      21.224   0.696  53.296  1.00  0.00     0.025 A 
HETATM   14  C14 UNL     1      22.113   1.648  52.840  1.00  0.00     0.027 A 
ENDBRANCH   5   8
ENDBRANCH   3   5
BRANCH   2  15
HETATM   15  C2  UNL     1      28.253   1.994  53.208  1.00  0.00     0.142 C 
BRANCH  15  16
HETATM   16  C3  UNL     1      28.599   0.557  53.250  1.00  0.00    -0.049 A 
HETATM   17  C4  UNL     1      29.830   0.048  53.611  1.00  0.00     0.007 A 
HETATM   18  C5  UNL     1      30.044  -1.334  53.616  1.00  0.00     0.001 A 
HETATM   19  C6  UNL     1      29.035  -2.220  53.261  1.00  0.00     0.000 A 
HETATM   20  C7  UNL     1      27.795  -1.738  52.897  1.00  0.00     0.001 A 
HETATM   21  C8  UNL     1      27.627  -0.361  52.907  1.00  0.00     0.007 A 
ENDBRANCH  15  16
ENDBRANCH   2  15
TORSDOF 4
ENDMDL
MODEL 2
REMARK VINA RESULT:      -7.5      4.440      5.592
REMARK  4 active torsions:
REMARK  status: ('A' for Active; 'I' for Inactive)
REMARK    1  A    between atoms: C1_2  and  C2_3 
REMARK       I    between atoms: C1_2  and  N1_10 
REMARK    2  A    between atoms: C2_3  and  C3_4 
REMARK    3  A    between atoms: N1_10  and  S1_11 
REMARK    4  A    between atoms: S1_11  and  C9_14 
ROOT
HETATM    1  O1  UNL     1      26.482   1.585  51.111  1.00  0.00    -0.272 OA
HETATM    2  C1  UNL     1      26.223   2.059  52.245  1.00  0.00     0.235 C 
HETATM    3  N1  UNL     1      25.331   3.186  52.330  1.00  0.00    -0.250 N 
HETATM    4  H8  UNL     1      25.066   3.640  53.253  1.00  0.00     0.181 HD
ENDROOT
BRANCH   3   5
HETATM    5  S1  UNL     1      24.654   3.839  50.887  1.00  0.00     0.265 S 
HETATM    6  O2  UNL     1      23.554   4.801  51.274  1.00  0.00    -0.200 OA
HETATM    7  O3  UNL     1      24.011   2.776  50.044  1.00  0.00    -0.200 OA
BRANCH   5   8
HETATM    8  C9  UNL     1      25.822   4.672  49.903  1.00  0.00     0.080 A 
HETATM    9  C10 UNL     1      26.935   4.128  49.285  1.00  0.00     0.027 A 
HETATM   10  C11 UNL     1      27.769   4.933  48.532  1.00  0.00     0.025 A 
HETATM   11  C12 UNL     1      27.550   6.284  48.359  1.00  0.00     0.034 A 
HETATM   12 CL1  UNL     1      28.622   7.284  47.399  1.00  0.00    -0.084 Cl
HETATM   13  C13 UNL     1      26.447   6.853  48.966  1.00  0.00     0.025 A 
HETATM   14  C14 UNL     1      25.617   6.043  49.716  1.00  0.00     0.027 A 
ENDBRANCH   5   8
ENDBRANCH   3   5
BRANCH   2  15
HETATM   15  C2  UNL     1      26.735   1.591  53.548  1.00  0.00     0.142 C 
BRANCH  15  16
HETATM   16  C3  UNL     1      27.603   0.398  53.445  1.00  0.00    -0.049 A 
HETATM   17  C4  UNL     1      27.165  -0.875  53.140  1.00  0.00     0.007 A 
HETATM   18  C5  UNL     1      28.079  -1.933  53.069  1.00  0.00     0.001 A 
HETATM   19  C6  UNL     1      29.433  -1.731  53.302  1.00  0.00     0.000 A 
HETATM   20  C7  UNL     1      29.896  -0.469  53.608  1.00  0.00     0.001 A 
HETATM   21  C8  UNL     1      28.956   0.550  53.667  1.00  0.00     0.007 A 
ENDBRANCH  15  16
ENDBRANCH   2  15
TORSDOF 4
ENDMDL
MODEL 3
REMARK VINA RESULT:      -7.5      4.219      6.132
REMARK  4 active torsions:
REMARK  status: ('A' for Active; 'I' for Inactive)
REMARK    1  A    between atoms: C1_2  and  C2_3 
REMARK       I    between atoms: C1_2  and  N1_10 
REMARK    2  A    between atoms: C2_3  and  C3_4 
REMARK    3  A    between atoms: N1_10  and  S1_11 
REMARK    4  A    between atoms: S1_11  and  C9_14 
ROOT
HETATM    1  O1  UNL     1      27.226   2.878  51.377  1.00  0.00    -0.272 OA
HETATM    2  C1  UNL     1      26.162   2.891  50.709  1.00  0.00     0.235 C 
HETATM    3  N1  UNL     1      24.963   2.379  51.319  1.00  0.00    -0.250 N 
HETATM    4  H8  UNL     1      24.028   2.358  50.816  1.00  0.00     0.181 HD
ENDROOT
BRANCH   3   5
HETATM    5  S1  UNL     1      25.025   1.773  52.930  1.00  0.00     0.265 S 
HETATM    6  O2  UNL     1      23.727   1.056  53.217  1.00  0.00    -0.200 OA
HETATM    7  O3  UNL     1      25.129   2.883  53.937  1.00  0.00    -0.200 OA
BRANCH   5   8
HETATM    8  C9  UNL     1      26.353   0.681  53.196  1.00  0.00     0.080 A 
HETATM    9  C10 UNL     1      27.420   0.857  54.061  1.00  0.00     0.027 A 
HETATM   10  C11 UNL     1      28.399  -0.115  54.155  1.00  0.00     0.025 A 
HETATM   11  C12 UNL     1      28.373  -1.278  53.413  1.00  0.00     0.034 A 
HETATM   12 CL1  UNL     1      29.627  -2.495  53.549  1.00  0.00    -0.084 Cl
HETATM   13  C13 UNL     1      27.321  -1.478  52.542  1.00  0.00     0.025 A 
HETATM   14  C14 UNL     1      26.346  -0.504  52.454  1.00  0.00     0.027 A 
ENDBRANCH   5   8
ENDBRANCH   3   5
BRANCH   2  15
HETATM   15  C2  UNL     1      25.980   3.381  49.329  1.00  0.00     0.142 C 
BRANCH  15  16
HETATM   16  C3  UNL     1      26.552   4.726  49.101  1.00  0.00    -0.049 A 
HETATM   17  C4  UNL     1      25.923   5.916  49.407  1.00  0.00     0.007 A 
HETATM   18  C5  UNL     1      26.562   7.133  49.147  1.00  0.00     0.001 A 
HETATM   19  C6  UNL     1      27.830   7.175  48.581  1.00  0.00     0.000 A 
HETATM   20  C7  UNL     1      28.480   6.000  48.268  1.00  0.00     0.001 A 
HETATM   21  C8  UNL     1      27.810   4.816  48.542  1.00  0.00     0.007 A 
ENDBRANCH  15  16
ENDBRANCH   2  15
TORSDOF 4
ENDMDL
MODEL 4
REMARK VINA RESULT:      -7.4      4.030      5.087
REMARK  4 active torsions:
REMARK  status: ('A' for Active; 'I' for Inactive)
REMARK    1  A    between atoms: C1_2  and  C2_3 
REMARK       I    between atoms: C1_2  and  N1_10 
REMARK    2  A    between atoms: C2_3  and  C3_4 
REMARK    3  A    between atoms: N1_10  and  S1_11 
REMARK    4  A    between atoms: S1_11  and  C9_14 
ROOT
HETATM    1  O1  UNL     1      24.245   2.763  53.034  1.00  0.00    -0.272 OA
HETATM    2  C1  UNL     1      24.054   1.578  52.662  1.00  0.00     0.235 C 
HETATM    3  N1  UNL     1      23.523   1.350  51.345  1.00  0.00    -0.250 N 
HETATM    4  H8  UNL     1      23.336   0.376  50.962  1.00  0.00     0.181 HD
ENDROOT
BRANCH   3   5
HETATM    5  S1  UNL     1      23.169   2.695  50.329  1.00  0.00     0.265 S 
HETATM    6  O2  UNL     1      22.279   3.645  51.095  1.00  0.00    -0.200 OA
HETATM    7  O3  UNL     1      22.399   2.282  49.108  1.00  0.00    -0.200 OA
BRANCH   5   8
HETATM    8  C9  UNL     1      24.594   3.544  49.803  1.00  0.00     0.080 A 
HETATM    9  C10 UNL     1      25.897   3.076  49.810  1.00  0.00     0.027 A 
HETATM   10  C11 UNL     1      26.923   3.884  49.354  1.00  0.00     0.025 A 
HETATM   11  C12 UNL     1      26.715   5.164  48.883  1.00  0.00     0.034 A 
HETATM   12 CL1  UNL     1      28.032   6.169  48.311  1.00  0.00    -0.084 Cl
HETATM   13  C13 UNL     1      25.424   5.656  48.867  1.00  0.00     0.025 A 
HETATM   14  C14 UNL     1      24.405   4.844  49.322  1.00  0.00     0.027 A 
ENDBRANCH   5   8
ENDBRANCH   3   5
BRANCH   2  15
HETATM   15  C2  UNL     1      24.316   0.348  53.433  1.00  0.00     0.142 C 
BRANCH  15  16
HETATM   16  C3  UNL     1      25.756   0.066  53.623  1.00  0.00    -0.049 A 
HETATM   17  C4  UNL     1      26.536   0.579  54.639  1.00  0.00     0.007 A 
HETATM   18  C5  UNL     1      27.892   0.243  54.721  1.00  0.00     0.001 A 
HETATM   19  C6  UNL     1      28.480  -0.606  53.793  1.00  0.00     0.000 A 
HETATM   20  C7  UNL     1      27.722  -1.133  52.768  1.00  0.00     0.001 A 
HETATM   21  C8  UNL     1      26.383  -0.773  52.725  1.00  0.00     0.007 A 
ENDBRANCH  15  16
ENDBRANCH   2  15
TORSDOF 4
ENDMDL
MODEL 5
REMARK VINA RESULT:      -7.3      3.867      5.346
REMARK  4 active torsions:
REMARK  status: ('A' for Active; 'I' for Inactive)
REMARK    1  A    between atoms: C1_2  and  C2_3 
REMARK       I    between atoms: C1_2  and  N1_10 
REMARK    2  A    between atoms: C2_3  and  C3_4 
REMARK    3  A    between atoms: N1_10  and  S1_11 
REMARK    4  A    between atoms: S1_11  and  C9_14 
ROOT
HETATM    1  O1  UNL     1      24.284   3.034  49.414  1.00  0.00    -0.272 OA
HETATM    2  C1  UNL     1      25.319   3.456  49.990  1.00  0.00     0.235 C 
HETATM    3  N1  UNL     1      25.213   3.896  51.355  1.00  0.00    -0.250 N 
HETATM    4  H8  UNL     1      26.044   4.265  51.905  1.00  0.00     0.181 HD
ENDROOT
BRANCH   3   5
HETATM    5  S1  UNL     1      23.687   3.832  52.150  1.00  0.00     0.265 S 
HETATM    6  O2  UNL     1      22.634   4.346  51.196  1.00  0.00    -0.200 OA
HETATM    7  O3  UNL     1      23.648   4.732  53.352  1.00  0.00    -0.200 OA
BRANCH   5   8
HETATM    8  C9  UNL     1      23.256   2.228  52.667  1.00  0.00     0.080 A 
HETATM    9  C10 UNL     1      24.114   1.222  53.077  1.00  0.00     0.027 A 
HETATM   10  C11 UNL     1      23.606  -0.006  53.460  1.00  0.00     0.025 A 
HETATM   11  C12 UNL     1      22.256  -0.293  53.454  1.00  0.00     0.034 A 
HETATM   12 CL1  UNL     1      21.637  -1.857  53.943  1.00  0.00    -0.084 Cl
HETATM   13  C13 UNL     1      21.378   0.693  53.048  1.00  0.00     0.025 A 
HETATM   14  C14 UNL     1      21.891   1.917  52.668  1.00  0.00     0.027 A 
ENDBRANCH   5   8
ENDBRANCH   3   5
BRANCH   2  15
HETATM   15  C2  UNL     1      26.677   3.559  49.421  1.00  0.00     0.142 C 
BRANCH  15  16
HETATM   16  C3  UNL     1      26.975   4.889  48.845  1.00  0.00    -0.049 A 
HETATM   17  C4  UNL     1      26.048   5.890  48.644  1.00  0.00     0.007 A 
HETATM   18  C5  UNL     1      26.445   7.113  48.090  1.00  0.00     0.001 A 
HETATM   19  C6  UNL     1      27.766   7.346  47.733  1.00  0.00     0.000 A 
HETATM   20  C7  UNL     1      28.713   6.362  47.926  1.00  0.00     0.001 A 
HETATM   21  C8  UNL     1      28.275   5.166  48.477  1.00  0.00     0.007 A 
ENDBRANCH  15  16
ENDBRANCH   2  15
TORSDOF 4
ENDMDL
MODEL 6
REMARK VINA RESULT:      -7.1      3.081      5.100
REMARK  4 active torsions:
REMARK  status: ('A' for Active; 'I' for Inactive)
REMARK    1  A    between atoms: C1_2  and  C2_3 
REMARK       I    between atoms: C1_2  and  N1_10 
REMARK    2  A    between atoms: C2_3  and  C3_4 
REMARK    3  A    between atoms: N1_10  and  S1_11 
REMARK    4  A    between atoms: S1_11  and  C9_14 
ROOT
HETATM    1  O1  UNL     1      25.337   2.897  52.595  1.00  0.00    -0.272 OA
HETATM    2  C1  UNL     1      26.098   2.317  51.781  1.00  0.00     0.235 C 
HETATM    3  N1  UNL     1      26.597   1.011  52.119  1.00  0.00    -0.250 N 
HETATM    4  H8  UNL     1      27.244   0.461  51.481  1.00  0.00     0.181 HD
ENDROOT
BRANCH   3   5
HETATM    5  S1  UNL     1      26.140   0.292  53.616  1.00  0.00     0.265 S 
HETATM    6  O2  UNL     1      26.392   1.293  54.719  1.00  0.00    -0.200 OA
HETATM    7  O3  UNL     1      26.982  -0.911  53.934  1.00  0.00    -0.200 OA
BRANCH   5   8
HETATM    8  C9  UNL     1      24.471  -0.196  53.656  1.00  0.00     0.080 A 
HETATM    9  C10 UNL     1      23.512   0.025  52.682  1.00  0.00     0.027 A 
HETATM   10  C11 UNL     1      22.220  -0.431  52.870  1.00  0.00     0.025 A 
HETATM   11  C12 UNL     1      21.823  -1.110  54.004  1.00  0.00     0.034 A 
HETATM   12 CL1  UNL     1      20.179  -1.678  54.218  1.00  0.00    -0.084 Cl
HETATM   13  C13 UNL     1      22.760  -1.342  54.991  1.00  0.00     0.025 A 
HETATM   14  C14 UNL     1      24.048  -0.885  54.797  1.00  0.00     0.027 A 
ENDBRANCH   5   8
ENDBRANCH   3   5
BRANCH   2  15
HETATM   15  C2  UNL     1      26.559   2.824  50.474  1.00  0.00     0.142 C 
BRANCH  15  16
HETATM   16  C3  UNL     1      25.568   3.684  49.791  1.00  0.00    -0.049 A 
HETATM   17  C4  UNL     1      25.776   4.998  49.427  1.00  0.00     0.007 A 
HETATM   18  C5  UNL     1      24.763   5.717  48.783  1.00  0.00     0.001 A 
HETATM   19  C6  UNL     1      23.536   5.133  48.498  1.00  0.00     0.000 A 
HETATM   20  C7  UNL     1      23.302   3.821  48.851  1.00  0.00     0.001 A 
HETATM   21  C8  UNL     1      24.334   3.146  49.487  1.00  0.00     0.007 A 
ENDBRANCH  15  16
ENDBRANCH   2  15
TORSDOF 4
ENDMDL
MODEL 7
REMARK VINA RESULT:      -6.9      3.911      5.450
REMARK  4 active torsions:
REMARK  status: ('A' for Active; 'I' for Inactive)
REMARK    1  A    between atoms: C1_2  and  C2_3 
REMARK       I    between atoms: C1_2  and  N1_10 
REMARK    2  A    between atoms: C2_3  and  C3_4 
REMARK    3  A    between atoms: N1_10  and  S1_11 
REMARK    4  A    between atoms: S1_11  and  C9_14 
ROOT
HETATM    1  O1  UNL     1      25.967   2.460  49.736  1.00  0.00    -0.272 OA
HETATM    2  C1  UNL     1      25.640   3.528  50.312  1.00  0.00     0.235 C 
HETATM    3  N1  UNL     1      25.535   3.529  51.747  1.00  0.00    -0.250 N 
HETATM    4  H8  UNL     1      25.264   4.393  52.302  1.00  0.00     0.181 HD
ENDROOT
BRANCH   3   5
HETATM    5  S1  UNL     1      25.857   2.080  52.621  1.00  0.00     0.265 S 
HETATM    6  O2  UNL     1      26.552   2.450  53.911  1.00  0.00    -0.200 OA
HETATM    7  O3  UNL     1      26.799   1.179  51.874  1.00  0.00    -0.200 OA
BRANCH   5   8
HETATM    8  C9  UNL     1      24.420   1.170  52.985  1.00  0.00     0.080 A 
HETATM    9  C10 UNL     1      23.121   1.477  52.619  1.00  0.00     0.027 A 
HETATM   10  C11 UNL     1      22.083   0.642  52.992  1.00  0.00     0.025 A 
HETATM   11  C12 UNL     1      22.275  -0.509  53.728  1.00  0.00     0.034 A 
HETATM   12 CL1  UNL     1      20.944  -1.551  54.187  1.00  0.00    -0.084 Cl
HETATM   13  C13 UNL     1      23.562  -0.838  54.106  1.00  0.00     0.025 A 
HETATM   14  C14 UNL     1      24.594  -0.001  53.731  1.00  0.00     0.027 A 
ENDBRANCH   5   8
ENDBRANCH   3   5
BRANCH   2  15
HETATM   15  C2  UNL     1      25.341   4.827  49.680  1.00  0.00     0.142 C 
BRANCH  15  16
HETATM   16  C3  UNL     1      26.504   5.430  48.994  1.00  0.00    -0.049 A 
HETATM   17  C4  UNL     1      27.729   4.818  48.824  1.00  0.00     0.007 A 
HETATM   18  C5  UNL     1      28.760   5.486  48.155  1.00  0.00     0.001 A 
HETATM   19  C6  UNL     1      28.581   6.768  47.652  1.00  0.00     0.000 A 
HETATM   20  C7  UNL     1      27.366   7.401  47.807  1.00  0.00     0.001 A 
HETATM   21  C8  UNL     1      26.371   6.702  48.476  1.00  0.00     0.007 A 
ENDBRANCH  15  16
ENDBRANCH   2  15
TORSDOF 4
ENDMDL
MODEL 8
REMARK VINA RESULT:      -6.9      4.321      6.201
REMARK  4 active torsions:
REMARK  status: ('A' for Active; 'I' for Inactive)
REMARK    1  A    between atoms: C1_2  and  C2_3 
REMARK       I    between atoms: C1_2  and  N1_10 
REMARK    2  A    between atoms: C2_3  and  C3_4 
REMARK    3  A    between atoms: N1_10  and  S1_11 
REMARK    4  A    between atoms: S1_11  and  C9_14 
ROOT
HETATM    1  O1  UNL     1      24.223   5.256  51.785  1.00  0.00    -0.272 OA
HETATM    2  C1  UNL     1      24.404   4.560  50.755  1.00  0.00     0.235 C 
HETATM    3  N1  UNL     1      24.580   3.140  50.910  1.00  0.00    -0.250 N 
HETATM    4  H8  UNL     1      24.738   2.489  50.085  1.00  0.00     0.181 HD
ENDROOT
BRANCH   3   5
HETATM    5  S1  UNL     1      24.538   2.448  52.486  1.00  0.00     0.265 S 
HETATM    6  O2  UNL     1      23.335   1.537  52.571  1.00  0.00    -0.200 OA
HETATM    7  O3  UNL     1      24.354   3.495  53.547  1.00  0.00    -0.200 OA
BRANCH   5   8
HETATM    8  C9  UNL     1      25.971   1.540  52.870  1.00  0.00     0.080 A 
HETATM    9  C10 UNL     1      27.163   2.032  53.376  1.00  0.00     0.027 A 
HETATM   10  C11 UNL     1      28.214   1.170  53.628  1.00  0.00     0.025 A 
HETATM   11  C12 UNL     1      28.140  -0.188  53.397  1.00  0.00     0.034 A 
HETATM   12 CL1  UNL     1      29.487  -1.261  53.725  1.00  0.00    -0.084 Cl
HETATM   13  C13 UNL     1      26.963  -0.705  52.892  1.00  0.00     0.025 A 
HETATM   14  C14 UNL     1      25.917   0.161  52.643  1.00  0.00     0.027 A 
ENDBRANCH   5   8
ENDBRANCH   3   5
BRANCH   2  15
HETATM   15  C2  UNL     1      24.460   5.030  49.358  1.00  0.00     0.142 C 
BRANCH  15  16
HETATM   16  C3  UNL     1      25.805   5.485  48.943  1.00  0.00    -0.049 A 
HETATM   17  C4  UNL     1      26.931   4.688  48.896  1.00  0.00     0.007 A 
HETATM   18  C5  UNL     1      28.155   5.227  48.485  1.00  0.00     0.001 A 
HETATM   19  C6  UNL     1      28.267   6.562  48.119  1.00  0.00     0.000 A 
HETATM   20  C7  UNL     1      27.157   7.379  48.156  1.00  0.00     0.001 A 
HETATM   21  C8  UNL     1      25.964   6.803  48.569  1.00  0.00     0.007 A 
ENDBRANCH  15  16
ENDBRANCH   2  15
TORSDOF 4
ENDMDL
MODEL 9
REMARK VINA RESULT:      -6.8      4.863      7.138
REMARK  4 active torsions:
REMARK  status: ('A' for Active; 'I' for Inactive)
REMARK    1  A    between atoms: C1_2  and  C2_3 
REMARK       I    between atoms: C1_2  and  N1_10 
REMARK    2  A    between atoms: C2_3  and  C3_4 
REMARK    3  A    between atoms: N1_10  and  S1_11 
REMARK    4  A    between atoms: S1_11  and  C9_14 
ROOT
HETATM    1  O1  UNL     1      24.272   2.752  50.430  1.00  0.00    -0.272 OA
HETATM    2  C1  UNL     1      24.306   3.329  51.546  1.00  0.00     0.235 C 
HETATM    3  N1  UNL     1      24.355   4.767  51.575  1.00  0.00    -0.250 N 
HETATM    4  H8  UNL     1      24.386   5.322  52.480  1.00  0.00     0.181 HD
ENDROOT
BRANCH   3   5
HETATM    5  S1  UNL     1      24.365   5.643  50.092  1.00  0.00     0.265 S 
HETATM    6  O2  UNL     1      23.861   7.041  50.365  1.00  0.00    -0.200 OA
HETATM    7  O3  UNL     1      23.426   5.042  49.086  1.00  0.00    -0.200 OA
BRANCH   5   8
HETATM    8  C9  UNL     1      25.943   5.734  49.365  1.00  0.00     0.080 A 
HETATM    9  C10 UNL     1      26.801   4.682  49.095  1.00  0.00     0.027 A 
HETATM   10  C11 UNL     1      28.030   4.927  48.509  1.00  0.00     0.025 A 
HETATM   11  C12 UNL     1      28.460   6.194  48.173  1.00  0.00     0.034 A 
HETATM   12 CL1  UNL     1      30.022   6.479  47.432  1.00  0.00    -0.084 Cl
HETATM   13  C13 UNL     1      27.623   7.262  48.433  1.00  0.00     0.025 A 
HETATM   14  C14 UNL     1      26.397   7.011  49.017  1.00  0.00     0.027 A 
ENDBRANCH   5   8
ENDBRANCH   3   5
BRANCH   2  15
HETATM   15  C2  UNL     1      24.301   2.695  52.879  1.00  0.00     0.142 C 
BRANCH  15  16
HETATM   16  C3  UNL     1      23.380   1.542  52.980  1.00  0.00    -0.049 A 
HETATM   17  C4  UNL     1      22.015   1.599  52.782  1.00  0.00     0.007 A 
HETATM   18  C5  UNL     1      21.240   0.441  52.903  1.00  0.00     0.001 A 
HETATM   19  C6  UNL     1      21.816  -0.781  53.223  1.00  0.00     0.000 A 
HETATM   20  C7  UNL     1      23.178  -0.865  53.425  1.00  0.00     0.001 A 
HETATM   21  C8  UNL     1      23.908   0.307  53.295  1.00  0.00     0.007 A 
ENDBRANCH  15  16
ENDBRANCH   2  15
TORSDOF 4
ENDMDL
