MODEL 1
REMARK VINA RESULT:      -9.6      0.000      0.000
REMARK  4 active torsions:
REMARK  status: ('A' for Active; 'I' for Inactive)
REMARK    1  A    between atoms: N1_1  and  C1_2 
REMARK    2  A    between atoms: C3_5  and  N2_6 
REMARK    3  A    between atoms: C4_8  and  C5_9 
REMARK    4  A    between atoms: C12_17  and  C13_18 
ROOT
HETATM    1  N2  UNL     1      26.240   0.862  52.065  1.00  0.00    -0.236 N 
HETATM    2  N3  UNL     1      26.516   1.901  51.180  1.00  0.00    -0.173 NA
HETATM    3  C4  UNL     1      25.648   2.853  51.193  1.00  0.00     0.067 C 
HETATM    4  C11 UNL     1      24.628   2.415  52.196  1.00  0.00     0.094 C 
HETATM    5  C12 UNL     1      24.799   0.892  52.057  1.00  0.00     0.151 C 
ENDROOT
BRANCH   1   6
HETATM    6  C3  UNL     1      27.344   0.137  52.687  1.00  0.00     0.192 A 
HETATM    7  S1  UNL     1      28.801   0.802  53.689  1.00  0.00    -0.059 SA
HETATM    8  C2  UNL     1      29.423  -0.976  53.894  1.00  0.00     0.103 A 
HETATM    9  C1  UNL     1      28.485  -1.733  53.215  1.00  0.00     0.130 A 
HETATM   10  N4  UNL     1      27.587  -0.938  52.727  1.00  0.00    -0.205 NA
BRANCH   9  11
HETATM   11  N1  UNL     1      28.632  -3.153  53.167  1.00  0.00    -0.384 N 
HETATM   12  H1  UNL     1      29.501  -3.551  53.580  1.00  0.00     0.157 HD
HETATM   13  H2  UNL     1      27.805  -3.639  52.697  1.00  0.00     0.157 HD
ENDBRANCH   9  11
ENDBRANCH   1   6
BRANCH   5  14
HETATM   14  C13 UNL     1      24.106   0.180  53.099  1.00  0.00    -0.033 A 
HETATM   15  C14 UNL     1      24.561  -0.563  54.200  1.00  0.00     0.009 A 
HETATM   16  C15 UNL     1      23.581  -1.063  55.008  1.00  0.00     0.001 A 
HETATM   17  C16 UNL     1      22.218  -0.944  54.897  1.00  0.00     0.000 A 
HETATM   18  C17 UNL     1      21.783  -0.207  53.803  1.00  0.00     0.001 A 
HETATM   19  C18 UNL     1      22.726   0.343  52.921  1.00  0.00     0.009 A 
ENDBRANCH   5  14
BRANCH   3  20
HETATM   20  C5  UNL     1      25.789   4.035  50.316  1.00  0.00    -0.010 A 
HETATM   21  C6  UNL     1      26.905   4.029  49.520  1.00  0.00     0.015 A 
HETATM   22  C7  UNL     1      27.153   5.098  48.650  1.00  0.00     0.024 A 
HETATM   23  C8  UNL     1      26.214   6.108  48.668  1.00  0.00     0.034 A 
HETATM   24 CL1  UNL     1      26.394   7.510  47.641  1.00  0.00    -0.084 Cl
HETATM   25  C9  UNL     1      25.096   6.128  49.455  1.00  0.00     0.024 A 
HETATM   26  C10 UNL     1      24.862   5.052  50.321  1.00  0.00     0.015 A 
ENDBRANCH   3  20
TORSDOF 4
ENDMDL
MODEL 2
REMARK VINA RESULT:      -9.1      3.365      6.559
REMARK  4 active torsions:
REMARK  status: ('A' for Active; 'I' for Inactive)
REMARK    1  A    between atoms: N1_1  and  C1_2 
REMARK    2  A    between atoms: C3_5  and  N2_6 
REMARK    3  A    between atoms: C4_8  and  C5_9 
REMARK    4  A    between atoms: C12_17  and  C13_18 
ROOT
HETATM    1  N2  UNL     1      25.071   1.631  52.538  1.00  0.00    -0.236 N 
HETATM    2  N3  UNL     1      23.933   0.978  53.007  1.00  0.00    -0.173 NA
HETATM    3  C4  UNL     1      22.936   0.997  52.191  1.00  0.00     0.067 C 
HETATM    4  C11 UNL     1      23.431   1.780  51.015  1.00  0.00     0.094 C 
HETATM    5  C12 UNL     1      24.463   2.664  51.737  1.00  0.00     0.151 C 
ENDROOT
BRANCH   1   6
HETATM    6  C3  UNL     1      26.390   1.141  52.924  1.00  0.00     0.192 A 
HETATM    7  S1  UNL     1      27.123  -0.591  52.749  1.00  0.00    -0.059 SA
HETATM    8  C2  UNL     1      28.723   0.047  53.540  1.00  0.00     0.103 A 
HETATM    9  C1  UNL     1      28.457   1.381  53.790  1.00  0.00     0.130 A 
HETATM   10  N4  UNL     1      27.252   1.644  53.393  1.00  0.00    -0.205 NA
BRANCH   9  11
HETATM   11  N1  UNL     1      29.465   2.197  54.387  1.00  0.00    -0.384 N 
HETATM   12  H1  UNL     1      30.403   1.765  54.520  1.00  0.00     0.157 HD
HETATM   13  H2  UNL     1      29.115   3.176  54.631  1.00  0.00     0.157 HD
ENDBRANCH   9  11
ENDBRANCH   1   6
BRANCH   5  14
HETATM   14  C13 UNL     1      25.301   3.374  50.806  1.00  0.00    -0.033 A 
HETATM   15  C14 UNL     1      26.459   3.002  50.104  1.00  0.00     0.009 A 
HETATM   16  C15 UNL     1      26.958   3.953  49.262  1.00  0.00     0.001 A 
HETATM   17  C16 UNL     1      26.490   5.218  49.004  1.00  0.00     0.000 A 
HETATM   18  C17 UNL     1      25.344   5.571  49.706  1.00  0.00     0.001 A 
HETATM   19  C18 UNL     1      24.766   4.651  50.594  1.00  0.00     0.009 A 
ENDBRANCH   5  14
BRANCH   3  20
HETATM   20  C5  UNL     1      21.651   0.350  52.530  1.00  0.00    -0.010 A 
HETATM   21  C6  UNL     1      21.712  -0.530  53.580  1.00  0.00     0.015 A 
HETATM   22  C7  UNL     1      20.560  -1.213  53.992  1.00  0.00     0.024 A 
HETATM   23  C8  UNL     1      19.415  -0.930  53.277  1.00  0.00     0.034 A 
HETATM   24 CL1  UNL     1      17.903  -1.709  53.672  1.00  0.00    -0.084 Cl
HETATM   25  C9  UNL     1      19.338  -0.054  52.230  1.00  0.00     0.024 A 
HETATM   26  C10 UNL     1      20.499   0.621  51.829  1.00  0.00     0.015 A 
ENDBRANCH   3  20
TORSDOF 4
ENDMDL
MODEL 3
REMARK VINA RESULT:      -9.0      3.672      6.976
REMARK  4 active torsions:
REMARK  status: ('A' for Active; 'I' for Inactive)
REMARK    1  A    between atoms: N1_1  and  C1_2 
REMARK    2  A    between atoms: C3_5  and  N2_6 
REMARK    3  A    between atoms: C4_8  and  C5_9 
REMARK    4  A    between atoms: C12_17  and  C13_18 
ROOT
HETATM    1  N2  UNL     1      24.779   1.758  51.594  1.00  0.00    -0.236 N 
HETATM    2  N3  UNL     1      23.455   1.325  51.618  1.00  0.00    -0.173 NA
HETATM    3  C4  UNL     1      23.142   0.634  52.659  1.00  0.00     0.067 C 
HETATM    4  C11 UNL     1      24.410   0.556  53.450  1.00  0.00     0.094 C 
HETATM    5  C12 UNL     1      25.418   0.672  52.294  1.00  0.00     0.151 C 
ENDROOT
BRANCH   1   6
HETATM    6  C3  UNL     1      25.105   3.033  50.963  1.00  0.00     0.192 A 
HETATM    7  S1  UNL     1      24.168   4.673  51.021  1.00  0.00    -0.059 SA
HETATM    8  C2  UNL     1      25.509   5.435  49.919  1.00  0.00     0.103 A 
HETATM    9  C1  UNL     1      26.390   4.390  49.703  1.00  0.00     0.130 A 
HETATM   10  N4  UNL     1      25.950   3.343  50.326  1.00  0.00    -0.205 NA
BRANCH   9  11
HETATM   11  N1  UNL     1      27.553   4.608  48.905  1.00  0.00    -0.384 N 
HETATM   12  H1  UNL     1      27.974   3.773  48.446  1.00  0.00     0.157 HD
HETATM   13  H2  UNL     1      27.855   5.632  48.883  1.00  0.00     0.157 HD
ENDBRANCH   9  11
ENDBRANCH   1   6
BRANCH   5  14
HETATM   14  C13 UNL     1      26.759   0.879  52.775  1.00  0.00    -0.033 A 
HETATM   15  C14 UNL     1      27.451   2.033  53.178  1.00  0.00     0.009 A 
HETATM   16  C15 UNL     1      28.724   1.821  53.622  1.00  0.00     0.001 A 
HETATM   17  C16 UNL     1      29.423   0.645  53.730  1.00  0.00     0.000 A 
HETATM   18  C17 UNL     1      28.726  -0.488  53.328  1.00  0.00     0.001 A 
HETATM   19  C18 UNL     1      27.410  -0.359  52.857  1.00  0.00     0.009 A 
ENDBRANCH   5  14
BRANCH   3  20
HETATM   20  C5  UNL     1      21.777   0.097  52.844  1.00  0.00    -0.010 A 
HETATM   21  C6  UNL     1      21.661  -0.843  53.835  1.00  0.00     0.015 A 
HETATM   22  C7  UNL     1      20.419  -1.433  54.102  1.00  0.00     0.024 A 
HETATM   23  C8  UNL     1      19.374  -1.000  53.312  1.00  0.00     0.034 A 
HETATM   24 CL1  UNL     1      17.767  -1.650  53.524  1.00  0.00    -0.084 Cl
HETATM   25  C9  UNL     1      19.474  -0.062  52.321  1.00  0.00     0.024 A 
HETATM   26  C10 UNL     1      20.724   0.518  52.066  1.00  0.00     0.015 A 
ENDBRANCH   3  20
TORSDOF 4
ENDMDL
MODEL 4
REMARK VINA RESULT:      -8.9      1.572      2.113
REMARK  4 active torsions:
REMARK  status: ('A' for Active; 'I' for Inactive)
REMARK    1  A    between atoms: N1_1  and  C1_2 
REMARK    2  A    between atoms: C3_5  and  N2_6 
REMARK    3  A    between atoms: C4_8  and  C5_9 
REMARK    4  A    between atoms: C12_17  and  C13_18 
ROOT
HETATM    1  N2  UNL     1      26.394   1.816  51.696  1.00  0.00    -0.236 N 
HETATM    2  N3  UNL     1      26.805   2.811  50.810  1.00  0.00    -0.173 NA
HETATM    3  C4  UNL     1      25.892   3.672  50.521  1.00  0.00     0.067 C 
HETATM    4  C11 UNL     1      24.688   3.211  51.281  1.00  0.00     0.094 C 
HETATM    5  C12 UNL     1      25.004   1.706  51.333  1.00  0.00     0.151 C 
ENDROOT
BRANCH   1   6
HETATM    6  C3  UNL     1      27.358   1.250  52.634  1.00  0.00     0.192 A 
HETATM    7  S1  UNL     1      27.711  -0.561  53.042  1.00  0.00    -0.059 SA
HETATM    8  C2  UNL     1      29.036   0.013  54.269  1.00  0.00     0.103 A 
HETATM    9  C1  UNL     1      28.997   1.392  54.174  1.00  0.00     0.130 A 
HETATM   10  N4  UNL     1      28.093   1.722  53.307  1.00  0.00    -0.205 NA
BRANCH   9  11
HETATM   11  N1  UNL     1      29.889   2.175  54.968  1.00  0.00    -0.384 N 
HETATM   12  H1  UNL     1      30.851   1.800  55.106  1.00  0.00     0.157 HD
HETATM   13  H2  UNL     1      29.440   3.072  55.333  1.00  0.00     0.157 HD
ENDBRANCH   9  11
ENDBRANCH   1   6
BRANCH   5  14
HETATM   14  C13 UNL     1      24.127   1.008  52.236  1.00  0.00    -0.033 A 
HETATM   15  C14 UNL     1      24.334  -0.073  53.109  1.00  0.00     0.009 A 
HETATM   16  C15 UNL     1      23.248  -0.435  53.852  1.00  0.00     0.001 A 
HETATM   17  C16 UNL     1      21.986   0.104  53.868  1.00  0.00     0.000 A 
HETATM   18  C17 UNL     1      21.796   1.171  52.999  1.00  0.00     0.001 A 
HETATM   19  C18 UNL     1      22.862   1.609  52.197  1.00  0.00     0.009 A 
ENDBRANCH   5  14
BRANCH   3  20
HETATM   20  C5  UNL     1      26.158   4.795  49.596  1.00  0.00    -0.010 A 
HETATM   21  C6  UNL     1      25.082   5.611  49.360  1.00  0.00     0.015 A 
HETATM   22  C7  UNL     1      25.207   6.705  48.495  1.00  0.00     0.024 A 
HETATM   23  C8  UNL     1      26.454   6.876  47.930  1.00  0.00     0.034 A 
HETATM   24 CL1  UNL     1      26.758   8.194  46.826  1.00  0.00    -0.084 Cl
HETATM   25  C9  UNL     1      27.536   6.072  48.157  1.00  0.00     0.024 A 
HETATM   26  C10 UNL     1      27.395   4.981  49.024  1.00  0.00     0.015 A 
ENDBRANCH   3  20
TORSDOF 4
ENDMDL
MODEL 5
REMARK VINA RESULT:      -8.8      2.592      3.445
REMARK  4 active torsions:
REMARK  status: ('A' for Active; 'I' for Inactive)
REMARK    1  A    between atoms: N1_1  and  C1_2 
REMARK    2  A    between atoms: C3_5  and  N2_6 
REMARK    3  A    between atoms: C4_8  and  C5_9 
REMARK    4  A    between atoms: C12_17  and  C13_18 
ROOT
HETATM    1  N2  UNL     1      26.224   2.860  50.592  1.00  0.00    -0.236 N 
HETATM    2  N3  UNL     1      26.999   3.724  49.821  1.00  0.00    -0.173 NA
HETATM    3  C4  UNL     1      26.383   4.787  49.436  1.00  0.00     0.067 C 
HETATM    4  C11 UNL     1      25.000   4.638  49.986  1.00  0.00     0.094 C 
HETATM    5  C12 UNL     1      24.924   3.101  50.020  1.00  0.00     0.151 C 
ENDROOT
BRANCH   1   6
HETATM    6  C3  UNL     1      26.861   2.066  51.638  1.00  0.00     0.192 A 
HETATM    7  S1  UNL     1      26.579   0.258  52.110  1.00  0.00    -0.059 SA
HETATM    8  C2  UNL     1      27.889   0.447  53.466  1.00  0.00     0.103 A 
HETATM    9  C1  UNL     1      28.300   1.763  53.346  1.00  0.00     0.130 A 
HETATM   10  N4  UNL     1      27.637   2.316  52.381  1.00  0.00    -0.205 NA
BRANCH   9  11
HETATM   11  N1  UNL     1      29.310   2.265  54.221  1.00  0.00    -0.384 N 
HETATM   12  H1  UNL     1      29.134   3.192  54.662  1.00  0.00     0.157 HD
HETATM   13  H2  UNL     1      30.145   1.605  54.312  1.00  0.00     0.157 HD
ENDBRANCH   9  11
ENDBRANCH   1   6
BRANCH   5  14
HETATM   14  C13 UNL     1      23.772   2.641  50.751  1.00  0.00    -0.033 A 
HETATM   15  C14 UNL     1      23.375   2.804  52.088  1.00  0.00     0.009 A 
HETATM   16  C15 UNL     1      22.171   2.245  52.408  1.00  0.00     0.001 A 
HETATM   17  C16 UNL     1      21.297   1.548  51.612  1.00  0.00     0.000 A 
HETATM   18  C17 UNL     1      21.704   1.394  50.293  1.00  0.00     0.001 A 
HETATM   19  C18 UNL     1      22.930   1.939  49.879  1.00  0.00     0.009 A 
ENDBRANCH   5  14
BRANCH   3  20
HETATM   20  C5  UNL     1      27.059   5.812  48.610  1.00  0.00    -0.010 A 
HETATM   21  C6  UNL     1      26.244   6.824  48.174  1.00  0.00     0.015 A 
HETATM   22  C7  UNL     1      26.766   7.851  47.377  1.00  0.00     0.024 A 
HETATM   23  C8  UNL     1      28.110   7.752  47.087  1.00  0.00     0.034 A 
HETATM   24 CL1  UNL     1      28.899   8.956  46.098  1.00  0.00    -0.084 Cl
HETATM   25  C9  UNL     1      28.936   6.749  47.515  1.00  0.00     0.024 A 
HETATM   26  C10 UNL     1      28.399   5.729  48.311  1.00  0.00     0.015 A 
ENDBRANCH   3  20
TORSDOF 4
ENDMDL
MODEL 6
REMARK VINA RESULT:      -8.8      2.070      4.077
REMARK  4 active torsions:
REMARK  status: ('A' for Active; 'I' for Inactive)
REMARK    1  A    between atoms: N1_1  and  C1_2 
REMARK    2  A    between atoms: C3_5  and  N2_6 
REMARK    3  A    between atoms: C4_8  and  C5_9 
REMARK    4  A    between atoms: C12_17  and  C13_18 
ROOT
HETATM    1  N2  UNL     1      25.209   1.163  52.593  1.00  0.00    -0.236 N 
HETATM    2  N3  UNL     1      24.984   2.385  51.964  1.00  0.00    -0.173 NA
HETATM    3  C4  UNL     1      25.795   2.640  50.996  1.00  0.00     0.067 C 
HETATM    4  C11 UNL     1      26.714   1.460  50.957  1.00  0.00     0.094 C 
HETATM    5  C12 UNL     1      26.638   1.053  52.440  1.00  0.00     0.151 C 
ENDROOT
BRANCH   1   6
HETATM    6  C3  UNL     1      24.079   0.422  53.146  1.00  0.00     0.192 A 
HETATM    7  S1  UNL     1      22.294   0.328  52.534  1.00  0.00    -0.059 SA
HETATM    8  C2  UNL     1      21.902  -0.841  53.974  1.00  0.00     0.103 A 
HETATM    9  C1  UNL     1      23.110  -0.961  54.638  1.00  0.00     0.130 A 
HETATM   10  N4  UNL     1      23.994  -0.242  54.021  1.00  0.00    -0.205 NA
BRANCH   9  11
HETATM   11  N1  UNL     1      23.194  -1.792  55.795  1.00  0.00    -0.384 N 
HETATM   12  H1  UNL     1      22.575  -2.630  55.820  1.00  0.00     0.157 HD
HETATM   13  H2  UNL     1      23.901  -1.436  56.512  1.00  0.00     0.157 HD
ENDBRANCH   9  11
ENDBRANCH   1   6
BRANCH   5  14
HETATM   14  C13 UNL     1      27.241  -0.233  52.670  1.00  0.00    -0.033 A 
HETATM   15  C14 UNL     1      26.806  -1.542  52.407  1.00  0.00     0.009 A 
HETATM   16  C15 UNL     1      27.694  -2.527  52.735  1.00  0.00     0.001 A 
HETATM   17  C16 UNL     1      28.946  -2.419  53.286  1.00  0.00     0.000 A 
HETATM   18  C17 UNL     1      29.363  -1.119  53.541  1.00  0.00     0.001 A 
HETATM   19  C18 UNL     1      28.511  -0.047  53.233  1.00  0.00     0.009 A 
ENDBRANCH   5  14
BRANCH   3  20
HETATM   20  C5  UNL     1      25.697   3.895  50.220  1.00  0.00    -0.010 A 
HETATM   21  C6  UNL     1      26.811   4.202  49.483  1.00  0.00     0.015 A 
HETATM   22  C7  UNL     1      26.843   5.370  48.711  1.00  0.00     0.024 A 
HETATM   23  C8  UNL     1      25.703   6.145  48.760  1.00  0.00     0.034 A 
HETATM   24 CL1  UNL     1      25.599   7.635  47.855  1.00  0.00    -0.084 Cl
HETATM   25  C9  UNL     1      24.584   5.852  49.490  1.00  0.00     0.024 A 
HETATM   26  C10 UNL     1      24.568   4.680  50.257  1.00  0.00     0.015 A 
ENDBRANCH   3  20
TORSDOF 4
ENDMDL
MODEL 7
REMARK VINA RESULT:      -8.7      3.250      4.842
REMARK  4 active torsions:
REMARK  status: ('A' for Active; 'I' for Inactive)
REMARK    1  A    between atoms: N1_1  and  C1_2 
REMARK    2  A    between atoms: C3_5  and  N2_6 
REMARK    3  A    between atoms: C4_8  and  C5_9 
REMARK    4  A    between atoms: C12_17  and  C13_18 
ROOT
HETATM    1  N2  UNL     1      24.320   2.999  50.309  1.00  0.00    -0.236 N 
HETATM    2  N3  UNL     1      24.815   4.091  49.600  1.00  0.00    -0.173 NA
HETATM    3  C4  UNL     1      26.101   4.166  49.573  1.00  0.00     0.067 C 
HETATM    4  C11 UNL     1      26.561   2.993  50.380  1.00  0.00     0.094 C 
HETATM    5  C12 UNL     1      25.344   2.856  51.312  1.00  0.00     0.151 C 
ENDROOT
BRANCH   1   6
HETATM    6  C3  UNL     1      23.072   2.374  49.882  1.00  0.00     0.192 A 
HETATM    7  S1  UNL     1      22.300   2.291  48.159  1.00  0.00    -0.059 SA
HETATM    8  C2  UNL     1      20.857   1.306  48.893  1.00  0.00     0.103 A 
HETATM    9  C1  UNL     1      21.176   1.207  50.236  1.00  0.00     0.130 A 
HETATM   10  N4  UNL     1      22.302   1.814  50.439  1.00  0.00    -0.205 NA
BRANCH   9  11
HETATM   11  N1  UNL     1      20.297   0.505  51.115  1.00  0.00    -0.384 N 
HETATM   12  H1  UNL     1      20.624  -0.419  51.469  1.00  0.00     0.157 HD
HETATM   13  H2  UNL     1      19.388   1.033  51.301  1.00  0.00     0.157 HD
ENDBRANCH   9  11
ENDBRANCH   1   6
BRANCH   5  14
HETATM   14  C13 UNL     1      25.383   1.629  52.063  1.00  0.00    -0.033 A 
HETATM   15  C14 UNL     1      24.521   1.083  53.028  1.00  0.00     0.009 A 
HETATM   16  C15 UNL     1      24.877  -0.150  53.493  1.00  0.00     0.001 A 
HETATM   17  C16 UNL     1      25.953  -0.931  53.153  1.00  0.00     0.000 A 
HETATM   18  C17 UNL     1      26.797  -0.378  52.198  1.00  0.00     0.001 A 
HETATM   19  C18 UNL     1      26.505   0.888  51.667  1.00  0.00     0.009 A 
ENDBRANCH   5  14
BRANCH   3  20
HETATM   20  C5  UNL     1      26.793   5.263  48.863  1.00  0.00    -0.010 A 
HETATM   21  C6  UNL     1      28.121   5.033  48.608  1.00  0.00     0.015 A 
HETATM   22  C7  UNL     1      28.887   6.003  47.949  1.00  0.00     0.024 A 
HETATM   23  C8  UNL     1      28.214   7.153  47.597  1.00  0.00     0.034 A 
HETATM   24 CL1  UNL     1      29.040   8.453  46.774  1.00  0.00    -0.084 Cl
HETATM   25  C9  UNL     1      26.890   7.396  47.843  1.00  0.00     0.024 A 
HETATM   26  C10 UNL     1      26.137   6.418  48.504  1.00  0.00     0.015 A 
ENDBRANCH   3  20
TORSDOF 4
ENDMDL
MODEL 8
REMARK VINA RESULT:      -8.5      4.012      6.644
REMARK  4 active torsions:
REMARK  status: ('A' for Active; 'I' for Inactive)
REMARK    1  A    between atoms: N1_1  and  C1_2 
REMARK    2  A    between atoms: C3_5  and  N2_6 
REMARK    3  A    between atoms: C4_8  and  C5_9 
REMARK    4  A    between atoms: C12_17  and  C13_18 
ROOT
HETATM    1  N2  UNL     1      23.703   3.088  52.033  1.00  0.00    -0.236 N 
HETATM    2  N3  UNL     1      24.986   2.683  52.395  1.00  0.00    -0.173 NA
HETATM    3  C4  UNL     1      25.152   1.406  52.416  1.00  0.00     0.067 C 
HETATM    4  C11 UNL     1      23.814   0.849  52.044  1.00  0.00     0.094 C 
HETATM    5  C12 UNL     1      22.928   1.995  52.563  1.00  0.00     0.151 C 
ENDROOT
BRANCH   1   6
HETATM    6  C3  UNL     1      23.527   4.337  51.298  1.00  0.00     0.192 A 
HETATM    7  S1  UNL     1      22.666   4.643  49.644  1.00  0.00    -0.059 SA
HETATM    8  C2  UNL     1      23.089   6.483  49.807  1.00  0.00     0.103 A 
HETATM    9  C1  UNL     1      23.768   6.559  51.010  1.00  0.00     0.130 A 
HETATM   10  N4  UNL     1      23.837   5.371  51.521  1.00  0.00    -0.205 NA
BRANCH   9  11
HETATM   11  N1  UNL     1      24.239   7.826  51.469  1.00  0.00    -0.384 N 
HETATM   12  H1  UNL     1      24.236   7.985  52.499  1.00  0.00     0.157 HD
HETATM   13  H2  UNL     1      24.542   8.469  50.673  1.00  0.00     0.157 HD
ENDBRANCH   9  11
ENDBRANCH   1   6
BRANCH   5  14
HETATM   14  C13 UNL     1      21.566   1.860  52.119  1.00  0.00    -0.033 A 
HETATM   15  C14 UNL     1      20.362   2.420  52.576  1.00  0.00     0.009 A 
HETATM   16  C15 UNL     1      19.253   2.081  51.856  1.00  0.00     0.001 A 
HETATM   17  C16 UNL     1      19.147   1.272  50.752  1.00  0.00     0.000 A 
HETATM   18  C17 UNL     1      20.345   0.725  50.312  1.00  0.00     0.001 A 
HETATM   19  C18 UNL     1      21.534   1.022  50.996  1.00  0.00     0.009 A 
ENDBRANCH   5  14
BRANCH   3  20
HETATM   20  C5  UNL     1      26.453   0.804  52.779  1.00  0.00    -0.010 A 
HETATM   21  C6  UNL     1      26.523  -0.555  52.612  1.00  0.00     0.015 A 
HETATM   22  C7  UNL     1      27.702  -1.241  52.929  1.00  0.00     0.024 A 
HETATM   23  C8  UNL     1      28.735  -0.460  53.401  1.00  0.00     0.034 A 
HETATM   24 CL1  UNL     1      30.265  -1.178  53.843  1.00  0.00    -0.084 Cl
HETATM   25  C9  UNL     1      28.681   0.896  53.572  1.00  0.00     0.024 A 
HETATM   26  C10 UNL     1      27.495   1.568  53.251  1.00  0.00     0.015 A 
ENDBRANCH   3  20
TORSDOF 4
ENDMDL
MODEL 9
REMARK VINA RESULT:      -8.2      1.941      2.471
REMARK  4 active torsions:
REMARK  status: ('A' for Active; 'I' for Inactive)
REMARK    1  A    between atoms: N1_1  and  C1_2 
REMARK    2  A    between atoms: C3_5  and  N2_6 
REMARK    3  A    between atoms: C4_8  and  C5_9 
REMARK    4  A    between atoms: C12_17  and  C13_18 
ROOT
HETATM    1  N2  UNL     1      25.499   2.218  51.467  1.00  0.00    -0.236 N 
HETATM    2  N3  UNL     1      26.264   3.071  50.675  1.00  0.00    -0.173 NA
HETATM    3  C4  UNL     1      25.610   4.063  50.179  1.00  0.00     0.067 C 
HETATM    4  C11 UNL     1      24.209   3.868  50.666  1.00  0.00     0.094 C 
HETATM    5  C12 UNL     1      24.220   2.336  50.811  1.00  0.00     0.151 C 
ENDROOT
BRANCH   1   6
HETATM    6  C3  UNL     1      26.120   1.543  52.602  1.00  0.00     0.192 A 
HETATM    7  S1  UNL     1      27.867   1.730  53.298  1.00  0.00    -0.059 SA
HETATM    8  C2  UNL     1      27.437   0.445  54.622  1.00  0.00     0.103 A 
HETATM    9  C1  UNL     1      26.125   0.107  54.338  1.00  0.00     0.130 A 
HETATM   10  N4  UNL     1      25.736   0.790  53.309  1.00  0.00    -0.205 NA
BRANCH   9  11
HETATM   11  N1  UNL     1      25.455  -0.851  55.158  1.00  0.00    -0.384 N 
HETATM   12  H1  UNL     1      24.484  -0.620  55.457  1.00  0.00     0.157 HD
HETATM   13  H2  UNL     1      26.056  -1.708  55.369  1.00  0.00     0.157 HD
ENDBRANCH   9  11
ENDBRANCH   1   6
BRANCH   5  14
HETATM   14  C13 UNL     1      23.058   1.859  51.514  1.00  0.00    -0.033 A 
HETATM   15  C14 UNL     1      22.692   0.585  51.979  1.00  0.00     0.009 A 
HETATM   16  C15 UNL     1      21.506   0.532  52.653  1.00  0.00     0.001 A 
HETATM   17  C16 UNL     1      20.624   1.543  52.941  1.00  0.00     0.000 A 
HETATM   18  C17 UNL     1      20.999   2.796  52.475  1.00  0.00     0.001 A 
HETATM   19  C18 UNL     1      22.205   2.940  51.770  1.00  0.00     0.009 A 
ENDBRANCH   5  14
BRANCH   3  20
HETATM   20  C5  UNL     1      26.269   5.066  49.315  1.00  0.00    -0.010 A 
HETATM   21  C6  UNL     1      27.558   4.759  48.962  1.00  0.00     0.015 A 
HETATM   22  C7  UNL     1      28.291   5.635  48.151  1.00  0.00     0.024 A 
HETATM   23  C8  UNL     1      27.628   6.779  47.761  1.00  0.00     0.034 A 
HETATM   24 CL1  UNL     1      28.417   7.968  46.754  1.00  0.00    -0.084 Cl
HETATM   25  C9  UNL     1      26.343   7.098  48.104  1.00  0.00     0.024 A 
HETATM   26  C10 UNL     1      25.622   6.212  48.916  1.00  0.00     0.015 A 
ENDBRANCH   3  20
TORSDOF 4
ENDMDL
