MODEL 1
REMARK VINA RESULT:      -9.4      0.000      0.000
REMARK  1 active torsions:
REMARK  status: ('A' for Active; 'I' for Inactive)
REMARK    1  A    between atoms: C4_5  and  N1_6 
ROOT
HETATM    1  N1  UNL     1      24.351   1.907  51.371  1.00  0.00    -0.254 N 
HETATM    2  N2  UNL     1      24.591   2.885  50.400  1.00  0.00    -0.287 N 
HETATM    3  C5  UNL     1      25.866   3.487  50.135  1.00  0.00     0.227 A 
HETATM    4  N3  UNL     1      26.865   3.106  50.836  1.00  0.00    -0.216 NA
HETATM    5  C6  UNL     1      26.722   2.104  51.863  1.00  0.00     0.197 A 
HETATM    6  C7  UNL     1      25.517   1.566  52.082  1.00  0.00     0.115 A 
HETATM    7  C8  UNL     1      25.257   0.562  53.135  1.00  0.00     0.334 C 
HETATM    8  N4  UNL     1      25.975  -0.625  52.781  1.00  0.00     0.103 N 
HETATM    9  C9  UNL     1      27.264  -0.659  53.397  1.00  0.00     0.300 C 
HETATM   10  C10 UNL     1      28.007  -1.892  53.008  1.00  0.00     0.011 C 
HETATM   11  C11 UNL     1      29.306  -2.057  53.226  1.00  0.00    -0.024 C 
HETATM   12  C12 UNL     1      29.954  -0.894  53.897  1.00  0.00     0.056 C 
HETATM   13  C13 UNL     1      29.434   0.387  53.320  1.00  0.00     0.012 C 
HETATM   14  C14 UNL     1      28.130   0.504  53.076  1.00  0.00     0.089 C 
HETATM   15  O1  UNL     1      27.922   1.795  52.544  1.00  0.00    -0.292 OA
HETATM   16  H3  UNL     1      23.816   3.256  49.776  1.00  0.00     0.188 HD
HETATM   17  H7  UNL     1      25.439  -1.442  53.089  1.00  0.00     0.317 HD
ENDROOT
BRANCH   1  18
HETATM   18  C4  UNL     1      23.058   1.407  51.523  1.00  0.00     0.058 A 
HETATM   19  C3  UNL     1      22.377   1.327  50.301  1.00  0.00     0.034 A 
HETATM   20  C2  UNL     1      21.085   0.841  50.198  1.00  0.00     0.046 A 
HETATM   21  C1  UNL     1      20.414   0.411  51.322  1.00  0.00     0.138 A 
HETATM   22  F1  UNL     1      19.153  -0.085  51.356  1.00  0.00    -0.204 F 
HETATM   23  C16 UNL     1      21.069   0.480  52.533  1.00  0.00     0.074 A 
HETATM   24  C15 UNL     1      22.355   0.965  52.626  1.00  0.00     0.058 A 
HETATM   25 CL1  UNL     1      20.298  -0.044  54.017  1.00  0.00    -0.081 Cl
ENDBRANCH   1  18
TORSDOF 1
ENDMDL
MODEL 2
REMARK VINA RESULT:      -9.0      2.415      3.566
REMARK  1 active torsions:
REMARK  status: ('A' for Active; 'I' for Inactive)
REMARK    1  A    between atoms: C4_5  and  N1_6 
ROOT
HETATM    1  N1  UNL     1      22.864   0.308  53.294  1.00  0.00    -0.254 N 
HETATM    2  N2  UNL     1      22.224  -0.367  54.339  1.00  0.00    -0.287 N 
HETATM    3  C5  UNL     1      22.881  -1.181  55.319  1.00  0.00     0.227 A 
HETATM    4  N3  UNL     1      24.152  -1.305  55.240  1.00  0.00    -0.216 NA
HETATM    5  C6  UNL     1      24.905  -0.651  54.199  1.00  0.00     0.197 A 
HETATM    6  C7  UNL     1      24.256   0.099  53.302  1.00  0.00     0.115 A 
HETATM    7  C8  UNL     1      24.930   0.780  52.175  1.00  0.00     0.334 C 
HETATM    8  N4  UNL     1      25.789   1.781  52.732  1.00  0.00     0.103 N 
HETATM    9  C9  UNL     1      27.116   1.286  52.919  1.00  0.00     0.300 C 
HETATM   10  C10 UNL     1      27.995   2.333  53.513  1.00  0.00     0.011 C 
HETATM   11  C11 UNL     1      29.194   2.074  54.022  1.00  0.00    -0.024 C 
HETATM   12  C12 UNL     1      29.580   0.636  53.944  1.00  0.00     0.056 C 
HETATM   13  C13 UNL     1      28.403  -0.230  54.279  1.00  0.00     0.012 C 
HETATM   14  C14 UNL     1      27.208   0.083  53.784  1.00  0.00     0.089 C 
HETATM   15  O1  UNL     1      26.298  -0.889  54.254  1.00  0.00    -0.292 OA
HETATM   16  H3  UNL     1      21.172  -0.316  54.476  1.00  0.00     0.188 HD
HETATM   17  H7  UNL     1      25.820   2.583  52.094  1.00  0.00     0.317 HD
ENDROOT
BRANCH   1  18
HETATM   18  C4  UNL     1      22.100   1.067  52.409  1.00  0.00     0.058 A 
HETATM   19  C3  UNL     1      21.442   0.269  51.464  1.00  0.00     0.034 A 
HETATM   20  C2  UNL     1      20.608   0.797  50.493  1.00  0.00     0.046 A 
HETATM   21  C1  UNL     1      20.396   2.156  50.425  1.00  0.00     0.138 A 
HETATM   22  F1  UNL     1      19.607   2.796  49.528  1.00  0.00    -0.204 F 
HETATM   23  C16 UNL     1      21.034   2.957  51.348  1.00  0.00     0.074 A 
HETATM   24  C15 UNL     1      21.862   2.423  52.311  1.00  0.00     0.058 A 
HETATM   25 CL1  UNL     1      20.826   4.698  51.342  1.00  0.00    -0.081 Cl
ENDBRANCH   1  18
TORSDOF 1
ENDMDL
MODEL 3
REMARK VINA RESULT:      -8.8      3.132      4.130
REMARK  1 active torsions:
REMARK  status: ('A' for Active; 'I' for Inactive)
REMARK    1  A    between atoms: C4_5  and  N1_6 
ROOT
HETATM    1  N1  UNL     1      23.218   1.907  52.108  1.00  0.00    -0.254 N 
HETATM    2  N2  UNL     1      22.222   1.178  52.764  1.00  0.00    -0.287 N 
HETATM    3  C5  UNL     1      22.436  -0.038  53.494  1.00  0.00     0.227 A 
HETATM    4  N3  UNL     1      23.628  -0.497  53.555  1.00  0.00    -0.216 NA
HETATM    5  C6  UNL     1      24.726   0.181  52.912  1.00  0.00     0.197 A 
HETATM    6  C7  UNL     1      24.487   1.311  52.239  1.00  0.00     0.115 A 
HETATM    7  C8  UNL     1      25.534   2.060  51.513  1.00  0.00     0.334 C 
HETATM    8  N4  UNL     1      26.454   2.565  52.488  1.00  0.00     0.103 N 
HETATM    9  C9  UNL     1      27.553   1.675  52.680  1.00  0.00     0.300 C 
HETATM   10  C10 UNL     1      28.493   2.205  53.709  1.00  0.00     0.011 C 
HETATM   11  C11 UNL     1      29.454   1.474  54.263  1.00  0.00    -0.024 C 
HETATM   12  C12 UNL     1      29.506   0.072  53.759  1.00  0.00     0.056 C 
HETATM   13  C13 UNL     1      28.117  -0.473  53.616  1.00  0.00     0.012 C 
HETATM   14  C14 UNL     1      27.169   0.301  53.093  1.00  0.00     0.089 C 
HETATM   15  O1  UNL     1      25.978  -0.457  53.076  1.00  0.00    -0.292 OA
HETATM   16  H3  UNL     1      21.206   1.490  52.762  1.00  0.00     0.188 HD
HETATM   17  H7  UNL     1      26.811   3.471  52.169  1.00  0.00     0.317 HD
ENDROOT
BRANCH   1  18
HETATM   18  C4  UNL     1      22.869   3.076  51.432  1.00  0.00     0.058 A 
HETATM   19  C3  UNL     1      22.592   4.130  52.313  1.00  0.00     0.034 A 
HETATM   20  C2  UNL     1      22.243   5.396  51.875  1.00  0.00     0.046 A 
HETATM   21  C1  UNL     1      22.155   5.664  50.526  1.00  0.00     0.138 A 
HETATM   22  F1  UNL     1      21.825   6.854  49.970  1.00  0.00    -0.204 F 
HETATM   23  C16 UNL     1      22.426   4.639  49.645  1.00  0.00     0.074 A 
HETATM   24  C15 UNL     1      22.773   3.382  50.090  1.00  0.00     0.058 A 
HETATM   25 CL1  UNL     1      22.341   4.883  47.911  1.00  0.00    -0.081 Cl
ENDBRANCH   1  18
TORSDOF 1
ENDMDL
MODEL 4
REMARK VINA RESULT:      -8.5      2.152      5.026
REMARK  1 active torsions:
REMARK  status: ('A' for Active; 'I' for Inactive)
REMARK    1  A    between atoms: C4_5  and  N1_6 
ROOT
HETATM    1  N1  UNL     1      25.120   1.047  52.719  1.00  0.00    -0.254 N 
HETATM    2  N2  UNL     1      26.242   0.807  53.519  1.00  0.00    -0.287 N 
HETATM    3  C5  UNL     1      27.542   1.372  53.305  1.00  0.00     0.227 A 
HETATM    4  N3  UNL     1      27.697   2.158  52.308  1.00  0.00    -0.216 NA
HETATM    5  C6  UNL     1      26.603   2.469  51.422  1.00  0.00     0.197 A 
HETATM    6  C7  UNL     1      25.405   1.922  51.653  1.00  0.00     0.115 A 
HETATM    7  C8  UNL     1      24.231   2.145  50.784  1.00  0.00     0.334 C 
HETATM    8  N4  UNL     1      23.875   3.528  50.892  1.00  0.00     0.103 N 
HETATM    9  C9  UNL     1      24.488   4.308  49.865  1.00  0.00     0.300 C 
HETATM   10  C10 UNL     1      24.123   5.747  49.999  1.00  0.00     0.011 C 
HETATM   11  C11 UNL     1      24.744   6.720  49.344  1.00  0.00    -0.024 C 
HETATM   12  C12 UNL     1      25.844   6.240  48.460  1.00  0.00     0.056 C 
HETATM   13  C13 UNL     1      26.625   5.164  49.150  1.00  0.00     0.012 C 
HETATM   14  C14 UNL     1      25.971   4.226  49.832  1.00  0.00     0.089 C 
HETATM   15  O1  UNL     1      26.941   3.353  50.371  1.00  0.00    -0.292 OA
HETATM   16  H3  UNL     1      26.199   0.168  54.366  1.00  0.00     0.188 HD
HETATM   17  H7  UNL     1      22.857   3.616  50.813  1.00  0.00     0.317 HD
ENDROOT
BRANCH   1  18
HETATM   18  C4  UNL     1      23.912   0.430  53.042  1.00  0.00     0.058 A 
HETATM   19  C3  UNL     1      24.042  -0.444  54.130  1.00  0.00     0.034 A 
HETATM   20  C2  UNL     1      22.973  -1.156  54.646  1.00  0.00     0.046 A 
HETATM   21  C1  UNL     1      21.719  -1.024  54.092  1.00  0.00     0.138 A 
HETATM   22  F1  UNL     1      20.595  -1.660  54.502  1.00  0.00    -0.204 F 
HETATM   23  C16 UNL     1      21.572  -0.167  53.022  1.00  0.00     0.074 A 
HETATM   24  C15 UNL     1      22.641   0.538  52.515  1.00  0.00     0.058 A 
HETATM   25 CL1  UNL     1      20.015   0.068  52.250  1.00  0.00    -0.081 Cl
ENDBRANCH   1  18
TORSDOF 1
ENDMDL
MODEL 5
REMARK VINA RESULT:      -8.4      3.846      5.225
REMARK  1 active torsions:
REMARK  status: ('A' for Active; 'I' for Inactive)
REMARK    1  A    between atoms: C4_5  and  N1_6 
ROOT
HETATM    1  N1  UNL     1      24.219   3.582  51.142  1.00  0.00    -0.254 N 
HETATM    2  N2  UNL     1      22.886   3.262  51.420  1.00  0.00    -0.287 N 
HETATM    3  C5  UNL     1      22.430   2.003  51.932  1.00  0.00     0.227 A 
HETATM    4  N3  UNL     1      23.303   1.096  52.155  1.00  0.00    -0.216 NA
HETATM    5  C6  UNL     1      24.704   1.325  51.901  1.00  0.00     0.197 A 
HETATM    6  C7  UNL     1      25.091   2.513  51.422  1.00  0.00     0.115 A 
HETATM    7  C8  UNL     1      26.495   2.835  51.092  1.00  0.00     0.334 C 
HETATM    8  N4  UNL     1      27.235   2.832  52.318  1.00  0.00     0.103 N 
HETATM    9  C9  UNL     1      27.832   1.558  52.564  1.00  0.00     0.300 C 
HETATM   10  C10 UNL     1      28.586   1.564  53.851  1.00  0.00     0.011 C 
HETATM   11  C11 UNL     1      29.020   0.459  54.445  1.00  0.00    -0.024 C 
HETATM   12  C12 UNL     1      28.684  -0.791  53.705  1.00  0.00     0.056 C 
HETATM   13  C13 UNL     1      27.287  -0.710  53.169  1.00  0.00     0.012 C 
HETATM   14  C14 UNL     1      26.872   0.427  52.615  1.00  0.00     0.089 C 
HETATM   15  O1  UNL     1      25.537   0.222  52.202  1.00  0.00    -0.292 OA
HETATM   16  H3  UNL     1      22.099   3.958  51.263  1.00  0.00     0.188 HD
HETATM   17  H7  UNL     1      27.974   3.540  52.261  1.00  0.00     0.317 HD
ENDROOT
BRANCH   1  18
HETATM   18  C4  UNL     1      24.523   4.849  50.645  1.00  0.00     0.058 A 
HETATM   19  C3  UNL     1      23.888   5.865  51.371  1.00  0.00     0.034 A 
HETATM   20  C2  UNL     1      24.055   7.207  51.077  1.00  0.00     0.046 A 
HETATM   21  C1  UNL     1      24.870   7.593  50.035  1.00  0.00     0.138 A 
HETATM   22  F1  UNL     1      25.117   8.867  49.646  1.00  0.00    -0.204 F 
HETATM   23  C16 UNL     1      25.504   6.607  49.310  1.00  0.00     0.074 A 
HETATM   24  C15 UNL     1      25.332   5.273  49.611  1.00  0.00     0.058 A 
HETATM   25 CL1  UNL     1      26.560   6.999  47.967  1.00  0.00    -0.081 Cl
ENDBRANCH   1  18
TORSDOF 1
ENDMDL
MODEL 6
REMARK VINA RESULT:      -8.4      4.663      6.514
REMARK  1 active torsions:
REMARK  status: ('A' for Active; 'I' for Inactive)
REMARK    1  A    between atoms: C4_5  and  N1_6 
ROOT
HETATM    1  N1  UNL     1      25.166   4.586  49.417  1.00  0.00    -0.254 N 
HETATM    2  N2  UNL     1      23.868   5.076  49.240  1.00  0.00    -0.287 N 
HETATM    3  C5  UNL     1      22.676   4.443  49.724  1.00  0.00     0.227 A 
HETATM    4  N3  UNL     1      22.800   3.346  50.369  1.00  0.00    -0.216 NA
HETATM    5  C6  UNL     1      24.095   2.756  50.603  1.00  0.00     0.197 A 
HETATM    6  C7  UNL     1      25.184   3.375  50.135  1.00  0.00     0.115 A 
HETATM    7  C8  UNL     1      26.552   2.835  50.288  1.00  0.00     0.334 C 
HETATM    8  N4  UNL     1      26.864   2.850  51.686  1.00  0.00     0.103 N 
HETATM    9  C9  UNL     1      26.555   1.599  52.303  1.00  0.00     0.300 C 
HETATM   10  C10 UNL     1      26.869   1.633  53.760  1.00  0.00     0.011 C 
HETATM   11  C11 UNL     1      26.451   0.710  54.617  1.00  0.00    -0.024 C 
HETATM   12  C12 UNL     1      25.635  -0.367  53.986  1.00  0.00     0.056 C 
HETATM   13  C13 UNL     1      24.695   0.224  52.979  1.00  0.00     0.012 C 
HETATM   14  C14 UNL     1      25.138   1.177  52.163  1.00  0.00     0.089 C 
HETATM   15  O1  UNL     1      24.058   1.544  51.331  1.00  0.00    -0.292 OA
HETATM   16  H3  UNL     1      23.678   5.981  48.718  1.00  0.00     0.188 HD
HETATM   17  H7  UNL     1      27.865   3.038  51.800  1.00  0.00     0.317 HD
ENDROOT
BRANCH   1  18
HETATM   18  C4  UNL     1      26.240   5.304  48.891  1.00  0.00     0.058 A 
HETATM   19  C3  UNL     1      25.879   6.615  48.550  1.00  0.00     0.034 A 
HETATM   20  C2  UNL     1      26.783   7.525  48.029  1.00  0.00     0.046 A 
HETATM   21  C1  UNL     1      28.095   7.160  47.824  1.00  0.00     0.138 A 
HETATM   22  F1  UNL     1      29.074   7.952  47.323  1.00  0.00    -0.204 F 
HETATM   23  C16 UNL     1      28.469   5.875  48.156  1.00  0.00     0.074 A 
HETATM   24  C15 UNL     1      27.563   4.976  48.675  1.00  0.00     0.058 A 
HETATM   25 CL1  UNL     1      30.116   5.318  47.932  1.00  0.00    -0.081 Cl
ENDBRANCH   1  18
TORSDOF 1
ENDMDL
MODEL 7
REMARK VINA RESULT:      -8.3      3.650      5.435
REMARK  1 active torsions:
REMARK  status: ('A' for Active; 'I' for Inactive)
REMARK    1  A    between atoms: C4_5  and  N1_6 
ROOT
HETATM    1  N1  UNL     1      22.318   1.478  51.107  1.00  0.00    -0.254 N 
HETATM    2  N2  UNL     1      21.280   1.081  50.257  1.00  0.00    -0.287 N 
HETATM    3  C5  UNL     1      20.872   1.782  49.074  1.00  0.00     0.227 A 
HETATM    4  N3  UNL     1      21.500   2.852  48.765  1.00  0.00    -0.216 NA
HETATM    5  C6  UNL     1      22.584   3.345  49.577  1.00  0.00     0.197 A 
HETATM    6  C7  UNL     1      22.936   2.666  50.674  1.00  0.00     0.115 A 
HETATM    7  C8  UNL     1      24.006   3.107  51.593  1.00  0.00     0.334 C 
HETATM    8  N4  UNL     1      25.243   3.036  50.874  1.00  0.00     0.103 N 
HETATM    9  C9  UNL     1      25.569   4.289  50.270  1.00  0.00     0.300 C 
HETATM   10  C10 UNL     1      26.850   4.197  49.512  1.00  0.00     0.011 C 
HETATM   11  C11 UNL     1      27.257   5.125  48.655  1.00  0.00    -0.024 C 
HETATM   12  C12 UNL     1      26.312   6.270  48.520  1.00  0.00     0.056 C 
HETATM   13  C13 UNL     1      24.900   5.771  48.491  1.00  0.00     0.012 C 
HETATM   14  C14 UNL     1      24.537   4.810  49.339  1.00  0.00     0.089 C 
HETATM   15  O1  UNL     1      23.173   4.538  49.096  1.00  0.00    -0.292 OA
HETATM   16  H3  UNL     1      20.709   0.205  50.442  1.00  0.00     0.188 HD
HETATM   17  H7  UNL     1      25.991   2.777  51.526  1.00  0.00     0.317 HD
ENDROOT
BRANCH   1  18
HETATM   18  C4  UNL     1      22.610   0.701  52.228  1.00  0.00     0.058 A 
HETATM   19  C3  UNL     1      21.451   0.216  52.849  1.00  0.00     0.034 A 
HETATM   20  C2  UNL     1      21.489  -0.596  53.969  1.00  0.00     0.046 A 
HETATM   21  C1  UNL     1      22.698  -0.960  54.521  1.00  0.00     0.138 A 
HETATM   22  F1  UNL     1      22.871  -1.746  55.611  1.00  0.00    -0.204 F 
HETATM   23  C16 UNL     1      23.849  -0.494  53.923  1.00  0.00     0.074 A 
HETATM   24  C15 UNL     1      23.801   0.314  52.807  1.00  0.00     0.058 A 
HETATM   25 CL1  UNL     1      25.433  -0.903  54.552  1.00  0.00    -0.081 Cl
ENDBRANCH   1  18
TORSDOF 1
ENDMDL
MODEL 8
REMARK VINA RESULT:      -8.3      3.572      6.583
REMARK  1 active torsions:
REMARK  status: ('A' for Active; 'I' for Inactive)
REMARK    1  A    between atoms: C4_5  and  N1_6 
ROOT
HETATM    1  N1  UNL     1      25.780   1.806  52.007  1.00  0.00    -0.254 N 
HETATM    2  N2  UNL     1      25.875   3.118  51.531  1.00  0.00    -0.287 N 
HETATM    3  C5  UNL     1      24.791   3.873  50.973  1.00  0.00     0.227 A 
HETATM    4  N3  UNL     1      23.645   3.311  50.901  1.00  0.00    -0.216 NA
HETATM    5  C6  UNL     1      23.442   1.960  51.363  1.00  0.00     0.197 A 
HETATM    6  C7  UNL     1      24.478   1.287  51.877  1.00  0.00     0.115 A 
HETATM    7  C8  UNL     1      24.384  -0.113  52.343  1.00  0.00     0.334 C 
HETATM    8  N4  UNL     1      23.514  -0.128  53.480  1.00  0.00     0.103 N 
HETATM    9  C9  UNL     1      22.166  -0.411  53.104  1.00  0.00     0.300 C 
HETATM   10  C10 UNL     1      21.269  -0.408  54.295  1.00  0.00     0.011 C 
HETATM   11  C11 UNL     1      19.945  -0.389  54.209  1.00  0.00    -0.024 C 
HETATM   12  C12 UNL     1      19.436  -0.371  52.808  1.00  0.00     0.056 C 
HETATM   13  C13 UNL     1      20.269   0.551  51.971  1.00  0.00     0.012 C 
HETATM   14  C14 UNL     1      21.593   0.534  52.112  1.00  0.00     0.089 C 
HETATM   15  O1  UNL     1      22.117   1.488  51.213  1.00  0.00    -0.292 OA
HETATM   16  H3  UNL     1      26.791   3.656  51.555  1.00  0.00     0.188 HD
HETATM   17  H7  UNL     1      23.836  -0.850  54.133  1.00  0.00     0.317 HD
ENDROOT
BRANCH   1  18
HETATM   18  C4  UNL     1      26.917   1.188  52.526  1.00  0.00     0.058 A 
HETATM   19  C3  UNL     1      27.772   2.103  53.155  1.00  0.00     0.034 A 
HETATM   20  C2  UNL     1      28.955   1.721  53.764  1.00  0.00     0.046 A 
HETATM   21  C1  UNL     1      29.337   0.398  53.769  1.00  0.00     0.138 A 
HETATM   22  F1  UNL     1      30.465  -0.104  54.327  1.00  0.00    -0.204 F 
HETATM   23  C16 UNL     1      28.508  -0.517  53.156  1.00  0.00     0.074 A 
HETATM   24  C15 UNL     1      27.331  -0.128  52.553  1.00  0.00     0.058 A 
HETATM   25 CL1  UNL     1      28.908  -2.223  53.111  1.00  0.00    -0.081 Cl
ENDBRANCH   1  18
TORSDOF 1
ENDMDL
MODEL 9
REMARK VINA RESULT:      -8.0      3.729      6.971
REMARK  1 active torsions:
REMARK  status: ('A' for Active; 'I' for Inactive)
REMARK    1  A    between atoms: C4_5  and  N1_6 
ROOT
HETATM    1  N1  UNL     1      23.287   2.949  52.135  1.00  0.00    -0.254 N 
HETATM    2  N2  UNL     1      23.121   4.336  52.187  1.00  0.00    -0.287 N 
HETATM    3  C5  UNL     1      21.897   5.030  51.910  1.00  0.00     0.227 A 
HETATM    4  N3  UNL     1      20.873   4.335  51.589  1.00  0.00    -0.216 NA
HETATM    5  C6  UNL     1      20.941   2.897  51.506  1.00  0.00     0.197 A 
HETATM    6  C7  UNL     1      22.100   2.285  51.770  1.00  0.00     0.115 A 
HETATM    7  C8  UNL     1      22.284   0.821  51.676  1.00  0.00     0.334 C 
HETATM    8  N4  UNL     1      21.472   0.221  52.691  1.00  0.00     0.103 N 
HETATM    9  C9  UNL     1      20.188  -0.145  52.185  1.00  0.00     0.300 C 
HETATM   10  C10 UNL     1      19.348  -0.754  53.256  1.00  0.00     0.011 C 
HETATM   11  C11 UNL     1      18.041  -0.950  53.133  1.00  0.00    -0.024 C 
HETATM   12  C12 UNL     1      17.489  -0.504  51.821  1.00  0.00     0.056 C 
HETATM   13  C13 UNL     1      18.108   0.801  51.421  1.00  0.00     0.012 C 
HETATM   14  C14 UNL     1      19.415   0.978  51.597  1.00  0.00     0.089 C 
HETATM   15  O1  UNL     1      19.722   2.278  51.140  1.00  0.00    -0.292 OA
HETATM   16  H3  UNL     1      23.920   4.986  52.445  1.00  0.00     0.188 HD
HETATM   17  H7  UNL     1      21.944  -0.620  53.039  1.00  0.00     0.317 HD
ENDROOT
BRANCH   1  18
HETATM   18  C4  UNL     1      24.536   2.404  52.429  1.00  0.00     0.058 A 
HETATM   19  C3  UNL     1      25.481   2.686  51.433  1.00  0.00     0.034 A 
HETATM   20  C2  UNL     1      26.798   2.267  51.514  1.00  0.00     0.046 A 
HETATM   21  C1  UNL     1      27.229   1.542  52.603  1.00  0.00     0.138 A 
HETATM   22  F1  UNL     1      28.485   1.075  52.803  1.00  0.00    -0.204 F 
HETATM   23  C16 UNL     1      26.314   1.256  53.593  1.00  0.00     0.074 A 
HETATM   24  C15 UNL     1      25.005   1.678  53.505  1.00  0.00     0.058 A 
HETATM   25 CL1  UNL     1      26.768   0.339  55.017  1.00  0.00    -0.081 Cl
ENDBRANCH   1  18
TORSDOF 1
ENDMDL
