MODEL 1
REMARK VINA RESULT:      -7.3      0.000      0.000
REMARK  7 active torsions:
REMARK  status: ('A' for Active; 'I' for Inactive)
REMARK    1  A    between atoms: O1_2  and  C2_3 
REMARK    2  A    between atoms: C2_3  and  C3_4 
REMARK    3  A    between atoms: C3_4  and  O2_22 
REMARK    4  A    between atoms: C4_5  and  C5_6 
REMARK    5  A    between atoms: C6_7  and  N1_8 
REMARK    6  A    between atoms: N1_8  and  C7_9 
REMARK    7  A    between atoms: C15_19  and  S1_20 
ROOT
HETATM    1  C5  UNL     1      24.277   0.852  52.537  1.00  0.00     0.029 A 
HETATM    2  C6  UNL     1      24.342   1.714  51.465  1.00  0.00     0.047 A 
HETATM    3  C13 UNL     1      23.237   1.998  50.696  1.00  0.00     0.050 A 
HETATM    4  C14 UNL     1      22.089   1.353  51.095  1.00  0.00     0.120 A 
HETATM    5  N2  UNL     1      21.967   0.505  52.130  1.00  0.00    -0.253 NA
HETATM    6  C15 UNL     1      23.057   0.238  52.871  1.00  0.00     0.105 A 
ENDROOT
BRANCH   2   7
HETATM    7  N1  UNL     1      25.546   2.379  51.135  1.00  0.00    -0.355 N 
HETATM    8  H7  UNL     1      26.542   2.117  51.282  1.00  0.00     0.166 HD
BRANCH   7   9
HETATM    9  C7  UNL     1      25.714   3.620  50.503  1.00  0.00     0.033 A 
HETATM   10  C8  UNL     1      26.728   3.604  49.548  1.00  0.00     0.029 A 
HETATM   11  C9  UNL     1      27.040   4.756  48.834  1.00  0.00     0.004 A 
HETATM   12  C10 UNL     1      26.375   5.961  49.025  1.00  0.00     0.019 A 
HETATM   13  C11 UNL     1      25.368   5.952  49.981  1.00  0.00     0.013 A 
HETATM   14 BR1  UNL     1      24.348   7.527  50.374  1.00  0.00    -0.051 Br
HETATM   15  C12 UNL     1      25.048   4.816  50.697  1.00  0.00     0.048 A 
ENDBRANCH   7   9
ENDBRANCH   2   7
BRANCH   1  16
HETATM   16  C4  UNL     1      25.419   0.498  53.327  1.00  0.00     0.051 C 
HETATM   17  C3  UNL     1      26.517   0.879  53.944  1.00  0.00     0.070 C 
BRANCH  17  18
HETATM   18  C2  UNL     1      27.534   0.147  54.729  1.00  0.00     0.231 C 
BRANCH  18  19
HETATM   19  O1  UNL     1      27.887  -0.993  54.023  1.00  0.00    -0.390 OA
HETATM   20  C1  UNL     1      29.265  -1.018  53.762  1.00  0.00     0.201 C 
ENDBRANCH  18  19
ENDBRANCH  17  18
BRANCH  17  21
HETATM   21  O2  UNL     1      26.979   2.216  53.967  1.00  0.00    -0.358 OA
HETATM   22  C17 UNL     1      28.298   2.480  53.496  1.00  0.00     0.209 C 
ENDBRANCH  17  21
ENDBRANCH   1  16
BRANCH   6  23
HETATM   23  S1  UNL     1      22.990  -0.865  54.276  1.00  0.00    -0.114 SA
HETATM   24  C16 UNL     1      21.308  -1.507  54.458  1.00  0.00     0.097 C 
ENDBRANCH   6  23
TORSDOF 7
ENDMDL
MODEL 2
REMARK VINA RESULT:      -6.7      3.572      5.868
REMARK  7 active torsions:
REMARK  status: ('A' for Active; 'I' for Inactive)
REMARK    1  A    between atoms: O1_2  and  C2_3 
REMARK    2  A    between atoms: C2_3  and  C3_4 
REMARK    3  A    between atoms: C3_4  and  O2_22 
REMARK    4  A    between atoms: C4_5  and  C5_6 
REMARK    5  A    between atoms: C6_7  and  N1_8 
REMARK    6  A    between atoms: N1_8  and  C7_9 
REMARK    7  A    between atoms: C15_19  and  S1_20 
ROOT
HETATM    1  C5  UNL     1      22.345  -0.133  52.980  1.00  0.00     0.029 A 
HETATM    2  C6  UNL     1      23.652  -0.275  53.386  1.00  0.00     0.047 A 
HETATM    3  C13 UNL     1      23.979  -0.878  54.579  1.00  0.00     0.050 A 
HETATM    4  C14 UNL     1      22.897  -1.314  55.307  1.00  0.00     0.120 A 
HETATM    5  N2  UNL     1      21.604  -1.204  54.961  1.00  0.00    -0.253 NA
HETATM    6  C15 UNL     1      21.301  -0.612  53.791  1.00  0.00     0.105 A 
ENDROOT
BRANCH   2   7
HETATM    7  N1  UNL     1      24.722   0.158  52.568  1.00  0.00    -0.355 N 
HETATM    8  H7  UNL     1      24.775   0.354  51.547  1.00  0.00     0.166 HD
BRANCH   7   9
HETATM    9  C7  UNL     1      26.046   0.441  52.937  1.00  0.00     0.033 A 
HETATM   10  C8  UNL     1      26.254   1.792  53.202  1.00  0.00     0.029 A 
HETATM   11  C9  UNL     1      27.514   2.252  53.568  1.00  0.00     0.004 A 
HETATM   12  C10 UNL     1      28.613   1.411  53.690  1.00  0.00     0.019 A 
HETATM   13  C11 UNL     1      28.382   0.068  53.422  1.00  0.00     0.013 A 
HETATM   14 BR1  UNL     1      29.786  -1.232  53.541  1.00  0.00    -0.051 Br
HETATM   15  C12 UNL     1      27.136  -0.401  53.056  1.00  0.00     0.048 A 
ENDBRANCH   7   9
ENDBRANCH   2   7
BRANCH   1  16
HETATM   16  C4  UNL     1      21.969   0.533  51.767  1.00  0.00     0.051 C 
HETATM   17  C3  UNL     1      22.289   1.369  50.802  1.00  0.00     0.070 C 
BRANCH  17  18
HETATM   18  C2  UNL     1      21.562   1.849  49.607  1.00  0.00     0.231 C 
BRANCH  18  19
HETATM   19  O1  UNL     1      20.392   2.461  50.031  1.00  0.00    -0.390 OA
HETATM   20  C1  UNL     1      19.264   1.764  49.572  1.00  0.00     0.201 C 
ENDBRANCH  18  19
ENDBRANCH  17  18
BRANCH  17  21
HETATM   21  O2  UNL     1      23.532   2.039  50.727  1.00  0.00    -0.358 OA
HETATM   22  C17 UNL     1      23.595   3.393  51.168  1.00  0.00     0.209 C 
ENDBRANCH  17  21
ENDBRANCH   1  16
BRANCH   6  23
HETATM   23  S1  UNL     1      19.611  -0.433  53.239  1.00  0.00    -0.114 SA
HETATM   24  C16 UNL     1      18.667  -1.907  53.698  1.00  0.00     0.097 C 
ENDBRANCH   6  23
TORSDOF 7
ENDMDL
MODEL 3
REMARK VINA RESULT:      -6.7      3.448      5.841
REMARK  7 active torsions:
REMARK  status: ('A' for Active; 'I' for Inactive)
REMARK    1  A    between atoms: O1_2  and  C2_3 
REMARK    2  A    between atoms: C2_3  and  C3_4 
REMARK    3  A    between atoms: C3_4  and  O2_22 
REMARK    4  A    between atoms: C4_5  and  C5_6 
REMARK    5  A    between atoms: C6_7  and  N1_8 
REMARK    6  A    between atoms: N1_8  and  C7_9 
REMARK    7  A    between atoms: C15_19  and  S1_20 
ROOT
HETATM    1  C5  UNL     1      24.063   2.307  51.327  1.00  0.00     0.029 A 
HETATM    2  C6  UNL     1      25.399   2.390  51.647  1.00  0.00     0.047 A 
HETATM    3  C13 UNL     1      26.316   2.953  50.790  1.00  0.00     0.050 A 
HETATM    4  C14 UNL     1      25.780   3.414  49.611  1.00  0.00     0.120 A 
HETATM    5  N2  UNL     1      24.488   3.360  49.246  1.00  0.00    -0.253 NA
HETATM    6  C15 UNL     1      23.604   2.807  50.095  1.00  0.00     0.105 A 
ENDROOT
BRANCH   2   7
HETATM    7  N1  UNL     1      25.879   1.935  52.898  1.00  0.00    -0.355 N 
HETATM    8  H7  UNL     1      25.494   2.028  53.861  1.00  0.00     0.166 HD
BRANCH   7   9
HETATM    9  C7  UNL     1      27.052   1.217  53.176  1.00  0.00     0.033 A 
HETATM   10  C8  UNL     1      28.076   2.027  53.662  1.00  0.00     0.029 A 
HETATM   11  C9  UNL     1      29.315   1.481  53.976  1.00  0.00     0.004 A 
HETATM   12  C10 UNL     1      29.599   0.129  53.829  1.00  0.00     0.019 A 
HETATM   13  C11 UNL     1      28.563  -0.659  53.343  1.00  0.00     0.013 A 
HETATM   14 BR1  UNL     1      28.781  -2.544  53.077  1.00  0.00    -0.051 Br
HETATM   15  C12 UNL     1      27.328  -0.129  53.026  1.00  0.00     0.048 A 
ENDBRANCH   7   9
ENDBRANCH   2   7
BRANCH   1  16
HETATM   16  C4  UNL     1      23.090   1.683  52.175  1.00  0.00     0.051 C 
HETATM   17  C3  UNL     1      22.751   0.655  52.923  1.00  0.00     0.070 C 
BRANCH  17  18
HETATM   18  C2  UNL     1      21.542   0.347  53.717  1.00  0.00     0.231 C 
BRANCH  18  19
HETATM   19  O1  UNL     1      20.818  -0.625  53.044  1.00  0.00    -0.390 OA
HETATM   20  C1  UNL     1      19.470  -0.612  53.435  1.00  0.00     0.201 C 
ENDBRANCH  18  19
ENDBRANCH  17  18
BRANCH  17  21
HETATM   21  O2  UNL     1      23.576  -0.475  53.122  1.00  0.00    -0.358 OA
HETATM   22  C17 UNL     1      24.042  -0.745  54.441  1.00  0.00     0.209 C 
ENDBRANCH  17  21
ENDBRANCH   1  16
BRANCH   6  23
HETATM   23  S1  UNL     1      21.863   2.704  49.704  1.00  0.00    -0.114 SA
HETATM   24  C16 UNL     1      21.573   1.290  48.612  1.00  0.00     0.097 C 
ENDBRANCH   6  23
TORSDOF 7
ENDMDL
MODEL 4
REMARK VINA RESULT:      -6.6      3.391      5.693
REMARK  7 active torsions:
REMARK  status: ('A' for Active; 'I' for Inactive)
REMARK    1  A    between atoms: O1_2  and  C2_3 
REMARK    2  A    between atoms: C2_3  and  C3_4 
REMARK    3  A    between atoms: C3_4  and  O2_22 
REMARK    4  A    between atoms: C4_5  and  C5_6 
REMARK    5  A    between atoms: C6_7  and  N1_8 
REMARK    6  A    between atoms: N1_8  and  C7_9 
REMARK    7  A    between atoms: C15_19  and  S1_20 
ROOT
HETATM    1  C5  UNL     1      22.806   1.257  52.295  1.00  0.00     0.029 A 
HETATM    2  C6  UNL     1      23.976   0.632  52.663  1.00  0.00     0.047 A 
HETATM    3  C13 UNL     1      23.999  -0.365  53.610  1.00  0.00     0.050 A 
HETATM    4  C14 UNL     1      22.766  -0.670  54.139  1.00  0.00     0.120 A 
HETATM    5  N2  UNL     1      21.595  -0.097  53.819  1.00  0.00    -0.253 NA
HETATM    6  C15 UNL     1      21.591   0.877  52.891  1.00  0.00     0.105 A 
ENDROOT
BRANCH   2   7
HETATM    7  N1  UNL     1      25.206   0.965  52.047  1.00  0.00    -0.355 N 
HETATM    8  H7  UNL     1      25.428   1.312  51.091  1.00  0.00     0.166 HD
BRANCH   7   9
HETATM    9  C7  UNL     1      26.499   0.902  52.586  1.00  0.00     0.033 A 
HETATM   10  C8  UNL     1      26.980   2.150  52.977  1.00  0.00     0.029 A 
HETATM   11  C9  UNL     1      28.254   2.274  53.520  1.00  0.00     0.004 A 
HETATM   12  C10 UNL     1      29.101   1.189  53.703  1.00  0.00     0.019 A 
HETATM   13  C11 UNL     1      28.601  -0.045  53.307  1.00  0.00     0.013 A 
HETATM   14 BR1  UNL     1      29.635  -1.649  53.486  1.00  0.00    -0.051 Br
HETATM   15  C12 UNL     1      27.338  -0.182  52.765  1.00  0.00     0.048 A 
ENDBRANCH   7   9
ENDBRANCH   2   7
BRANCH   1  16
HETATM   16  C4  UNL     1      22.756   2.332  51.348  1.00  0.00     0.051 C 
HETATM   17  C3  UNL     1      23.340   3.384  50.815  1.00  0.00     0.070 C 
BRANCH  17  18
HETATM   18  C2  UNL     1      22.930   4.331  49.756  1.00  0.00     0.231 C 
BRANCH  18  19
HETATM   19  O1  UNL     1      21.635   4.746  50.025  1.00  0.00    -0.390 OA
HETATM   20  C1  UNL     1      21.631   5.893  50.834  1.00  0.00     0.201 C 
ENDBRANCH  18  19
ENDBRANCH  17  18
BRANCH  17  21
HETATM   21  O2  UNL     1      24.615   3.854  51.207  1.00  0.00    -0.358 OA
HETATM   22  C17 UNL     1      25.520   4.273  50.189  1.00  0.00     0.209 C 
ENDBRANCH  17  21
ENDBRANCH   1  16
BRANCH   6  23
HETATM   23  S1  UNL     1      20.079   1.689  52.388  1.00  0.00    -0.114 SA
HETATM   24  C16 UNL     1      19.056   0.529  51.449  1.00  0.00     0.097 C 
ENDBRANCH   6  23
TORSDOF 7
ENDMDL
MODEL 5
REMARK VINA RESULT:      -6.5      3.042      5.375
REMARK  7 active torsions:
REMARK  status: ('A' for Active; 'I' for Inactive)
REMARK    1  A    between atoms: O1_2  and  C2_3 
REMARK    2  A    between atoms: C2_3  and  C3_4 
REMARK    3  A    between atoms: C3_4  and  O2_22 
REMARK    4  A    between atoms: C4_5  and  C5_6 
REMARK    5  A    between atoms: C6_7  and  N1_8 
REMARK    6  A    between atoms: N1_8  and  C7_9 
REMARK    7  A    between atoms: C15_19  and  S1_20 
ROOT
HETATM    1  C5  UNL     1      22.652   1.469  51.310  1.00  0.00     0.029 A 
HETATM    2  C6  UNL     1      22.920   1.191  52.631  1.00  0.00     0.047 A 
HETATM    3  C13 UNL     1      22.095   0.389  53.385  1.00  0.00     0.050 A 
HETATM    4  C14 UNL     1      21.003  -0.097  52.704  1.00  0.00     0.120 A 
HETATM    5  N2  UNL     1      20.692   0.140  51.420  1.00  0.00    -0.253 NA
HETATM    6  C15 UNL     1      21.509   0.926  50.696  1.00  0.00     0.105 A 
ENDROOT
BRANCH   2   7
HETATM    7  N1  UNL     1      24.087   1.689  53.259  1.00  0.00    -0.355 N 
HETATM    8  H7  UNL     1      24.252   2.543  53.830  1.00  0.00     0.166 HD
BRANCH   7   9
HETATM    9  C7  UNL     1      25.377   1.138  53.268  1.00  0.00     0.033 A 
HETATM   10  C8  UNL     1      25.407  -0.170  52.790  1.00  0.00     0.029 A 
HETATM   11  C9  UNL     1      26.605  -0.874  52.743  1.00  0.00     0.004 A 
HETATM   12  C10 UNL     1      27.813  -0.328  53.158  1.00  0.00     0.019 A 
HETATM   13  C11 UNL     1      27.759   0.977  53.630  1.00  0.00     0.013 A 
HETATM   14 BR1  UNL     1      29.331   1.885  54.244  1.00  0.00    -0.051 Br
HETATM   15  C12 UNL     1      26.576   1.687  53.683  1.00  0.00     0.048 A 
ENDBRANCH   7   9
ENDBRANCH   2   7
BRANCH   1  16
HETATM   16  C4  UNL     1      23.464   2.340  50.511  1.00  0.00     0.051 C 
HETATM   17  C3  UNL     1      24.187   3.436  50.431  1.00  0.00     0.070 C 
BRANCH  17  18
HETATM   18  C2  UNL     1      24.942   4.062  49.324  1.00  0.00     0.231 C 
BRANCH  18  19
HETATM   19  O1  UNL     1      26.084   4.643  49.854  1.00  0.00    -0.390 OA
HETATM   20  C1  UNL     1      27.131   4.641  48.919  1.00  0.00     0.201 C 
ENDBRANCH  18  19
ENDBRANCH  17  18
BRANCH  17  21
HETATM   21  O2  UNL     1      24.394   4.320  51.516  1.00  0.00    -0.358 OA
HETATM   22  C17 UNL     1      23.280   5.065  51.999  1.00  0.00     0.209 C 
ENDBRANCH  17  21
ENDBRANCH   1  16
BRANCH   6  23
HETATM   23  S1  UNL     1      21.186   1.286  48.975  1.00  0.00    -0.114 SA
HETATM   24  C16 UNL     1      19.783   2.422  48.851  1.00  0.00     0.097 C 
ENDBRANCH   6  23
TORSDOF 7
ENDMDL
MODEL 6
REMARK VINA RESULT:      -6.4      3.756      6.698
REMARK  7 active torsions:
REMARK  status: ('A' for Active; 'I' for Inactive)
REMARK    1  A    between atoms: O1_2  and  C2_3 
REMARK    2  A    between atoms: C2_3  and  C3_4 
REMARK    3  A    between atoms: C3_4  and  O2_22 
REMARK    4  A    between atoms: C4_5  and  C5_6 
REMARK    5  A    between atoms: C6_7  and  N1_8 
REMARK    6  A    between atoms: N1_8  and  C7_9 
REMARK    7  A    between atoms: C15_19  and  S1_20 
ROOT
HETATM    1  C5  UNL     1      23.359   0.332  53.339  1.00  0.00     0.029 A 
HETATM    2  C6  UNL     1      22.114   0.142  53.894  1.00  0.00     0.047 A 
HETATM    3  C13 UNL     1      21.908  -0.747  54.923  1.00  0.00     0.050 A 
HETATM    4  C14 UNL     1      23.041  -1.411  55.333  1.00  0.00     0.120 A 
HETATM    5  N2  UNL     1      24.277  -1.266  54.830  1.00  0.00    -0.253 NA
HETATM    6  C15 UNL     1      24.462  -0.392  53.824  1.00  0.00     0.105 A 
ENDROOT
BRANCH   2   7
HETATM    7  N1  UNL     1      20.996   0.890  53.454  1.00  0.00    -0.355 N 
HETATM    8  H7  UNL     1      20.733   1.887  53.598  1.00  0.00     0.166 HD
BRANCH   7   9
HETATM    9  C7  UNL     1      19.905   0.461  52.684  1.00  0.00     0.033 A 
HETATM   10  C8  UNL     1      19.887   1.031  51.413  1.00  0.00     0.029 A 
HETATM   11  C9  UNL     1      18.865   0.727  50.521  1.00  0.00     0.004 A 
HETATM   12  C10 UNL     1      17.828  -0.143  50.835  1.00  0.00     0.019 A 
HETATM   13  C11 UNL     1      17.868  -0.699  52.107  1.00  0.00     0.013 A 
HETATM   14 BR1  UNL     1      16.517  -1.920  52.707  1.00  0.00    -0.051 Br
HETATM   15  C12 UNL     1      18.876  -0.405  53.003  1.00  0.00     0.048 A 
ENDBRANCH   7   9
ENDBRANCH   2   7
BRANCH   1  16
HETATM   16  C4  UNL     1      23.598   1.214  52.234  1.00  0.00     0.051 C 
HETATM   17  C3  UNL     1      23.458   2.411  51.705  1.00  0.00     0.070 C 
BRANCH  17  18
HETATM   18  C2  UNL     1      23.883   2.994  50.414  1.00  0.00     0.231 C 
BRANCH  18  19
HETATM   19  O1  UNL     1      25.186   3.449  50.554  1.00  0.00    -0.390 OA
HETATM   20  C1  UNL     1      25.354   4.696  49.933  1.00  0.00     0.201 C 
ENDBRANCH  18  19
ENDBRANCH  17  18
BRANCH  17  21
HETATM   21  O2  UNL     1      22.794   3.480  52.350  1.00  0.00    -0.358 OA
HETATM   22  C17 UNL     1      21.773   4.169  51.633  1.00  0.00     0.209 C 
ENDBRANCH  17  21
ENDBRANCH   1  16
BRANCH   6  23
HETATM   23  S1  UNL     1      26.074  -0.120  53.100  1.00  0.00    -0.114 SA
HETATM   24  C16 UNL     1      26.834  -1.714  52.705  1.00  0.00     0.097 C 
ENDBRANCH   6  23
TORSDOF 7
ENDMDL
MODEL 7
REMARK VINA RESULT:      -6.3      3.676      6.580
REMARK  7 active torsions:
REMARK  status: ('A' for Active; 'I' for Inactive)
REMARK    1  A    between atoms: O1_2  and  C2_3 
REMARK    2  A    between atoms: C2_3  and  C3_4 
REMARK    3  A    between atoms: C3_4  and  O2_22 
REMARK    4  A    between atoms: C4_5  and  C5_6 
REMARK    5  A    between atoms: C6_7  and  N1_8 
REMARK    6  A    between atoms: N1_8  and  C7_9 
REMARK    7  A    between atoms: C15_19  and  S1_20 
ROOT
HETATM    1  C5  UNL     1      23.765   3.742  51.076  1.00  0.00     0.029 A 
HETATM    2  C6  UNL     1      24.858   2.964  50.768  1.00  0.00     0.047 A 
HETATM    3  C13 UNL     1      25.955   3.481  50.119  1.00  0.00     0.050 A 
HETATM    4  C14 UNL     1      25.855   4.819  49.815  1.00  0.00     0.120 A 
HETATM    5  N2  UNL     1      24.816   5.624  50.090  1.00  0.00    -0.253 NA
HETATM    6  C15 UNL     1      23.751   5.103  50.726  1.00  0.00     0.105 A 
ENDROOT
BRANCH   2   7
HETATM    7  N1  UNL     1      24.916   1.602  51.149  1.00  0.00    -0.355 N 
HETATM    8  H7  UNL     1      24.462   0.755  50.751  1.00  0.00     0.166 HD
BRANCH   7   9
HETATM    9  C7  UNL     1      25.624   1.020  52.210  1.00  0.00     0.033 A 
HETATM   10  C8  UNL     1      24.787   0.480  53.184  1.00  0.00     0.029 A 
HETATM   11  C9  UNL     1      25.323  -0.125  54.315  1.00  0.00     0.004 A 
HETATM   12  C10 UNL     1      26.691  -0.225  54.537  1.00  0.00     0.019 A 
HETATM   13  C11 UNL     1      27.505   0.321  53.553  1.00  0.00     0.013 A 
HETATM   14 BR1  UNL     1      29.416   0.272  53.696  1.00  0.00    -0.051 Br
HETATM   15  C12 UNL     1      26.987   0.925  52.425  1.00  0.00     0.048 A 
ENDBRANCH   7   9
ENDBRANCH   2   7
BRANCH   1  16
HETATM   16  C4  UNL     1      22.586   3.223  51.707  1.00  0.00     0.051 C 
HETATM   17  C3  UNL     1      21.743   2.224  51.856  1.00  0.00     0.070 C 
BRANCH  17  18
HETATM   18  C2  UNL     1      20.527   2.051  52.682  1.00  0.00     0.231 C 
BRANCH  18  19
HETATM   19  O1  UNL     1      19.789   3.223  52.614  1.00  0.00    -0.390 OA
HETATM   20  C1  UNL     1      18.870   3.179  51.554  1.00  0.00     0.201 C 
ENDBRANCH  18  19
ENDBRANCH  17  18
BRANCH  17  21
HETATM   21  O2  UNL     1      21.858   0.992  51.172  1.00  0.00    -0.358 OA
HETATM   22  C17 UNL     1      21.488   0.949  49.797  1.00  0.00     0.209 C 
ENDBRANCH  17  21
ENDBRANCH   1  16
BRANCH   6  23
HETATM   23  S1  UNL     1      22.328   6.100  51.147  1.00  0.00    -0.114 SA
HETATM   24  C16 UNL     1      21.111   6.007  49.812  1.00  0.00     0.097 C 
ENDBRANCH   6  23
TORSDOF 7
ENDMDL
MODEL 8
REMARK VINA RESULT:      -6.3      1.672      2.354
REMARK  7 active torsions:
REMARK  status: ('A' for Active; 'I' for Inactive)
REMARK    1  A    between atoms: O1_2  and  C2_3 
REMARK    2  A    between atoms: C2_3  and  C3_4 
REMARK    3  A    between atoms: C3_4  and  O2_22 
REMARK    4  A    between atoms: C4_5  and  C5_6 
REMARK    5  A    between atoms: C6_7  and  N1_8 
REMARK    6  A    between atoms: N1_8  and  C7_9 
REMARK    7  A    between atoms: C15_19  and  S1_20 
ROOT
HETATM    1  C5  UNL     1      23.288   1.086  51.925  1.00  0.00     0.029 A 
HETATM    2  C6  UNL     1      23.181   1.824  50.768  1.00  0.00     0.047 A 
HETATM    3  C13 UNL     1      22.077   1.734  49.951  1.00  0.00     0.050 A 
HETATM    4  C14 UNL     1      21.115   0.857  50.395  1.00  0.00     0.120 A 
HETATM    5  N2  UNL     1      21.166   0.113  51.512  1.00  0.00    -0.253 NA
HETATM    6  C15 UNL     1      22.252   0.213  52.300  1.00  0.00     0.105 A 
ENDROOT
BRANCH   2   7
HETATM    7  N1  UNL     1      24.189   2.742  50.391  1.00  0.00    -0.355 N 
HETATM    8  H7  UNL     1      25.194   2.607  50.158  1.00  0.00     0.166 HD
BRANCH   7   9
HETATM    9  C7  UNL     1      24.091   4.133  50.236  1.00  0.00     0.033 A 
HETATM   10  C8  UNL     1      23.978   4.803  51.452  1.00  0.00     0.029 A 
HETATM   11  C9  UNL     1      23.856   6.188  51.483  1.00  0.00     0.004 A 
HETATM   12  C10 UNL     1      23.841   6.967  50.333  1.00  0.00     0.019 A 
HETATM   13  C11 UNL     1      23.955   6.277  49.133  1.00  0.00     0.013 A 
HETATM   14 BR1  UNL     1      23.952   7.192  47.449  1.00  0.00    -0.051 Br
HETATM   15  C12 UNL     1      24.076   4.902  49.087  1.00  0.00     0.048 A 
ENDBRANCH   7   9
ENDBRANCH   2   7
BRANCH   1  16
HETATM   16  C4  UNL     1      24.445   1.120  52.771  1.00  0.00     0.051 C 
HETATM   17  C3  UNL     1      25.687   0.743  52.986  1.00  0.00     0.070 C 
BRANCH  17  18
HETATM   18  C2  UNL     1      26.642   1.008  54.085  1.00  0.00     0.231 C 
BRANCH  18  19
HETATM   19  O1  UNL     1      27.090   2.314  53.961  1.00  0.00    -0.390 OA
HETATM   20  C1  UNL     1      28.441   2.349  53.584  1.00  0.00     0.201 C 
ENDBRANCH  18  19
ENDBRANCH  17  18
BRANCH  17  21
HETATM   21  O2  UNL     1      26.419  -0.085  52.103  1.00  0.00    -0.358 OA
HETATM   22  C17 UNL     1      26.811  -1.377  52.560  1.00  0.00     0.209 C 
ENDBRANCH  17  21
ENDBRANCH   1  16
BRANCH   6  23
HETATM   23  S1  UNL     1      22.403  -0.725  53.814  1.00  0.00    -0.114 SA
HETATM   24  C16 UNL     1      20.805  -1.465  54.226  1.00  0.00     0.097 C 
ENDBRANCH   6  23
TORSDOF 7
ENDMDL
MODEL 9
REMARK VINA RESULT:      -6.3      1.556      2.166
REMARK  7 active torsions:
REMARK  status: ('A' for Active; 'I' for Inactive)
REMARK    1  A    between atoms: O1_2  and  C2_3 
REMARK    2  A    between atoms: C2_3  and  C3_4 
REMARK    3  A    between atoms: C3_4  and  O2_22 
REMARK    4  A    between atoms: C4_5  and  C5_6 
REMARK    5  A    between atoms: C6_7  and  N1_8 
REMARK    6  A    between atoms: N1_8  and  C7_9 
REMARK    7  A    between atoms: C15_19  and  S1_20 
ROOT
HETATM    1  C5  UNL     1      24.466   1.960  51.253  1.00  0.00     0.029 A 
HETATM    2  C6  UNL     1      24.719   2.770  50.169  1.00  0.00     0.047 A 
HETATM    3  C13 UNL     1      23.731   3.113  49.275  1.00  0.00     0.050 A 
HETATM    4  C14 UNL     1      22.496   2.580  49.565  1.00  0.00     0.120 A 
HETATM    5  N2  UNL     1      22.193   1.786  50.605  1.00  0.00    -0.253 NA
HETATM    6  C15 UNL     1      23.170   1.461  51.470  1.00  0.00     0.105 A 
ENDROOT
BRANCH   2   7
HETATM    7  N1  UNL     1      26.004   3.322  49.953  1.00  0.00    -0.355 N 
HETATM    8  H7  UNL     1      26.956   2.911  50.047  1.00  0.00     0.166 HD
BRANCH   7   9
HETATM    9  C7  UNL     1      26.340   4.621  49.546  1.00  0.00     0.033 A 
HETATM   10  C8  UNL     1      27.488   4.658  48.758  1.00  0.00     0.029 A 
HETATM   11  C9  UNL     1      27.974   5.869  48.279  1.00  0.00     0.004 A 
HETATM   12  C10 UNL     1      27.359   7.085  48.550  1.00  0.00     0.019 A 
HETATM   13  C11 UNL     1      26.216   7.024  49.337  1.00  0.00     0.013 A 
HETATM   14 BR1  UNL     1      25.240   8.605  49.809  1.00  0.00    -0.051 Br
HETATM   15  C12 UNL     1      25.723   5.828  49.820  1.00  0.00     0.048 A 
ENDBRANCH   7   9
ENDBRANCH   2   7
BRANCH   1  16
HETATM   16  C4  UNL     1      25.483   1.545  52.175  1.00  0.00     0.051 C 
HETATM   17  C3  UNL     1      26.374   0.644  52.528  1.00  0.00     0.070 C 
BRANCH  17  18
HETATM   18  C2  UNL     1      27.328   0.563  53.656  1.00  0.00     0.231 C 
BRANCH  18  19
HETATM   19  O1  UNL     1      26.689   1.023  54.797  1.00  0.00    -0.390 OA
HETATM   20  C1  UNL     1      25.969  -0.007  55.421  1.00  0.00     0.201 C 
ENDBRANCH  18  19
ENDBRANCH  17  18
BRANCH  17  21
HETATM   21  O2  UNL     1      26.606  -0.553  51.811  1.00  0.00    -0.358 OA
HETATM   22  C17 UNL     1      27.064  -1.693  52.533  1.00  0.00     0.209 C 
ENDBRANCH  17  21
ENDBRANCH   1  16
BRANCH   6  23
HETATM   23  S1  UNL     1      22.859   0.423  52.892  1.00  0.00    -0.114 SA
HETATM   24  C16 UNL     1      21.156   0.667  53.454  1.00  0.00     0.097 C 
ENDBRANCH   6  23
TORSDOF 7
ENDMDL
