MODEL 1
REMARK VINA RESULT:      -9.1      0.000      0.000
REMARK  4 active torsions:
REMARK  status: ('A' for Active; 'I' for Inactive)
REMARK    1  A    between atoms: C5_5  and  C6_6 
REMARK    2  A    between atoms: N2_8  and  C7_9 
REMARK    3  A    between atoms: C8_11  and  O1_12 
REMARK    4  A    between atoms: C10_15  and  C11_16 
ROOT
HETATM    1  C6  UNL     1      26.172   2.852  51.084  1.00  0.00     0.067 C 
HETATM    2  N1  UNL     1      27.079   2.384  51.882  1.00  0.00    -0.173 NA
HETATM    3  N2  UNL     1      26.641   1.259  52.584  1.00  0.00    -0.236 N 
HETATM    4  C10 UNL     1      25.244   1.615  52.748  1.00  0.00     0.151 C 
HETATM    5  C16 UNL     1      24.964   1.945  51.267  1.00  0.00     0.094 C 
ENDROOT
BRANCH   1   6
HETATM    6  C5  UNL     1      26.218   3.990  50.185  1.00  0.00    -0.010 A 
HETATM    7  C4  UNL     1      27.281   4.208  49.337  1.00  0.00     0.014 A 
HETATM    8  C3  UNL     1      27.251   5.316  48.504  1.00  0.00     0.007 A 
HETATM    9  C2  UNL     1      26.151   6.188  48.534  1.00  0.00    -0.062 A 
HETATM   10  C1  UNL     1      26.046   7.391  47.669  1.00  0.00     0.048 C 
HETATM   11  C18 UNL     1      25.066   5.972  49.391  1.00  0.00     0.007 A 
HETATM   12  C17 UNL     1      25.127   4.847  50.220  1.00  0.00     0.014 A 
ENDBRANCH   1   6
BRANCH   3  13
HETATM   13  C7  UNL     1      27.606   0.222  52.893  1.00  0.00     0.192 A 
HETATM   14  N3  UNL     1      27.475  -0.933  52.711  1.00  0.00    -0.198 NA
HETATM   15  C8  UNL     1      28.363  -1.854  53.015  1.00  0.00     0.171 A 
HETATM   16  C9  UNL     1      29.549  -1.530  53.588  1.00  0.00     0.111 A 
HETATM   17  S1  UNL     1      29.325   0.362  53.688  1.00  0.00    -0.058 SA
BRANCH  15  18
HETATM   18  O1  UNL     1      28.146  -3.231  52.769  1.00  0.00    -0.344 OA
HETATM   19  H6  UNL     1      29.010  -3.787  52.822  1.00  0.00     0.219 HD
ENDBRANCH  15  18
ENDBRANCH   3  13
BRANCH   4  20
HETATM   20  C11 UNL     1      24.395   0.554  53.280  1.00  0.00    -0.032 C 
HETATM   21  C12 UNL     1      24.336  -0.475  54.122  1.00  0.00     0.010 C 
HETATM   22  C13 UNL     1      22.998  -1.095  54.070  1.00  0.00     0.013 C 
HETATM   23  C14 UNL     1      22.286  -0.223  53.378  1.00  0.00    -0.025 C 
HETATM   24  C15 UNL     1      23.045   0.604  52.671  1.00  0.00     0.021 C 
ENDBRANCH   4  20
TORSDOF 4
ENDMDL
MODEL 2
REMARK VINA RESULT:      -8.7      2.175      4.009
REMARK  4 active torsions:
REMARK  status: ('A' for Active; 'I' for Inactive)
REMARK    1  A    between atoms: C5_5  and  C6_6 
REMARK    2  A    between atoms: N2_8  and  C7_9 
REMARK    3  A    between atoms: C8_11  and  O1_12 
REMARK    4  A    between atoms: C10_15  and  C11_16 
ROOT
HETATM    1  C6  UNL     1      25.666   2.440  51.317  1.00  0.00     0.067 C 
HETATM    2  N1  UNL     1      24.874   1.477  51.667  1.00  0.00    -0.173 NA
HETATM    3  N2  UNL     1      25.510   0.536  52.480  1.00  0.00    -0.236 N 
HETATM    4  C10 UNL     1      26.838   0.585  51.900  1.00  0.00     0.151 C 
HETATM    5  C16 UNL     1      27.007   2.117  51.958  1.00  0.00     0.094 C 
ENDROOT
BRANCH   1   6
HETATM    6  C5  UNL     1      25.409   3.605  50.491  1.00  0.00    -0.010 A 
HETATM    7  C4  UNL     1      24.179   4.227  50.468  1.00  0.00     0.014 A 
HETATM    8  C3  UNL     1      24.011   5.338  49.657  1.00  0.00     0.007 A 
HETATM    9  C2  UNL     1      25.082   5.811  48.880  1.00  0.00    -0.062 A 
HETATM   10  C1  UNL     1      24.978   6.996  47.992  1.00  0.00     0.048 C 
HETATM   11  C18 UNL     1      26.334   5.186  48.899  1.00  0.00     0.007 A 
HETATM   12  C17 UNL     1      26.472   4.066  49.727  1.00  0.00     0.014 A 
ENDBRANCH   1   6
BRANCH   3  13
HETATM   13  C7  UNL     1      24.731  -0.116  53.516  1.00  0.00     0.192 A 
HETATM   14  N3  UNL     1      25.119  -0.453  54.575  1.00  0.00    -0.198 NA
HETATM   15  C8  UNL     1      24.393  -1.056  55.490  1.00  0.00     0.171 A 
HETATM   16  C9  UNL     1      23.086  -1.350  55.276  1.00  0.00     0.111 A 
HETATM   17  S1  UNL     1      22.909  -0.649  53.510  1.00  0.00    -0.058 SA
BRANCH  15  18
HETATM   18  O1  UNL     1      24.918  -1.437  56.748  1.00  0.00    -0.344 OA
HETATM   19  H6  UNL     1      25.252  -2.410  56.764  1.00  0.00     0.219 HD
ENDBRANCH  15  18
ENDBRANCH   3  13
BRANCH   4  20
HETATM   20  C11 UNL     1      27.863  -0.143  52.642  1.00  0.00    -0.032 C 
HETATM   21  C12 UNL     1      28.302  -1.349  52.997  1.00  0.00     0.010 C 
HETATM   22  C13 UNL     1      29.510  -1.221  53.834  1.00  0.00     0.013 C 
HETATM   23  C14 UNL     1      29.838   0.052  53.702  1.00  0.00    -0.025 C 
HETATM   24  C15 UNL     1      28.828   0.793  53.266  1.00  0.00     0.021 C 
ENDBRANCH   4  20
TORSDOF 4
ENDMDL
MODEL 3
REMARK VINA RESULT:      -8.6      3.950      6.621
REMARK  4 active torsions:
REMARK  status: ('A' for Active; 'I' for Inactive)
REMARK    1  A    between atoms: C5_5  and  C6_6 
REMARK    2  A    between atoms: N2_8  and  C7_9 
REMARK    3  A    between atoms: C8_11  and  O1_12 
REMARK    4  A    between atoms: C10_15  and  C11_16 
ROOT
HETATM    1  C6  UNL     1      25.219   0.669  52.439  1.00  0.00     0.067 C 
HETATM    2  N1  UNL     1      24.968   1.704  51.702  1.00  0.00    -0.173 NA
HETATM    3  N2  UNL     1      23.603   1.989  51.632  1.00  0.00    -0.236 N 
HETATM    4  C10 UNL     1      23.079   0.637  51.678  1.00  0.00     0.151 C 
HETATM    5  C16 UNL     1      23.863   0.179  52.925  1.00  0.00     0.094 C 
ENDROOT
BRANCH   1   6
HETATM    6  C5  UNL     1      26.487   0.047  52.771  1.00  0.00    -0.010 A 
HETATM    7  C4  UNL     1      26.723  -1.293  52.551  1.00  0.00     0.014 A 
HETATM    8  C3  UNL     1      27.961  -1.814  52.891  1.00  0.00     0.007 A 
HETATM    9  C2  UNL     1      28.947  -0.982  53.446  1.00  0.00    -0.062 A 
HETATM   10  C1  UNL     1      30.297  -1.468  53.829  1.00  0.00     0.048 C 
HETATM   11  C18 UNL     1      28.716   0.380  53.670  1.00  0.00     0.007 A 
HETATM   12  C17 UNL     1      27.456   0.876  53.318  1.00  0.00     0.014 A 
ENDBRANCH   1   6
BRANCH   3  13
HETATM   13  C7  UNL     1      23.193   3.377  51.541  1.00  0.00     0.192 A 
HETATM   14  N3  UNL     1      23.828   4.316  51.858  1.00  0.00    -0.198 NA
HETATM   15  C8  UNL     1      23.426   5.565  51.777  1.00  0.00     0.171 A 
HETATM   16  C9  UNL     1      22.194   5.882  51.303  1.00  0.00     0.111 A 
HETATM   17  S1  UNL     1      21.557   4.123  50.931  1.00  0.00    -0.058 SA
BRANCH  15  18
HETATM   18  O1  UNL     1      24.238   6.654  52.174  1.00  0.00    -0.344 OA
HETATM   19  H6  UNL     1      24.151   6.873  53.176  1.00  0.00     0.219 HD
ENDBRANCH  15  18
ENDBRANCH   3  13
BRANCH   4  20
HETATM   20  C11 UNL     1      21.631   0.541  51.832  1.00  0.00    -0.032 C 
HETATM   21  C12 UNL     1      20.466   0.511  51.188  1.00  0.00     0.010 C 
HETATM   22  C13 UNL     1      19.358   0.387  52.154  1.00  0.00     0.013 C 
HETATM   23  C14 UNL     1      19.973   0.100  53.288  1.00  0.00    -0.025 C 
HETATM   24  C15 UNL     1      21.259   0.423  53.262  1.00  0.00     0.021 C 
ENDBRANCH   4  20
TORSDOF 4
ENDMDL
MODEL 4
REMARK VINA RESULT:      -8.5      2.380      6.542
REMARK  4 active torsions:
REMARK  status: ('A' for Active; 'I' for Inactive)
REMARK    1  A    between atoms: C5_5  and  C6_6 
REMARK    2  A    between atoms: N2_8  and  C7_9 
REMARK    3  A    between atoms: C8_11  and  O1_12 
REMARK    4  A    between atoms: C10_15  and  C11_16 
ROOT
HETATM    1  C6  UNL     1      22.931   0.834  52.501  1.00  0.00     0.067 C 
HETATM    2  N1  UNL     1      24.150   0.404  52.597  1.00  0.00    -0.173 NA
HETATM    3  N2  UNL     1      25.084   1.365  52.205  1.00  0.00    -0.236 N 
HETATM    4  C10 UNL     1      24.326   2.012  51.151  1.00  0.00     0.151 C 
HETATM    5  C16 UNL     1      23.042   2.255  51.971  1.00  0.00     0.094 C 
ENDROOT
BRANCH   1   6
HETATM    6  C5  UNL     1      21.681   0.164  52.806  1.00  0.00    -0.010 A 
HETATM    7  C4  UNL     1      21.585  -0.791  53.794  1.00  0.00     0.014 A 
HETATM    8  C3  UNL     1      20.354  -1.382  54.030  1.00  0.00     0.007 A 
HETATM    9  C2  UNL     1      19.235  -1.005  53.271  1.00  0.00    -0.062 A 
HETATM   10  C1  UNL     1      17.885  -1.592  53.469  1.00  0.00     0.048 C 
HETATM   11  C18 UNL     1      19.323  -0.035  52.266  1.00  0.00     0.007 A 
HETATM   12  C17 UNL     1      20.579   0.543  52.051  1.00  0.00     0.014 A 
ENDBRANCH   1   6
BRANCH   3  13
HETATM   13  C7  UNL     1      26.362   1.401  52.889  1.00  0.00     0.192 A 
HETATM   14  N3  UNL     1      27.242   2.158  52.690  1.00  0.00    -0.198 NA
HETATM   15  C8  UNL     1      28.397   2.158  53.317  1.00  0.00     0.171 A 
HETATM   16  C9  UNL     1      28.678   1.247  54.283  1.00  0.00     0.111 A 
HETATM   17  S1  UNL     1      27.036   0.275  54.261  1.00  0.00    -0.058 SA
BRANCH  15  18
HETATM   18  O1  UNL     1      29.417   3.097  53.033  1.00  0.00    -0.344 OA
HETATM   19  H6  UNL     1      29.487   3.320  52.030  1.00  0.00     0.219 HD
ENDBRANCH  15  18
ENDBRANCH   3  13
BRANCH   4  20
HETATM   20  C11 UNL     1      24.922   3.236  50.624  1.00  0.00    -0.032 C 
HETATM   21  C12 UNL     1      24.910   4.566  50.681  1.00  0.00     0.010 C 
HETATM   22  C13 UNL     1      25.909   5.121  49.746  1.00  0.00     0.013 C 
HETATM   23  C14 UNL     1      26.613   4.061  49.390  1.00  0.00    -0.025 C 
HETATM   24  C15 UNL     1      25.973   2.924  49.626  1.00  0.00     0.021 C 
ENDBRANCH   4  20
TORSDOF 4
ENDMDL
MODEL 5
REMARK VINA RESULT:      -8.1      4.307      7.905
REMARK  4 active torsions:
REMARK  status: ('A' for Active; 'I' for Inactive)
REMARK    1  A    between atoms: C5_5  and  C6_6 
REMARK    2  A    between atoms: N2_8  and  C7_9 
REMARK    3  A    between atoms: C8_11  and  O1_12 
REMARK    4  A    between atoms: C10_15  and  C11_16 
ROOT
HETATM    1  C6  UNL     1      20.883   0.668  52.332  1.00  0.00     0.067 C 
HETATM    2  N1  UNL     1      21.182   1.920  52.479  1.00  0.00    -0.173 NA
HETATM    3  N2  UNL     1      22.550   2.160  52.330  1.00  0.00    -0.236 N 
HETATM    4  C10 UNL     1      23.067   0.930  52.898  1.00  0.00     0.151 C 
HETATM    5  C16 UNL     1      22.204  -0.036  52.059  1.00  0.00     0.094 C 
ENDROOT
BRANCH   1   6
HETATM    6  C5  UNL     1      19.595   0.002  52.403  1.00  0.00    -0.010 A 
HETATM    7  C4  UNL     1      19.290  -0.892  53.405  1.00  0.00     0.014 A 
HETATM    8  C3  UNL     1      18.037  -1.484  53.409  1.00  0.00     0.007 A 
HETATM    9  C2  UNL     1      17.106  -1.168  52.406  1.00  0.00    -0.062 A 
HETATM   10  C1  UNL     1      15.745  -1.758  52.347  1.00  0.00     0.048 C 
HETATM   11  C18 UNL     1      17.408  -0.259  51.386  1.00  0.00     0.007 A 
HETATM   12  C17 UNL     1      18.681   0.321  51.409  1.00  0.00     0.014 A 
ENDBRANCH   1   6
BRANCH   3  13
HETATM   13  C7  UNL     1      22.966   3.415  51.733  1.00  0.00     0.192 A 
HETATM   14  N3  UNL     1      23.398   4.351  52.302  1.00  0.00    -0.198 NA
HETATM   15  C8  UNL     1      23.755   5.482  51.736  1.00  0.00     0.171 A 
HETATM   16  C9  UNL     1      23.647   5.668  50.396  1.00  0.00     0.111 A 
HETATM   17  S1  UNL     1      22.935   3.964  49.916  1.00  0.00    -0.058 SA
BRANCH  15  18
HETATM   18  O1  UNL     1      24.269   6.574  52.475  1.00  0.00    -0.344 OA
HETATM   19  H6  UNL     1      24.489   7.388  51.885  1.00  0.00     0.219 HD
ENDBRANCH  15  18
ENDBRANCH   3  13
BRANCH   4  20
HETATM   20  C11 UNL     1      24.502   0.727  52.727  1.00  0.00    -0.032 C 
HETATM   21  C12 UNL     1      25.634   1.269  52.282  1.00  0.00     0.010 C 
HETATM   22  C13 UNL     1      26.757   0.334  52.490  1.00  0.00     0.013 C 
HETATM   23  C14 UNL     1      26.239  -0.595  53.275  1.00  0.00    -0.025 C 
HETATM   24  C15 UNL     1      24.913  -0.599  53.247  1.00  0.00     0.021 C 
ENDBRANCH   4  20
TORSDOF 4
ENDMDL
MODEL 6
REMARK VINA RESULT:      -8.1      3.998      6.857
REMARK  4 active torsions:
REMARK  status: ('A' for Active; 'I' for Inactive)
REMARK    1  A    between atoms: C5_5  and  C6_6 
REMARK    2  A    between atoms: N2_8  and  C7_9 
REMARK    3  A    between atoms: C8_11  and  O1_12 
REMARK    4  A    between atoms: C10_15  and  C11_16 
ROOT
HETATM    1  C6  UNL     1      24.791   0.841  52.805  1.00  0.00     0.067 C 
HETATM    2  N1  UNL     1      23.654   0.549  53.352  1.00  0.00    -0.173 NA
HETATM    3  N2  UNL     1      22.616   1.358  52.883  1.00  0.00    -0.236 N 
HETATM    4  C10 UNL     1      23.351   2.593  52.690  1.00  0.00     0.151 C 
HETATM    5  C16 UNL     1      24.502   1.994  51.855  1.00  0.00     0.094 C 
ENDROOT
BRANCH   1   6
HETATM    6  C5  UNL     1      26.101   0.250  53.007  1.00  0.00    -0.010 A 
HETATM    7  C4  UNL     1      26.378  -1.052  52.650  1.00  0.00     0.014 A 
HETATM    8  C3  UNL     1      27.655  -1.544  52.870  1.00  0.00     0.007 A 
HETATM    9  C2  UNL     1      28.637  -0.721  53.444  1.00  0.00    -0.062 A 
HETATM   10  C1  UNL     1      30.026  -1.177  53.705  1.00  0.00     0.048 C 
HETATM   11  C18 UNL     1      28.365   0.603  53.807  1.00  0.00     0.007 A 
HETATM   12  C17 UNL     1      27.067   1.070  53.573  1.00  0.00     0.014 A 
ENDBRANCH   1   6
BRANCH   3  13
HETATM   13  C7  UNL     1      21.293   0.776  52.759  1.00  0.00     0.192 A 
HETATM   14  N3  UNL     1      20.850  -0.099  53.410  1.00  0.00    -0.198 NA
HETATM   15  C8  UNL     1      19.651  -0.617  53.266  1.00  0.00     0.171 A 
HETATM   16  C9  UNL     1      18.794  -0.165  52.316  1.00  0.00     0.111 A 
HETATM   17  S1  UNL     1      19.894   1.190  51.544  1.00  0.00    -0.058 SA
BRANCH  15  18
HETATM   18  O1  UNL     1      19.174  -1.670  54.082  1.00  0.00    -0.344 OA
HETATM   19  H6  UNL     1      19.426  -2.601  53.721  1.00  0.00     0.219 HD
ENDBRANCH  15  18
ENDBRANCH   3  13
BRANCH   4  20
HETATM   20  C11 UNL     1      22.616   3.647  51.997  1.00  0.00    -0.032 C 
HETATM   21  C12 UNL     1      21.819   4.702  52.151  1.00  0.00     0.010 C 
HETATM   22  C13 UNL     1      21.483   5.278  50.835  1.00  0.00     0.013 C 
HETATM   23  C14 UNL     1      22.315   4.664  50.012  1.00  0.00    -0.025 C 
HETATM   24  C15 UNL     1      22.807   3.546  50.530  1.00  0.00     0.021 C 
ENDBRANCH   4  20
TORSDOF 4
ENDMDL
MODEL 7
REMARK VINA RESULT:      -8.1      3.521      4.852
REMARK  4 active torsions:
REMARK  status: ('A' for Active; 'I' for Inactive)
REMARK    1  A    between atoms: C5_5  and  C6_6 
REMARK    2  A    between atoms: N2_8  and  C7_9 
REMARK    3  A    between atoms: C8_11  and  O1_12 
REMARK    4  A    between atoms: C10_15  and  C11_16 
ROOT
HETATM    1  C6  UNL     1      25.292   3.524  50.484  1.00  0.00     0.067 C 
HETATM    2  N1  UNL     1      24.155   2.938  50.280  1.00  0.00    -0.173 NA
HETATM    3  N2  UNL     1      23.860   1.993  51.265  1.00  0.00    -0.236 N 
HETATM    4  C10 UNL     1      25.201   1.516  51.541  1.00  0.00     0.151 C 
HETATM    5  C16 UNL     1      25.848   2.900  51.756  1.00  0.00     0.094 C 
ENDROOT
BRANCH   1   6
HETATM    6  C5  UNL     1      25.962   4.555  49.713  1.00  0.00    -0.010 A 
HETATM    7  C4  UNL     1      25.397   5.794  49.504  1.00  0.00     0.014 A 
HETATM    8  C3  UNL     1      26.100   6.728  48.760  1.00  0.00     0.007 A 
HETATM    9  C2  UNL     1      27.362   6.405  48.237  1.00  0.00    -0.062 A 
HETATM   10  C1  UNL     1      28.175   7.355  47.435  1.00  0.00     0.048 C 
HETATM   11  C18 UNL     1      27.944   5.150  48.446  1.00  0.00     0.007 A 
HETATM   12  C17 UNL     1      27.209   4.228  49.200  1.00  0.00     0.014 A 
ENDBRANCH   1   6
BRANCH   3  13
HETATM   13  C7  UNL     1      22.473   1.808  51.646  1.00  0.00     0.192 A 
HETATM   14  N3  UNL     1      21.683   2.657  51.846  1.00  0.00    -0.198 NA
HETATM   15  C8  UNL     1      20.434   2.460  52.205  1.00  0.00     0.171 A 
HETATM   16  C9  UNL     1      19.938   1.209  52.383  1.00  0.00     0.111 A 
HETATM   17  S1  UNL     1      21.506   0.205  51.967  1.00  0.00    -0.058 SA
BRANCH  15  18
HETATM   18  O1  UNL     1      19.529   3.525  52.430  1.00  0.00    -0.344 OA
HETATM   19  H6  UNL     1      18.692   3.235  52.954  1.00  0.00     0.219 HD
ENDBRANCH  15  18
ENDBRANCH   3  13
BRANCH   4  20
HETATM   20  C11 UNL     1      25.316   0.633  52.697  1.00  0.00    -0.032 C 
HETATM   21  C12 UNL     1      25.062  -0.587  53.167  1.00  0.00     0.010 C 
HETATM   22  C13 UNL     1      25.532  -0.699  54.561  1.00  0.00     0.013 C 
HETATM   23  C14 UNL     1      26.258   0.392  54.727  1.00  0.00    -0.025 C 
HETATM   24  C15 UNL     1      25.981   1.326  53.826  1.00  0.00     0.021 C 
ENDBRANCH   4  20
TORSDOF 4
ENDMDL
MODEL 8
REMARK VINA RESULT:      -7.9      3.199      6.907
REMARK  4 active torsions:
REMARK  status: ('A' for Active; 'I' for Inactive)
REMARK    1  A    between atoms: C5_5  and  C6_6 
REMARK    2  A    between atoms: N2_8  and  C7_9 
REMARK    3  A    between atoms: C8_11  and  O1_12 
REMARK    4  A    between atoms: C10_15  and  C11_16 
ROOT
HETATM    1  C6  UNL     1      21.533   0.836  51.895  1.00  0.00     0.067 C 
HETATM    2  N1  UNL     1      22.664   0.274  52.182  1.00  0.00    -0.173 NA
HETATM    3  N2  UNL     1      23.750   1.127  51.970  1.00  0.00    -0.236 N 
HETATM    4  C10 UNL     1      23.252   1.857  50.819  1.00  0.00     0.151 C 
HETATM    5  C16 UNL     1      21.884   2.238  51.421  1.00  0.00     0.094 C 
ENDROOT
BRANCH   1   6
HETATM    6  C5  UNL     1      20.183   0.309  51.976  1.00  0.00    -0.010 A 
HETATM    7  C4  UNL     1      19.245   0.549  50.996  1.00  0.00     0.014 A 
HETATM    8  C3  UNL     1      17.978   0.007  51.141  1.00  0.00     0.007 A 
HETATM    9  C2  UNL     1      17.671  -0.771  52.269  1.00  0.00    -0.062 A 
HETATM   10  C1  UNL     1      16.338  -1.388  52.490  1.00  0.00     0.048 C 
HETATM   11  C18 UNL     1      18.618  -1.022  53.268  1.00  0.00     0.007 A 
HETATM   12  C17 UNL     1      19.888  -0.460  53.093  1.00  0.00     0.014 A 
ENDBRANCH   1   6
BRANCH   3  13
HETATM   13  C7  UNL     1      24.892   1.020  52.857  1.00  0.00     0.192 A 
HETATM   14  N3  UNL     1      25.671   1.868  53.101  1.00  0.00    -0.198 NA
HETATM   15  C8  UNL     1      26.707   1.739  53.899  1.00  0.00     0.171 A 
HETATM   16  C9  UNL     1      26.972   0.567  54.530  1.00  0.00     0.111 A 
HETATM   17  S1  UNL     1      25.512  -0.466  53.863  1.00  0.00    -0.058 SA
BRANCH  15  18
HETATM   18  O1  UNL     1      27.609   2.799  54.154  1.00  0.00    -0.344 OA
HETATM   19  H6  UNL     1      28.347   2.876  53.440  1.00  0.00     0.219 HD
ENDBRANCH  15  18
ENDBRANCH   3  13
BRANCH   4  20
HETATM   20  C11 UNL     1      24.057   3.009  50.425  1.00  0.00    -0.032 C 
HETATM   21  C12 UNL     1      25.048   3.429  49.642  1.00  0.00     0.010 C 
HETATM   22  C13 UNL     1      25.285   4.870  49.855  1.00  0.00     0.013 C 
HETATM   23  C14 UNL     1      24.240   5.247  50.571  1.00  0.00    -0.025 C 
HETATM   24  C15 UNL     1      23.635   4.224  51.161  1.00  0.00     0.021 C 
ENDBRANCH   4  20
TORSDOF 4
ENDMDL
MODEL 9
REMARK VINA RESULT:      -7.9      4.482      8.315
REMARK  4 active torsions:
REMARK  status: ('A' for Active; 'I' for Inactive)
REMARK    1  A    between atoms: C5_5  and  C6_6 
REMARK    2  A    between atoms: N2_8  and  C7_9 
REMARK    3  A    between atoms: C8_11  and  O1_12 
REMARK    4  A    between atoms: C10_15  and  C11_16 
ROOT
HETATM    1  C6  UNL     1      23.614   2.574  51.090  1.00  0.00     0.067 C 
HETATM    2  N1  UNL     1      22.817   3.319  50.392  1.00  0.00    -0.173 NA
HETATM    3  N2  UNL     1      23.506   4.133  49.490  1.00  0.00    -0.236 N 
HETATM    4  C10 UNL     1      24.697   4.395  50.275  1.00  0.00     0.151 C 
HETATM    5  C16 UNL     1      25.016   2.926  50.620  1.00  0.00     0.094 C 
ENDROOT
BRANCH   1   6
HETATM    6  C5  UNL     1      23.312   1.597  52.120  1.00  0.00    -0.010 A 
HETATM    7  C4  UNL     1      22.049   1.466  52.656  1.00  0.00     0.014 A 
HETATM    8  C3  UNL     1      21.838   0.506  53.633  1.00  0.00     0.007 A 
HETATM    9  C2  UNL     1      22.898  -0.310  54.059  1.00  0.00    -0.062 A 
HETATM   10  C1  UNL     1      22.747  -1.360  55.098  1.00  0.00     0.048 C 
HETATM   11  C18 UNL     1      24.183  -0.184  53.519  1.00  0.00     0.007 A 
HETATM   12  C17 UNL     1      24.365   0.794  52.535  1.00  0.00     0.014 A 
ENDBRANCH   1   6
BRANCH   3  13
HETATM   13  C7  UNL     1      22.883   4.427  48.214  1.00  0.00     0.192 A 
HETATM   14  N3  UNL     1      22.854   5.472  47.673  1.00  0.00    -0.198 NA
HETATM   15  C8  UNL     1      22.269   5.714  46.522  1.00  0.00     0.171 A 
HETATM   16  C9  UNL     1      21.623   4.736  45.838  1.00  0.00     0.111 A 
HETATM   17  S1  UNL     1      21.919   3.286  47.042  1.00  0.00    -0.058 SA
BRANCH  15  18
HETATM   18  O1  UNL     1      22.270   6.995  45.921  1.00  0.00    -0.344 OA
HETATM   19  H6  UNL     1      22.653   6.988  44.966  1.00  0.00     0.219 HD
ENDBRANCH  15  18
ENDBRANCH   3  13
BRANCH   4  20
HETATM   20  C11 UNL     1      25.772   5.073  49.557  1.00  0.00    -0.032 C 
HETATM   21  C12 UNL     1      26.222   6.249  49.125  1.00  0.00     0.010 C 
HETATM   22  C13 UNL     1      27.502   6.070  48.414  1.00  0.00     0.013 C 
HETATM   23  C14 UNL     1      27.838   4.824  48.700  1.00  0.00    -0.025 C 
HETATM   24  C15 UNL     1      26.804   4.104  49.117  1.00  0.00     0.021 C 
ENDBRANCH   4  20
TORSDOF 4
ENDMDL
