MODEL 1
REMARK VINA RESULT:      -8.5      0.000      0.000
REMARK  1 active torsions:
REMARK  status: ('A' for Active; 'I' for Inactive)
REMARK    1  A    between atoms: C7_7  and  C8_8 
ROOT
HETATM    1  C1  UNL     1      23.957   6.142  51.224  1.00  0.00     0.049 C 
HETATM    2  C2  UNL     1      23.600   4.705  51.244  1.00  0.00    -0.044 C 
HETATM    3  C3  UNL     1      24.018   3.893  52.228  1.00  0.00     0.009 C 
HETATM    4  C4  UNL     1      23.482   2.530  52.524  1.00  0.00     0.009 C 
HETATM    5  C5  UNL     1      22.822   1.729  51.650  1.00  0.00    -0.042 C 
HETATM    6  C6  UNL     1      23.038   1.761  50.194  1.00  0.00     0.078 C 
HETATM    7  C7  UNL     1      22.713   3.071  49.567  1.00  0.00    -0.024 C 
HETATM    8  C9  UNL     1      22.763   4.298  50.115  1.00  0.00     0.023 C 
HETATM    9  S1  UNL     1      21.714   5.643  49.474  1.00  0.00    -0.052 SA
HETATM   10  S2  UNL     1      19.949   4.657  48.715  1.00  0.00    -0.063 SA
HETATM   11  C10 UNL     1      18.732   4.513  50.044  1.00  0.00     0.070 C 
HETATM   12  C11 UNL     1      18.109   3.414  50.439  1.00  0.00     0.035 C 
HETATM   13  C12 UNL     1      17.122   3.092  51.462  1.00  0.00     0.186 C 
HETATM   14  O2  UNL     1      16.977   3.930  52.430  1.00  0.00    -0.291 OA
HETATM   15  C13 UNL     1      16.501   1.802  51.103  1.00  0.00     0.356 C 
HETATM   16  N1  UNL     1      17.018   1.524  49.780  1.00  0.00     0.105 N 
HETATM   17  C14 UNL     1      17.139   0.057  49.732  1.00  0.00     0.311 C 
HETATM   18  C15 UNL     1      18.338   2.128  49.805  1.00  0.00     0.334 C 
HETATM   19  C16 UNL     1      19.332   1.236  50.441  1.00  0.00     0.394 A 
HETATM   20  O3  UNL     1      20.170   0.528  51.067  1.00  0.00    -0.142 OA
HETATM   21  N2  UNL     1      19.659   1.533  51.827  1.00  0.00     0.122 N 
HETATM   22  C17 UNL     1      20.582   0.843  52.671  1.00  0.00     0.181 A 
HETATM   23  C18 UNL     1      20.144   0.005  53.672  1.00  0.00     0.041 A 
HETATM   24  C19 UNL     1      20.910  -0.723  54.562  1.00  0.00     0.002 A 
HETATM   25  C20 UNL     1      22.279  -0.602  54.441  1.00  0.00     0.001 A 
HETATM   26  C21 UNL     1      22.777   0.242  53.435  1.00  0.00     0.014 A 
HETATM   27  C22 UNL     1      21.956   0.943  52.575  1.00  0.00     0.008 A 
HETATM   28  H16 UNL     1      19.353   2.252  52.564  1.00  0.00     0.329 HD
ENDROOT
BRANCH   7  29
HETATM   29  C8  UNL     1      22.265   3.145  48.183  1.00  0.00     0.427 C 
HETATM   30  O1  UNL     1      22.444   2.173  47.390  1.00  0.00    -0.426 OA
ENDBRANCH   7  29
TORSDOF 1
ENDMDL
MODEL 2
REMARK VINA RESULT:      -7.9      9.154     12.787
REMARK  1 active torsions:
REMARK  status: ('A' for Active; 'I' for Inactive)
REMARK    1  A    between atoms: C7_7  and  C8_8 
ROOT
HETATM    1  C1  UNL     1      27.523  12.350  45.525  1.00  0.00     0.049 C 
HETATM    2  C2  UNL     1      27.733  11.331  46.578  1.00  0.00    -0.044 C 
HETATM    3  C3  UNL     1      26.760  10.474  46.928  1.00  0.00     0.009 C 
HETATM    4  C4  UNL     1      26.939   9.228  47.733  1.00  0.00     0.009 C 
HETATM    5  C5  UNL     1      27.969   8.970  48.578  1.00  0.00    -0.042 C 
HETATM    6  C6  UNL     1      28.712  10.017  49.298  1.00  0.00     0.078 C 
HETATM    7  C7  UNL     1      29.409  10.983  48.405  1.00  0.00    -0.024 C 
HETATM    8  C9  UNL     1      29.075  11.362  47.159  1.00  0.00     0.023 C 
HETATM    9  S1  UNL     1      30.347  11.971  46.004  1.00  0.00    -0.052 SA
HETATM   10  S2  UNL     1      32.158  10.948  46.582  1.00  0.00    -0.063 SA
HETATM   11  C10 UNL     1      32.270   9.384  45.682  1.00  0.00     0.070 C 
HETATM   12  C11 UNL     1      32.465   8.180  46.195  1.00  0.00     0.035 C 
HETATM   13  C12 UNL     1      32.582   6.830  45.659  1.00  0.00     0.186 C 
HETATM   14  O2  UNL     1      32.123   6.622  44.473  1.00  0.00    -0.291 OA
HETATM   15  C13 UNL     1      33.240   5.992  46.680  1.00  0.00     0.356 C 
HETATM   16  N1  UNL     1      33.654   6.940  47.693  1.00  0.00     0.105 N 
HETATM   17  C14 UNL     1      33.533   6.201  48.962  1.00  0.00     0.311 C 
HETATM   18  C15 UNL     1      32.633   7.970  47.622  1.00  0.00     0.334 C 
HETATM   19  C16 UNL     1      31.426   7.592  48.389  1.00  0.00     0.394 A 
HETATM   20  O3  UNL     1      30.354   7.243  48.958  1.00  0.00    -0.142 OA
HETATM   21  N2  UNL     1      30.316   7.064  47.610  1.00  0.00     0.122 N 
HETATM   22  C17 UNL     1      29.043   6.634  48.091  1.00  0.00     0.181 A 
HETATM   23  C18 UNL     1      28.724   5.297  48.171  1.00  0.00     0.041 A 
HETATM   24  C19 UNL     1      27.543   4.732  48.610  1.00  0.00     0.002 A 
HETATM   25  C20 UNL     1      26.556   5.605  49.020  1.00  0.00     0.001 A 
HETATM   26  C21 UNL     1      26.830   6.981  48.958  1.00  0.00     0.014 A 
HETATM   27  C22 UNL     1      28.035   7.483  48.509  1.00  0.00     0.008 A 
HETATM   28  H16 UNL     1      30.121   6.849  46.576  1.00  0.00     0.329 HD
ENDROOT
BRANCH   7  29
HETATM   29  C8  UNL     1      30.627  11.655  48.838  1.00  0.00     0.427 C 
HETATM   30  O1  UNL     1      30.570  12.720  49.522  1.00  0.00    -0.426 OA
ENDBRANCH   7  29
TORSDOF 1
ENDMDL
MODEL 3
REMARK VINA RESULT:      -7.9     10.912     14.314
REMARK  1 active torsions:
REMARK  status: ('A' for Active; 'I' for Inactive)
REMARK    1  A    between atoms: C7_7  and  C8_8 
ROOT
HETATM    1  C1  UNL     1      27.372   6.930  47.880  1.00  0.00     0.049 C 
HETATM    2  C2  UNL     1      28.831   6.716  48.002  1.00  0.00    -0.044 C 
HETATM    3  C3  UNL     1      29.351   5.485  48.132  1.00  0.00     0.009 C 
HETATM    4  C4  UNL     1      30.789   5.119  47.955  1.00  0.00     0.009 C 
HETATM    5  C5  UNL     1      31.842   5.968  48.054  1.00  0.00    -0.042 C 
HETATM    6  C6  UNL     1      31.842   7.169  48.906  1.00  0.00     0.078 C 
HETATM    7  C7  UNL     1      30.801   8.167  48.538  1.00  0.00    -0.024 C 
HETATM    8  C9  UNL     1      29.607   7.956  47.956  1.00  0.00     0.023 C 
HETATM    9  S1  UNL     1      28.805   9.272  46.983  1.00  0.00    -0.052 SA
HETATM   10  S2  UNL     1      30.436  10.429  46.165  1.00  0.00    -0.063 SA
HETATM   11  C10 UNL     1      30.924   9.723  44.573  1.00  0.00     0.070 C 
HETATM   12  C11 UNL     1      32.142   9.368  44.198  1.00  0.00     0.035 C 
HETATM   13  C12 UNL     1      32.732   8.795  42.995  1.00  0.00     0.186 C 
HETATM   14  O2  UNL     1      31.938   8.203  42.171  1.00  0.00    -0.291 OA
HETATM   15  C13 UNL     1      34.184   9.059  43.032  1.00  0.00     0.356 C 
HETATM   16  N1  UNL     1      34.347   9.945  44.164  1.00  0.00     0.105 N 
HETATM   17  C14 UNL     1      35.662   9.588  44.726  1.00  0.00     0.311 C 
HETATM   18  C15 UNL     1      33.293   9.526  45.070  1.00  0.00     0.334 C 
HETATM   19  C16 UNL     1      33.697   8.346  45.865  1.00  0.00     0.394 A 
HETATM   20  O3  UNL     1      33.990   7.282  46.480  1.00  0.00    -0.142 OA
HETATM   21  N2  UNL     1      33.195   7.062  45.399  1.00  0.00     0.122 N 
HETATM   22  C17 UNL     1      33.423   5.777  45.977  1.00  0.00     0.181 A 
HETATM   23  C18 UNL     1      34.285   4.875  45.395  1.00  0.00     0.041 A 
HETATM   24  C19 UNL     1      34.603   3.604  45.833  1.00  0.00     0.002 A 
HETATM   25  C20 UNL     1      33.988   3.178  46.991  1.00  0.00     0.001 A 
HETATM   26  C21 UNL     1      33.098   4.061  47.625  1.00  0.00     0.014 A 
HETATM   27  C22 UNL     1      32.823   5.321  47.136  1.00  0.00     0.008 A 
HETATM   28  H16 UNL     1      32.588   6.710  44.585  1.00  0.00     0.329 HD
ENDROOT
BRANCH   7  29
HETATM   29  C8  UNL     1      31.005   9.587  48.792  1.00  0.00     0.427 C 
HETATM   30  O1  UNL     1      30.797  10.076  49.942  1.00  0.00    -0.426 OA
ENDBRANCH   7  29
TORSDOF 1
ENDMDL
MODEL 4
REMARK VINA RESULT:      -7.9     10.137     13.259
REMARK  1 active torsions:
REMARK  status: ('A' for Active; 'I' for Inactive)
REMARK    1  A    between atoms: C7_7  and  C8_8 
ROOT
HETATM    1  C1  UNL     1      35.393   6.344  48.936  1.00  0.00     0.049 C 
HETATM    2  C2  UNL     1      34.071   6.259  48.276  1.00  0.00    -0.044 C 
HETATM    3  C3  UNL     1      33.112   5.437  48.730  1.00  0.00     0.009 C 
HETATM    4  C4  UNL     1      31.667   5.485  48.354  1.00  0.00     0.009 C 
HETATM    5  C5  UNL     1      31.158   6.046  47.228  1.00  0.00    -0.042 C 
HETATM    6  C6  UNL     1      31.901   6.143  45.960  1.00  0.00     0.078 C 
HETATM    7  C7  UNL     1      33.147   6.951  46.053  1.00  0.00    -0.024 C 
HETATM    8  C9  UNL     1      33.938   7.150  47.123  1.00  0.00     0.023 C 
HETATM    9  S1  UNL     1      34.967   8.649  47.248  1.00  0.00    -0.052 SA
HETATM   10  S2  UNL     1      33.868  10.168  46.175  1.00  0.00    -0.063 SA
HETATM   11  C10 UNL     1      32.739  11.001  47.315  1.00  0.00     0.070 C 
HETATM   12  C11 UNL     1      31.438  11.187  47.156  1.00  0.00     0.035 C 
HETATM   13  C12 UNL     1      30.377  11.814  47.933  1.00  0.00     0.186 C 
HETATM   14  O2  UNL     1      30.595  12.000  49.190  1.00  0.00    -0.291 OA
HETATM   15  C13 UNL     1      29.252  12.094  47.021  1.00  0.00     0.356 C 
HETATM   16  N1  UNL     1      29.784  11.793  45.710  1.00  0.00     0.105 N 
HETATM   17  C14 UNL     1      28.634  11.265  44.956  1.00  0.00     0.311 C 
HETATM   18  C15 UNL     1      30.734  10.727  45.972  1.00  0.00     0.334 C 
HETATM   19  C16 UNL     1      30.063   9.412  46.062  1.00  0.00     0.394 A 
HETATM   20  O3  UNL     1      29.494   8.298  46.239  1.00  0.00    -0.142 OA
HETATM   21  N2  UNL     1      29.813   8.916  47.407  1.00  0.00     0.122 N 
HETATM   22  C17 UNL     1      29.194   7.684  47.779  1.00  0.00     0.181 A 
HETATM   23  C18 UNL     1      27.907   7.651  48.269  1.00  0.00     0.041 A 
HETATM   24  C19 UNL     1      27.181   6.546  48.669  1.00  0.00     0.002 A 
HETATM   25  C20 UNL     1      27.812   5.324  48.570  1.00  0.00     0.001 A 
HETATM   26  C21 UNL     1      29.127   5.302  48.076  1.00  0.00     0.014 A 
HETATM   27  C22 UNL     1      29.799   6.445  47.692  1.00  0.00     0.008 A 
HETATM   28  H16 UNL     1      29.977   9.263  48.411  1.00  0.00     0.329 HD
ENDROOT
BRANCH   7  29
HETATM   29  C8  UNL     1      33.661   7.668  44.894  1.00  0.00     0.427 C 
HETATM   30  O1  UNL     1      34.301   7.058  43.987  1.00  0.00    -0.426 OA
ENDBRANCH   7  29
TORSDOF 1
ENDMDL
MODEL 5
REMARK VINA RESULT:      -7.7      3.423      6.234
REMARK  1 active torsions:
REMARK  status: ('A' for Active; 'I' for Inactive)
REMARK    1  A    between atoms: C7_7  and  C8_8 
ROOT
HETATM    1  C1  UNL     1      22.335   2.922  47.696  1.00  0.00     0.049 C 
HETATM    2  C2  UNL     1      22.088   2.626  49.125  1.00  0.00    -0.044 C 
HETATM    3  C3  UNL     1      21.003   1.943  49.523  1.00  0.00     0.009 C 
HETATM    4  C4  UNL     1      20.802   1.325  50.868  1.00  0.00     0.009 C 
HETATM    5  C5  UNL     1      21.441   1.683  52.010  1.00  0.00    -0.042 C 
HETATM    6  C6  UNL     1      21.940   3.043  52.270  1.00  0.00     0.078 C 
HETATM    7  C7  UNL     1      22.971   3.502  51.299  1.00  0.00    -0.024 C 
HETATM    8  C9  UNL     1      23.132   3.138  50.014  1.00  0.00     0.023 C 
HETATM    9  S1  UNL     1      24.768   3.241  49.220  1.00  0.00    -0.052 SA
HETATM   10  S2  UNL     1      26.183   2.924  50.820  1.00  0.00    -0.063 SA
HETATM   11  C10 UNL     1      26.512   1.153  50.979  1.00  0.00     0.070 C 
HETATM   12  C11 UNL     1      26.433   0.423  52.081  1.00  0.00     0.035 C 
HETATM   13  C12 UNL     1      26.650  -0.979  52.413  1.00  0.00     0.186 C 
HETATM   14  O2  UNL     1      26.635  -1.827  51.443  1.00  0.00    -0.291 OA
HETATM   15  C13 UNL     1      26.843  -1.074  53.873  1.00  0.00     0.356 C 
HETATM   16  N1  UNL     1      26.924   0.305  54.303  1.00  0.00     0.105 N 
HETATM   17  C14 UNL     1      26.309   0.312  55.642  1.00  0.00     0.311 C 
HETATM   18  C15 UNL     1      26.064   0.999  53.361  1.00  0.00     0.334 C 
HETATM   19  C16 UNL     1      24.641   0.903  53.752  1.00  0.00     0.394 A 
HETATM   20  O3  UNL     1      23.416   0.747  54.020  1.00  0.00    -0.142 OA
HETATM   21  N2  UNL     1      23.853  -0.099  53.049  1.00  0.00     0.122 N 
HETATM   22  C17 UNL     1      22.468  -0.395  53.223  1.00  0.00     0.181 A 
HETATM   23  C18 UNL     1      22.059  -1.532  53.883  1.00  0.00     0.041 A 
HETATM   24  C19 UNL     1      20.765  -1.952  54.125  1.00  0.00     0.002 A 
HETATM   25  C20 UNL     1      19.754  -1.141  53.653  1.00  0.00     0.001 A 
HETATM   26  C21 UNL     1      20.118   0.032  52.971  1.00  0.00     0.014 A 
HETATM   27  C22 UNL     1      21.433   0.396  52.762  1.00  0.00     0.008 A 
HETATM   28  H16 UNL     1      24.030  -0.839  52.291  1.00  0.00     0.329 HD
ENDROOT
BRANCH   7  29
HETATM   29  C8  UNL     1      23.991   4.464  51.692  1.00  0.00     0.427 C 
HETATM   30  O1  UNL     1      23.736   5.705  51.721  1.00  0.00    -0.426 OA
ENDBRANCH   7  29
TORSDOF 1
ENDMDL
MODEL 6
REMARK VINA RESULT:      -7.6      6.657     10.083
REMARK  1 active torsions:
REMARK  status: ('A' for Active; 'I' for Inactive)
REMARK    1  A    between atoms: C7_7  and  C8_8 
ROOT
HETATM    1  C1  UNL     1      24.936   3.530  49.344  1.00  0.00     0.049 C 
HETATM    2  C2  UNL     1      25.775   4.730  49.128  1.00  0.00    -0.044 C 
HETATM    3  C3  UNL     1      27.101   4.635  48.942  1.00  0.00     0.009 C 
HETATM    4  C4  UNL     1      27.991   5.713  48.416  1.00  0.00     0.009 C 
HETATM    5  C5  UNL     1      27.725   7.043  48.437  1.00  0.00    -0.042 C 
HETATM    6  C6  UNL     1      26.883   7.688  49.459  1.00  0.00     0.078 C 
HETATM    7  C7  UNL     1      25.480   7.192  49.483  1.00  0.00    -0.024 C 
HETATM    8  C9  UNL     1      25.014   5.980  49.130  1.00  0.00     0.023 C 
HETATM    9  S1  UNL     1      23.291   5.776  48.574  1.00  0.00    -0.052 SA
HETATM   10  S2  UNL     1      22.782   7.658  47.643  1.00  0.00    -0.063 SA
HETATM   11  C10 UNL     1      23.222   7.592  45.891  1.00  0.00     0.070 C 
HETATM   12  C11 UNL     1      23.962   8.461  45.221  1.00  0.00     0.035 C 
HETATM   13  C12 UNL     1      24.423   8.588  43.845  1.00  0.00     0.186 C 
HETATM   14  O2  UNL     1      24.403   7.527  43.114  1.00  0.00    -0.291 OA
HETATM   15  C13 UNL     1      24.822   9.992  43.628  1.00  0.00     0.356 C 
HETATM   16  N1  UNL     1      24.392  10.666  44.834  1.00  0.00     0.105 N 
HETATM   17  C14 UNL     1      25.399  11.720  45.048  1.00  0.00     0.311 C 
HETATM   18  C15 UNL     1      24.525   9.641  45.854  1.00  0.00     0.334 C 
HETATM   19  C16 UNL     1      25.917   9.538  46.342  1.00  0.00     0.394 A 
HETATM   20  O3  UNL     1      27.117   9.372  46.699  1.00  0.00    -0.142 OA
HETATM   21  N2  UNL     1      26.710   8.454  45.782  1.00  0.00     0.122 N 
HETATM   22  C17 UNL     1      28.067   8.125  46.080  1.00  0.00     0.181 A 
HETATM   23  C18 UNL     1      29.081   8.406  45.192  1.00  0.00     0.041 A 
HETATM   24  C19 UNL     1      30.431   8.147  45.338  1.00  0.00     0.002 A 
HETATM   25  C20 UNL     1      30.818   7.533  46.511  1.00  0.00     0.001 A 
HETATM   26  C21 UNL     1      29.821   7.224  47.451  1.00  0.00     0.014 A 
HETATM   27  C22 UNL     1      28.486   7.510  47.244  1.00  0.00     0.008 A 
HETATM   28  H16 UNL     1      26.562   7.671  45.062  1.00  0.00     0.329 HD
ENDROOT
BRANCH   7  29
HETATM   29  C8  UNL     1      24.390   8.053  49.921  1.00  0.00     0.427 C 
HETATM   30  O1  UNL     1      23.963   8.001  51.113  1.00  0.00    -0.426 OA
ENDBRANCH   7  29
TORSDOF 1
ENDMDL
MODEL 7
REMARK VINA RESULT:      -7.5      2.363      5.462
REMARK  1 active torsions:
REMARK  status: ('A' for Active; 'I' for Inactive)
REMARK    1  A    between atoms: C7_7  and  C8_8 
ROOT
HETATM    1  C1  UNL     1      17.560  -0.512  50.720  1.00  0.00     0.049 C 
HETATM    2  C2  UNL     1      18.635   0.364  51.237  1.00  0.00    -0.044 C 
HETATM    3  C3  UNL     1      19.714  -0.140  51.856  1.00  0.00     0.009 C 
HETATM    4  C4  UNL     1      20.984   0.593  52.139  1.00  0.00     0.009 C 
HETATM    5  C5  UNL     1      21.123   1.941  52.212  1.00  0.00    -0.042 C 
HETATM    6  C6  UNL     1      20.041   2.849  52.628  1.00  0.00     0.078 C 
HETATM    7  C7  UNL     1      18.848   2.808  51.740  1.00  0.00    -0.024 C 
HETATM    8  C9  UNL     1      18.395   1.786  50.991  1.00  0.00     0.023 C 
HETATM    9  S1  UNL     1      17.393   2.102  49.502  1.00  0.00    -0.052 SA
HETATM   10  S2  UNL     1      18.077   4.014  48.767  1.00  0.00    -0.063 SA
HETATM   11  C10 UNL     1      19.458   3.754  47.630  1.00  0.00     0.070 C 
HETATM   12  C11 UNL     1      20.649   4.331  47.676  1.00  0.00     0.035 C 
HETATM   13  C12 UNL     1      21.867   4.260  46.879  1.00  0.00     0.186 C 
HETATM   14  O2  UNL     1      22.017   3.232  46.117  1.00  0.00    -0.291 OA
HETATM   15  C13 UNL     1      22.668   5.466  47.168  1.00  0.00     0.356 C 
HETATM   16  N1  UNL     1      21.788   6.281  47.977  1.00  0.00     0.105 N 
HETATM   17  C14 UNL     1      22.688   6.982  48.910  1.00  0.00     0.311 C 
HETATM   18  C15 UNL     1      20.995   5.302  48.698  1.00  0.00     0.334 C 
HETATM   19  C16 UNL     1      21.709   4.795  49.889  1.00  0.00     0.394 A 
HETATM   20  O3  UNL     1      22.345   4.281  50.852  1.00  0.00    -0.142 OA
HETATM   21  N2  UNL     1      22.358   3.500  49.739  1.00  0.00     0.122 N 
HETATM   22  C17 UNL     1      23.103   2.781  50.722  1.00  0.00     0.181 A 
HETATM   23  C18 UNL     1      24.476   2.706  50.663  1.00  0.00     0.041 A 
HETATM   24  C19 UNL     1      25.327   2.051  51.533  1.00  0.00     0.002 A 
HETATM   25  C20 UNL     1      24.739   1.389  52.590  1.00  0.00     0.001 A 
HETATM   26  C21 UNL     1      23.339   1.435  52.696  1.00  0.00     0.014 A 
HETATM   27  C22 UNL     1      22.543   2.109  51.792  1.00  0.00     0.008 A 
HETATM   28  H16 UNL     1      22.480   2.775  48.956  1.00  0.00     0.329 HD
ENDROOT
BRANCH   7  29
HETATM   29  C8  UNL     1      17.993   3.977  51.583  1.00  0.00     0.427 C 
HETATM   30  O1  UNL     1      16.984   4.148  52.331  1.00  0.00    -0.426 OA
ENDBRANCH   7  29
TORSDOF 1
ENDMDL
MODEL 8
REMARK VINA RESULT:      -7.5     10.244     13.760
REMARK  1 active torsions:
REMARK  status: ('A' for Active; 'I' for Inactive)
REMARK    1  A    between atoms: C7_7  and  C8_8 
ROOT
HETATM    1  C1  UNL     1      29.432  10.889  42.743  1.00  0.00     0.049 C 
HETATM    2  C2  UNL     1      29.438  10.358  44.125  1.00  0.00    -0.044 C 
HETATM    3  C3  UNL     1      28.330   9.847  44.685  1.00  0.00     0.009 C 
HETATM    4  C4  UNL     1      28.278   9.016  45.925  1.00  0.00     0.009 C 
HETATM    5  C5  UNL     1      29.222   8.985  46.899  1.00  0.00    -0.042 C 
HETATM    6  C6  UNL     1      30.095  10.125  47.223  1.00  0.00     0.078 C 
HETATM    7  C7  UNL     1      30.969  10.553  46.097  1.00  0.00    -0.024 C 
HETATM    8  C9  UNL     1      30.746  10.443  44.775  1.00  0.00     0.023 C 
HETATM    9  S1  UNL     1      32.140  10.367  43.604  1.00  0.00    -0.052 SA
HETATM   10  S2  UNL     1      33.744   9.432  44.708  1.00  0.00    -0.063 SA
HETATM   11  C10 UNL     1      33.638   7.639  44.503  1.00  0.00     0.070 C 
HETATM   12  C11 UNL     1      33.621   6.726  45.462  1.00  0.00     0.035 C 
HETATM   13  C12 UNL     1      33.542   5.272  45.508  1.00  0.00     0.186 C 
HETATM   14  O2  UNL     1      33.099   4.670  44.458  1.00  0.00    -0.291 OA
HETATM   15  C13 UNL     1      34.020   4.834  46.834  1.00  0.00     0.356 C 
HETATM   16  N1  UNL     1      34.540   6.044  47.432  1.00  0.00     0.105 N 
HETATM   17  C14 UNL     1      34.256   5.897  48.870  1.00  0.00     0.311 C 
HETATM   18  C15 UNL     1      33.700   7.084  46.867  1.00  0.00     0.334 C 
HETATM   19  C16 UNL     1      32.421   7.206  47.599  1.00  0.00     0.394 A 
HETATM   20  O3  UNL     1      31.286   7.257  48.152  1.00  0.00    -0.142 OA
HETATM   21  N2  UNL     1      31.270   6.562  46.984  1.00  0.00     0.122 N 
HETATM   22  C17 UNL     1      29.928   6.531  47.468  1.00  0.00     0.181 A 
HETATM   23  C18 UNL     1      29.398   5.391  48.031  1.00  0.00     0.041 A 
HETATM   24  C19 UNL     1      28.126   5.209  48.538  1.00  0.00     0.002 A 
HETATM   25  C20 UNL     1      27.277   6.293  48.477  1.00  0.00     0.001 A 
HETATM   26  C21 UNL     1      27.768   7.481  47.911  1.00  0.00     0.014 A 
HETATM   27  C22 UNL     1      29.053   7.599  47.422  1.00  0.00     0.008 A 
HETATM   28  H16 UNL     1      31.082   5.978  46.101  1.00  0.00     0.329 HD
ENDROOT
BRANCH   7  29
HETATM   29  C8  UNL     1      32.261  11.176  46.350  1.00  0.00     0.427 C 
HETATM   30  O1  UNL     1      32.637  11.433  47.532  1.00  0.00    -0.426 OA
ENDBRANCH   7  29
TORSDOF 1
ENDMDL
MODEL 9
REMARK VINA RESULT:      -7.4      7.826     11.172
REMARK  1 active torsions:
REMARK  status: ('A' for Active; 'I' for Inactive)
REMARK    1  A    between atoms: C7_7  and  C8_8 
ROOT
HETATM    1  C1  UNL     1      23.489   9.998  44.468  1.00  0.00     0.049 C 
HETATM    2  C2  UNL     1      24.053   9.440  45.718  1.00  0.00    -0.044 C 
HETATM    3  C3  UNL     1      23.667   8.244  46.189  1.00  0.00     0.009 C 
HETATM    4  C4  UNL     1      24.369   7.450  47.242  1.00  0.00     0.009 C 
HETATM    5  C5  UNL     1      25.223   7.945  48.172  1.00  0.00    -0.042 C 
HETATM    6  C6  UNL     1      25.148   9.319  48.697  1.00  0.00     0.078 C 
HETATM    7  C7  UNL     1      25.334  10.370  47.659  1.00  0.00    -0.024 C 
HETATM    8  C9  UNL     1      25.048  10.310  46.346  1.00  0.00     0.023 C 
HETATM    9  S1  UNL     1      25.942  11.360  45.155  1.00  0.00    -0.052 SA
HETATM   10  S2  UNL     1      27.900  11.640  46.022  1.00  0.00    -0.063 SA
HETATM   11  C10 UNL     1      28.989  10.307  45.471  1.00  0.00     0.070 C 
HETATM   12  C11 UNL     1      29.727   9.514  46.231  1.00  0.00     0.035 C 
HETATM   13  C12 UNL     1      30.646   8.409  45.992  1.00  0.00     0.186 C 
HETATM   14  O2  UNL     1      30.570   7.810  44.854  1.00  0.00    -0.291 OA
HETATM   15  C13 UNL     1      31.485   8.248  47.196  1.00  0.00     0.356 C 
HETATM   16  N1  UNL     1      31.147   9.395  48.011  1.00  0.00     0.105 N 
HETATM   17  C14 UNL     1      31.252   8.908  49.397  1.00  0.00     0.311 C 
HETATM   18  C15 UNL     1      29.755   9.642  47.677  1.00  0.00     0.334 C 
HETATM   19  C16 UNL     1      28.849   8.761  48.445  1.00  0.00     0.394 A 
HETATM   20  O3  UNL     1      28.069   7.950  49.019  1.00  0.00    -0.142 OA
HETATM   21  N2  UNL     1      28.348   7.592  47.738  1.00  0.00     0.122 N 
HETATM   22  C17 UNL     1      27.460   6.589  48.233  1.00  0.00     0.181 A 
HETATM   23  C18 UNL     1      27.918   5.335  48.572  1.00  0.00     0.041 A 
HETATM   24  C19 UNL     1      27.186   4.270  49.059  1.00  0.00     0.002 A 
HETATM   25  C20 UNL     1      25.833   4.476  49.229  1.00  0.00     0.001 A 
HETATM   26  C21 UNL     1      25.315   5.740  48.898  1.00  0.00     0.014 A 
HETATM   27  C22 UNL     1      26.102   6.766  48.415  1.00  0.00     0.008 A 
HETATM   28  H16 UNL     1      28.469   7.159  46.762  1.00  0.00     0.329 HD
ENDROOT
BRANCH   7  29
HETATM   29  C8  UNL     1      25.898  11.667  48.003  1.00  0.00     0.427 C 
HETATM   30  O1  UNL     1      25.146  12.658  48.245  1.00  0.00    -0.426 OA
ENDBRANCH   7  29
TORSDOF 1
ENDMDL
