MODEL 1
REMARK VINA RESULT:      -6.1      0.000      0.000
REMARK  3 active torsions:
REMARK  status: ('A' for Active; 'I' for Inactive)
REMARK    1  A    between atoms: C2_2  and  C3_3 
REMARK    2  A    between atoms: C8_8  and  O1_9 
REMARK    3  A    between atoms: O1_9  and  C9_10 
ROOT
HETATM    1  C3  UNL     1      32.410   4.408  47.279  1.00  0.00     0.109 C 
HETATM    2  C4  UNL     1      32.729   5.166  46.080  1.00  0.00     0.043 C 
HETATM    3  C5  UNL     1      32.731   6.326  45.439  1.00  0.00     0.008 C 
HETATM    4  C6  UNL     1      32.287   7.749  45.745  1.00  0.00     0.159 C 
HETATM    5  C7  UNL     1      30.988   7.496  46.487  1.00  0.00     0.068 C 
HETATM    6  C8  UNL     1      30.373   7.267  47.598  1.00  0.00     0.179 C 
HETATM    7  O2  UNL     1      30.856   7.129  48.928  1.00  0.00    -0.318 OA
HETATM    8  C11 UNL     1      32.317   7.042  48.816  1.00  0.00     0.096 C 
HETATM    9  C12 UNL     1      33.618   7.419  48.509  1.00  0.00     0.107 C 
HETATM   10  C13 UNL     1      35.047   7.753  48.210  1.00  0.00     0.117 C 
HETATM   11  N1  UNL     1      34.992   8.864  47.461  1.00  0.00    -0.255 NA
HETATM   12  C14 UNL     1      33.603   9.270  47.234  1.00  0.00     0.227 C 
HETATM   13  N2  UNL     1      33.320   8.289  46.475  1.00  0.00    -0.270 NA
HETATM   14  C15 UNL     1      32.570   5.692  49.352  1.00  0.00     0.214 C 
HETATM   15  O3  UNL     1      31.846   4.750  48.512  1.00  0.00    -0.340 OA
ENDROOT
BRANCH   6  16
HETATM   16  O1  UNL     1      29.131   7.044  48.170  1.00  0.00    -0.331 OA
BRANCH  16  17
HETATM   17  C9  UNL     1      28.619   5.708  48.240  1.00  0.00     0.173 C 
HETATM   18  C10 UNL     1      27.173   5.746  48.612  1.00  0.00     0.034 C 
ENDBRANCH  16  17
ENDBRANCH   6  16
BRANCH   1  19
HETATM   19  C2  UNL     1      32.653   3.127  47.337  1.00  0.00    -0.119 C 
HETATM   20  C1  UNL     1      32.822   1.838  47.110  1.00  0.00     0.099 C 
ENDBRANCH   1  19
TORSDOF 3
ENDMDL
MODEL 2
REMARK VINA RESULT:      -6.1      7.671     10.984
REMARK  3 active torsions:
REMARK  status: ('A' for Active; 'I' for Inactive)
REMARK    1  A    between atoms: C2_2  and  C3_3 
REMARK    2  A    between atoms: C8_8  and  O1_9 
REMARK    3  A    between atoms: O1_9  and  C9_10 
ROOT
HETATM    1  C3  UNL     1      24.687   3.883  49.856  1.00  0.00     0.109 C 
HETATM    2  C4  UNL     1      23.736   3.128  49.058  1.00  0.00     0.043 C 
HETATM    3  C5  UNL     1      22.688   2.319  49.008  1.00  0.00     0.008 C 
HETATM    4  C6  UNL     1      21.775   1.641  50.020  1.00  0.00     0.159 C 
HETATM    5  C7  UNL     1      22.776   1.235  51.086  1.00  0.00     0.068 C 
HETATM    6  C8  UNL     1      23.434   1.526  52.158  1.00  0.00     0.179 C 
HETATM    7  O2  UNL     1      23.453   2.701  52.958  1.00  0.00    -0.318 OA
HETATM    8  C11 UNL     1      22.728   3.720  52.189  1.00  0.00     0.096 C 
HETATM    9  C12 UNL     1      21.677   4.335  51.521  1.00  0.00     0.107 C 
HETATM   10  C13 UNL     1      20.594   5.063  50.786  1.00  0.00     0.117 C 
HETATM   11  N1  UNL     1      19.604   4.169  50.655  1.00  0.00    -0.255 NA
HETATM   12  C14 UNL     1      19.983   2.883  51.248  1.00  0.00     0.227 C 
HETATM   13  N2  UNL     1      20.860   2.606  50.369  1.00  0.00    -0.270 NA
HETATM   14  C15 UNL     1      23.785   4.724  51.966  1.00  0.00     0.214 C 
HETATM   15  O3  UNL     1      24.856   4.068  51.232  1.00  0.00    -0.340 OA
ENDROOT
BRANCH   6  16
HETATM   16  O1  UNL     1      24.357   1.050  53.075  1.00  0.00    -0.331 OA
BRANCH  16  17
HETATM   17  C9  UNL     1      25.410   0.187  52.629  1.00  0.00     0.173 C 
HETATM   18  C10 UNL     1      26.411   0.979  51.854  1.00  0.00     0.034 C 
ENDBRANCH  16  17
ENDBRANCH   6  16
BRANCH   1  19
HETATM   19  C2  UNL     1      25.633   4.575  49.282  1.00  0.00    -0.119 C 
HETATM   20  C1  UNL     1      26.767   5.121  48.883  1.00  0.00     0.099 C 
ENDBRANCH   1  19
TORSDOF 3
ENDMDL
MODEL 3
REMARK VINA RESULT:      -6.0      8.396      9.906
REMARK  3 active torsions:
REMARK  status: ('A' for Active; 'I' for Inactive)
REMARK    1  A    between atoms: C2_2  and  C3_3 
REMARK    2  A    between atoms: C8_8  and  O1_9 
REMARK    3  A    between atoms: O1_9  and  C9_10 
ROOT
HETATM    1  C3  UNL     1      26.095   2.500  52.032  1.00  0.00     0.109 C 
HETATM    2  C4  UNL     1      26.038   2.854  50.623  1.00  0.00     0.043 C 
HETATM    3  C5  UNL     1      25.311   3.163  49.560  1.00  0.00     0.008 C 
HETATM    4  C6  UNL     1      23.829   3.327  49.255  1.00  0.00     0.159 C 
HETATM    5  C7  UNL     1      23.239   2.179  50.051  1.00  0.00     0.068 C 
HETATM    6  C8  UNL     1      22.765   1.730  51.165  1.00  0.00     0.179 C 
HETATM    7  O2  UNL     1      22.578   2.358  52.427  1.00  0.00    -0.318 OA
HETATM    8  C11 UNL     1      23.283   3.643  52.343  1.00  0.00     0.096 C 
HETATM    9  C12 UNL     1      23.608   4.915  51.891  1.00  0.00     0.107 C 
HETATM   10  C13 UNL     1      24.017   6.291  51.462  1.00  0.00     0.117 C 
HETATM   11  N1  UNL     1      23.348   6.511  50.322  1.00  0.00    -0.255 NA
HETATM   12  C14 UNL     1      22.532   5.347  49.965  1.00  0.00     0.227 C 
HETATM   13  N2  UNL     1      23.521   4.597  49.683  1.00  0.00    -0.270 NA
HETATM   14  C15 UNL     1      24.312   3.480  53.386  1.00  0.00     0.214 C 
HETATM   15  O3  UNL     1      25.121   2.327  53.021  1.00  0.00    -0.340 OA
ENDROOT
BRANCH   6  16
HETATM   16  O1  UNL     1      22.236   0.614  51.794  1.00  0.00    -0.331 OA
BRANCH  16  17
HETATM   17  C9  UNL     1      22.960   0.004  52.870  1.00  0.00     0.173 C 
HETATM   18  C10 UNL     1      22.116  -1.050  53.506  1.00  0.00     0.034 C 
ENDBRANCH  16  17
ENDBRANCH   6  16
BRANCH   1  19
HETATM   19  C2  UNL     1      27.240   2.268  52.612  1.00  0.00    -0.119 C 
HETATM   20  C1  UNL     1      28.326   2.271  53.362  1.00  0.00     0.099 C 
ENDBRANCH   1  19
TORSDOF 3
ENDMDL
MODEL 4
REMARK VINA RESULT:      -5.9      7.978     10.941
REMARK  3 active torsions:
REMARK  status: ('A' for Active; 'I' for Inactive)
REMARK    1  A    between atoms: C2_2  and  C3_3 
REMARK    2  A    between atoms: C8_8  and  O1_9 
REMARK    3  A    between atoms: O1_9  and  C9_10 
ROOT
HETATM    1  C3  UNL     1      22.321   4.963  51.297  1.00  0.00     0.109 C 
HETATM    2  C4  UNL     1      23.158   4.776  52.470  1.00  0.00     0.043 C 
HETATM    3  C5  UNL     1      23.922   3.980  53.203  1.00  0.00     0.008 C 
HETATM    4  C6  UNL     1      24.385   2.531  53.130  1.00  0.00     0.159 C 
HETATM    5  C7  UNL     1      23.120   1.846  52.650  1.00  0.00     0.068 C 
HETATM    6  C8  UNL     1      22.372   1.458  51.672  1.00  0.00     0.179 C 
HETATM    7  O2  UNL     1      22.528   1.581  50.263  1.00  0.00    -0.318 OA
HETATM    8  C11 UNL     1      23.650   2.507  50.065  1.00  0.00     0.096 C 
HETATM    9  C12 UNL     1      24.943   3.010  50.134  1.00  0.00     0.107 C 
HETATM   10  C13 UNL     1      26.311   3.618  50.164  1.00  0.00     0.117 C 
HETATM   11  N1  UNL     1      27.012   2.849  51.008  1.00  0.00    -0.255 NA
HETATM   12  C14 UNL     1      26.175   1.777  51.552  1.00  0.00     0.227 C 
HETATM   13  N2  UNL     1      25.448   2.546  52.258  1.00  0.00    -0.270 NA
HETATM   14  C15 UNL     1      22.987   3.622  49.364  1.00  0.00     0.214 C 
HETATM   15  O3  UNL     1      21.942   4.126  50.242  1.00  0.00    -0.340 OA
ENDROOT
BRANCH   6  16
HETATM   16  O1  UNL     1      21.189   0.814  51.347  1.00  0.00    -0.331 OA
BRANCH  16  17
HETATM   17  C9  UNL     1      20.072   0.903  52.240  1.00  0.00     0.173 C 
HETATM   18  C10 UNL     1      20.066  -0.278  53.153  1.00  0.00     0.034 C 
ENDBRANCH  16  17
ENDBRANCH   6  16
BRANCH   1  19
HETATM   19  C2  UNL     1      21.744   6.111  51.069  1.00  0.00    -0.119 C 
HETATM   20  C1  UNL     1      21.439   7.371  50.821  1.00  0.00     0.099 C 
ENDBRANCH   1  19
TORSDOF 3
ENDMDL
MODEL 5
REMARK VINA RESULT:      -5.7      2.185      4.292
REMARK  3 active torsions:
REMARK  status: ('A' for Active; 'I' for Inactive)
REMARK    1  A    between atoms: C2_2  and  C3_3 
REMARK    2  A    between atoms: C8_8  and  O1_9 
REMARK    3  A    between atoms: O1_9  and  C9_10 
ROOT
HETATM    1  C3  UNL     1      33.753   8.120  46.417  1.00  0.00     0.109 C 
HETATM    2  C4  UNL     1      34.712   7.681  47.417  1.00  0.00     0.043 C 
HETATM    3  C5  UNL     1      35.054   6.807  48.353  1.00  0.00     0.008 C 
HETATM    4  C6  UNL     1      34.445   5.550  48.957  1.00  0.00     0.159 C 
HETATM    5  C7  UNL     1      32.982   5.946  49.037  1.00  0.00     0.068 C 
HETATM    6  C8  UNL     1      31.820   6.014  48.480  1.00  0.00     0.179 C 
HETATM    7  O2  UNL     1      31.371   5.615  47.190  1.00  0.00    -0.318 OA
HETATM    8  C11 UNL     1      32.584   5.301  46.425  1.00  0.00     0.096 C 
HETATM    9  C12 UNL     1      33.770   4.667  46.078  1.00  0.00     0.107 C 
HETATM   10  C13 UNL     1      35.052   4.031  45.638  1.00  0.00     0.117 C 
HETATM   11  N1  UNL     1      35.421   3.250  46.663  1.00  0.00    -0.255 NA
HETATM   12  C14 UNL     1      34.460   3.350  47.764  1.00  0.00     0.227 C 
HETATM   13  N2  UNL     1      34.764   4.546  48.074  1.00  0.00    -0.270 NA
HETATM   14  C15 UNL     1      32.515   6.304  45.346  1.00  0.00     0.214 C 
HETATM   15  O3  UNL     1      32.525   7.617  45.974  1.00  0.00    -0.340 OA
ENDROOT
BRANCH   6  16
HETATM   16  O1  UNL     1      30.506   6.415  48.663  1.00  0.00    -0.331 OA
BRANCH  16  17
HETATM   17  C9  UNL     1      29.444   5.595  48.159  1.00  0.00     0.173 C 
HETATM   18  C10 UNL     1      28.159   6.353  48.213  1.00  0.00     0.034 C 
ENDBRANCH  16  17
ENDBRANCH   6  16
BRANCH   1  19
HETATM   19  C2  UNL     1      33.972   9.200  45.718  1.00  0.00    -0.119 C 
HETATM   20  C1  UNL     1      34.343  10.108  44.835  1.00  0.00     0.099 C 
ENDBRANCH   1  19
TORSDOF 3
ENDMDL
MODEL 6
REMARK VINA RESULT:      -5.7      9.734     12.941
REMARK  3 active torsions:
REMARK  status: ('A' for Active; 'I' for Inactive)
REMARK    1  A    between atoms: C2_2  and  C3_3 
REMARK    2  A    between atoms: C8_8  and  O1_9 
REMARK    3  A    between atoms: O1_9  and  C9_10 
ROOT
HETATM    1  C3  UNL     1      22.983   2.383  50.850  1.00  0.00     0.109 C 
HETATM    2  C4  UNL     1      22.243   1.673  49.819  1.00  0.00     0.043 C 
HETATM    3  C5  UNL     1      21.099   1.154  49.399  1.00  0.00     0.008 C 
HETATM    4  C6  UNL     1      19.682   1.037  49.942  1.00  0.00     0.159 C 
HETATM    5  C7  UNL     1      19.955   0.737  51.404  1.00  0.00     0.068 C 
HETATM    6  C8  UNL     1      20.175   1.167  52.601  1.00  0.00     0.179 C 
HETATM    7  O2  UNL     1      20.269   2.486  53.124  1.00  0.00    -0.318 OA
HETATM    8  C11 UNL     1      20.318   3.376  51.957  1.00  0.00     0.096 C 
HETATM    9  C12 UNL     1      19.912   3.996  50.783  1.00  0.00     0.107 C 
HETATM   10  C13 UNL     1      19.544   4.710  49.518  1.00  0.00     0.117 C 
HETATM   11  N1  UNL     1      18.453   4.075  49.068  1.00  0.00    -0.255 NA
HETATM   12  C14 UNL     1      18.091   2.969  49.957  1.00  0.00     0.227 C 
HETATM   13  N2  UNL     1      19.096   2.248  49.659  1.00  0.00    -0.270 NA
HETATM   14  C15 UNL     1      21.647   3.993  52.116  1.00  0.00     0.214 C 
HETATM   15  O3  UNL     1      22.629   2.918  52.093  1.00  0.00    -0.340 OA
ENDROOT
BRANCH   6  16
HETATM   16  O1  UNL     1      20.420   0.778  53.908  1.00  0.00    -0.331 OA
BRANCH  16  17
HETATM   17  C9  UNL     1      21.172  -0.416  54.157  1.00  0.00     0.173 C 
HETATM   18  C10 UNL     1      22.596  -0.201  53.760  1.00  0.00     0.034 C 
ENDBRANCH  16  17
ENDBRANCH   6  16
BRANCH   1  19
HETATM   19  C2  UNL     1      24.254   2.634  50.700  1.00  0.00    -0.119 C 
HETATM   20  C1  UNL     1      25.535   2.921  50.844  1.00  0.00     0.099 C 
ENDBRANCH   1  19
TORSDOF 3
ENDMDL
MODEL 7
REMARK VINA RESULT:      -5.6      8.746     11.721
REMARK  3 active torsions:
REMARK  status: ('A' for Active; 'I' for Inactive)
REMARK    1  A    between atoms: C2_2  and  C3_3 
REMARK    2  A    between atoms: C8_8  and  O1_9 
REMARK    3  A    between atoms: O1_9  and  C9_10 
ROOT
HETATM    1  C3  UNL     1      20.358   3.203  51.541  1.00  0.00     0.109 C 
HETATM    2  C4  UNL     1      21.155   4.322  52.016  1.00  0.00     0.043 C 
HETATM    3  C5  UNL     1      22.343   4.812  52.337  1.00  0.00     0.008 C 
HETATM    4  C6  UNL     1      23.775   4.295  52.360  1.00  0.00     0.159 C 
HETATM    5  C7  UNL     1      23.565   2.885  52.881  1.00  0.00     0.068 C 
HETATM    6  C8  UNL     1      23.320   1.641  52.644  1.00  0.00     0.179 C 
HETATM    7  O2  UNL     1      23.084   0.945  51.426  1.00  0.00    -0.318 OA
HETATM    8  C11 UNL     1      22.911   1.981  50.401  1.00  0.00     0.096 C 
HETATM    9  C12 UNL     1      23.221   3.062  49.586  1.00  0.00     0.107 C 
HETATM   10  C13 UNL     1      23.480   4.220  48.672  1.00  0.00     0.117 C 
HETATM   11  N1  UNL     1      24.629   4.755  49.109  1.00  0.00    -0.255 NA
HETATM   12  C14 UNL     1      25.133   4.024  50.275  1.00  0.00     0.227 C 
HETATM   13  N2  UNL     1      24.211   4.414  51.062  1.00  0.00    -0.270 NA
HETATM   14  C15 UNL     1      21.523   1.736  49.970  1.00  0.00     0.214 C 
HETATM   15  O3  UNL     1      20.672   1.901  51.139  1.00  0.00    -0.340 OA
ENDROOT
BRANCH   6  16
HETATM   16  O1  UNL     1      23.146   0.397  53.230  1.00  0.00    -0.331 OA
BRANCH  16  17
HETATM   17  C9  UNL     1      21.919   0.106  53.912  1.00  0.00     0.173 C 
HETATM   18  C10 UNL     1      22.138  -1.010  54.879  1.00  0.00     0.034 C 
ENDBRANCH  16  17
ENDBRANCH   6  16
BRANCH   1  19
HETATM   19  C2  UNL     1      19.063   3.314  51.422  1.00  0.00    -0.119 C 
HETATM   20  C1  UNL     1      17.786   3.634  51.512  1.00  0.00     0.099 C 
ENDBRANCH   1  19
TORSDOF 3
ENDMDL
MODEL 8
REMARK VINA RESULT:      -5.5      9.217     11.011
REMARK  3 active torsions:
REMARK  status: ('A' for Active; 'I' for Inactive)
REMARK    1  A    between atoms: C2_2  and  C3_3 
REMARK    2  A    between atoms: C8_8  and  O1_9 
REMARK    3  A    between atoms: O1_9  and  C9_10 
ROOT
HETATM    1  C3  UNL     1      24.751   1.983  51.616  1.00  0.00     0.109 C 
HETATM    2  C4  UNL     1      23.546   1.609  52.338  1.00  0.00     0.043 C 
HETATM    3  C5  UNL     1      22.266   1.832  52.601  1.00  0.00     0.008 C 
HETATM    4  C6  UNL     1      21.212   2.833  52.152  1.00  0.00     0.159 C 
HETATM    5  C7  UNL     1      22.027   4.112  52.103  1.00  0.00     0.068 C 
HETATM    6  C8  UNL     1      22.795   4.912  51.444  1.00  0.00     0.179 C 
HETATM    7  O2  UNL     1      23.303   4.847  50.117  1.00  0.00    -0.318 OA
HETATM    8  C11 UNL     1      22.990   3.496  49.635  1.00  0.00     0.096 C 
HETATM    9  C12 UNL     1      22.226   2.395  49.271  1.00  0.00     0.107 C 
HETATM   10  C13 UNL     1      21.473   1.168  48.858  1.00  0.00     0.117 C 
HETATM   11  N1  UNL     1      20.211   1.389  49.250  1.00  0.00    -0.255 NA
HETATM   12  C14 UNL     1      20.093   2.688  49.918  1.00  0.00     0.227 C 
HETATM   13  N2  UNL     1      20.755   2.347  50.950  1.00  0.00    -0.270 NA
HETATM   14  C15 UNL     1      24.339   2.948  49.407  1.00  0.00     0.214 C 
HETATM   15  O3  UNL     1      25.041   2.983  50.682  1.00  0.00    -0.340 OA
ENDROOT
BRANCH   6  16
HETATM   16  O1  UNL     1      23.507   6.099  51.512  1.00  0.00    -0.331 OA
BRANCH  16  17
HETATM   17  C9  UNL     1      23.030   7.246  50.798  1.00  0.00     0.173 C 
HETATM   18  C10 UNL     1      24.175   8.155  50.491  1.00  0.00     0.034 C 
ENDBRANCH  16  17
ENDBRANCH   6  16
BRANCH   1  19
HETATM   19  C2  UNL     1      25.862   1.322  51.792  1.00  0.00    -0.119 C 
HETATM   20  C1  UNL     1      26.824   0.499  52.166  1.00  0.00     0.099 C 
ENDBRANCH   1  19
TORSDOF 3
ENDMDL
MODEL 9
REMARK VINA RESULT:      -5.5      2.702      4.747
REMARK  3 active torsions:
REMARK  status: ('A' for Active; 'I' for Inactive)
REMARK    1  A    between atoms: C2_2  and  C3_3 
REMARK    2  A    between atoms: C8_8  and  O1_9 
REMARK    3  A    between atoms: O1_9  and  C9_10 
ROOT
HETATM    1  C3  UNL     1      31.213   8.251  46.038  1.00  0.00     0.109 C 
HETATM    2  C4  UNL     1      29.774   8.129  45.868  1.00  0.00     0.043 C 
HETATM    3  C5  UNL     1      28.591   7.842  46.390  1.00  0.00     0.008 C 
HETATM    4  C6  UNL     1      28.070   7.396  47.749  1.00  0.00     0.159 C 
HETATM    5  C7  UNL     1      29.144   6.407  48.161  1.00  0.00     0.068 C 
HETATM    6  C8  UNL     1      30.279   6.177  48.732  1.00  0.00     0.179 C 
HETATM    7  O2  UNL     1      31.204   7.049  49.370  1.00  0.00    -0.318 OA
HETATM    8  C11 UNL     1      30.755   8.410  49.051  1.00  0.00     0.096 C 
HETATM    9  C12 UNL     1      29.925   9.521  48.999  1.00  0.00     0.107 C 
HETATM   10  C13 UNL     1      29.089  10.761  48.902  1.00  0.00     0.117 C 
HETATM   11  N1  UNL     1      27.873  10.392  49.328  1.00  0.00    -0.255 NA
HETATM   12  C14 UNL     1      27.855   8.970  49.682  1.00  0.00     0.227 C 
HETATM   13  N2  UNL     1      27.979   8.552  48.487  1.00  0.00    -0.270 NA
HETATM   14  C15 UNL     1      31.905   8.924  48.284  1.00  0.00     0.214 C 
HETATM   15  O3  UNL     1      32.073   8.060  47.125  1.00  0.00    -0.340 OA
ENDROOT
BRANCH   6  16
HETATM   16  O1  UNL     1      31.194   5.189  49.058  1.00  0.00    -0.331 OA
BRANCH  16  17
HETATM   17  C9  UNL     1      32.283   4.917  48.168  1.00  0.00     0.173 C 
HETATM   18  C10 UNL     1      31.812   4.041  47.054  1.00  0.00     0.034 C 
ENDBRANCH  16  17
ENDBRANCH   6  16
BRANCH   1  19
HETATM   19  C2  UNL     1      31.972   8.605  45.037  1.00  0.00    -0.119 C 
HETATM   20  C1  UNL     1      32.695   8.683  43.936  1.00  0.00     0.099 C 
ENDBRANCH   1  19
TORSDOF 3
ENDMDL
