MODEL 1
REMARK VINA RESULT:      -8.2      0.000      0.000
REMARK  0 active torsions:
REMARK  status: ('A' for Active; 'I' for Inactive)
ROOT
HETATM    1  C1  UNL     1      25.831   4.169  49.980  1.00  0.00     0.018 C 
HETATM    2  C2  UNL     1      25.464   5.277  49.376  1.00  0.00     0.132 C 
HETATM    3  N1  UNL     1      24.291   5.345  48.594  1.00  0.00    -0.255 NA
HETATM    4  C3  UNL     1      23.409   4.395  48.612  1.00  0.00     0.210 C 
HETATM    5  N2  UNL     1      23.728   3.299  49.476  1.00  0.00    -0.335 N 
HETATM    6  C4  UNL     1      22.595   2.385  49.313  1.00  0.00     0.203 C 
HETATM    7  S1  UNL     1      21.354   2.780  50.618  1.00  0.00    -0.144 SA
HETATM    8  C5  UNL     1      22.281   3.031  52.155  1.00  0.00     0.115 C 
HETATM    9  C6  UNL     1      23.260   1.966  52.401  1.00  0.00    -0.031 A 
HETATM   10  C7  UNL     1      24.610   1.713  52.112  1.00  0.00    -0.045 A 
HETATM   11  C8  UNL     1      25.294   0.582  52.497  1.00  0.00     0.009 A 
HETATM   12  C9  UNL     1      24.630  -0.388  53.218  1.00  0.00     0.013 A 
HETATM   13  C10 UNL     1      23.301  -0.212  53.540  1.00  0.00    -0.025 A 
HETATM   14  C11 UNL     1      22.647  -1.194  54.254  1.00  0.00     0.012 A 
HETATM   15  C12 UNL     1      21.316  -1.064  54.587  1.00  0.00     0.001 A 
HETATM   16  C13 UNL     1      20.682   0.098  54.168  1.00  0.00     0.001 A 
HETATM   17  C14 UNL     1      21.353   1.055  53.464  1.00  0.00     0.013 A 
HETATM   18  C15 UNL     1      22.682   0.944  53.122  1.00  0.00    -0.018 A 
HETATM   19  C16 UNL     1      25.593   2.551  51.335  1.00  0.00     0.097 C 
HETATM   20  C17 UNL     1      24.906   3.271  50.237  1.00  0.00     0.030 C 
ENDROOT
TORSDOF 0
ENDMDL
MODEL 2
REMARK VINA RESULT:      -8.2      2.678      6.027
REMARK  0 active torsions:
REMARK  status: ('A' for Active; 'I' for Inactive)
ROOT
HETATM    1  C1  UNL     1      22.824  -1.167  54.539  1.00  0.00     0.018 C 
HETATM    2  C2  UNL     1      23.498  -1.258  55.663  1.00  0.00     0.132 C 
HETATM    3  N1  UNL     1      24.904  -1.136  55.699  1.00  0.00    -0.255 NA
HETATM    4  C3  UNL     1      25.573  -0.712  54.673  1.00  0.00     0.210 C 
HETATM    5  N2  UNL     1      24.775  -0.388  53.530  1.00  0.00    -0.335 N 
HETATM    6  C4  UNL     1      25.754   0.054  52.535  1.00  0.00     0.203 C 
HETATM    7  S1  UNL     1      25.921   1.884  52.675  1.00  0.00    -0.144 SA
HETATM    8  C5  UNL     1      24.243   2.544  52.855  1.00  0.00     0.115 C 
HETATM    9  C6  UNL     1      23.311   1.987  51.868  1.00  0.00    -0.031 A 
HETATM   10  C7  UNL     1      22.430   0.899  51.774  1.00  0.00    -0.045 A 
HETATM   11  C8  UNL     1      21.643   0.622  50.679  1.00  0.00     0.009 A 
HETATM   12  C9  UNL     1      21.704   1.456  49.582  1.00  0.00     0.013 A 
HETATM   13  C10 UNL     1      22.548   2.546  49.598  1.00  0.00    -0.025 A 
HETATM   14  C11 UNL     1      22.607   3.366  48.491  1.00  0.00     0.012 A 
HETATM   15  C12 UNL     1      23.445   4.460  48.461  1.00  0.00     0.001 A 
HETATM   16  C13 UNL     1      24.215   4.684  49.594  1.00  0.00     0.001 A 
HETATM   17  C14 UNL     1      24.137   3.858  50.676  1.00  0.00     0.013 A 
HETATM   18  C15 UNL     1      23.306   2.761  50.728  1.00  0.00    -0.018 A 
HETATM   19  C16 UNL     1      22.151  -0.192  52.776  1.00  0.00     0.097 C 
HETATM   20  C17 UNL     1      23.379  -0.524  53.536  1.00  0.00     0.030 C 
ENDROOT
TORSDOF 0
ENDMDL
MODEL 3
REMARK VINA RESULT:      -8.1      2.216      4.104
REMARK  0 active torsions:
REMARK  status: ('A' for Active; 'I' for Inactive)
ROOT
HETATM    1  C1  UNL     1      19.546   2.980  51.595  1.00  0.00     0.018 C 
HETATM    2  C2  UNL     1      19.266   3.913  50.714  1.00  0.00     0.132 C 
HETATM    3  N1  UNL     1      20.047   5.083  50.594  1.00  0.00    -0.255 NA
HETATM    4  C3  UNL     1      21.196   5.193  51.184  1.00  0.00     0.210 C 
HETATM    5  N2  UNL     1      21.587   4.048  51.950  1.00  0.00    -0.335 N 
HETATM    6  C4  UNL     1      22.891   4.426  52.500  1.00  0.00     0.203 C 
HETATM    7  S1  UNL     1      24.193   3.832  51.338  1.00  0.00    -0.144 SA
HETATM    8  C5  UNL     1      23.715   2.157  50.839  1.00  0.00     0.115 C 
HETATM    9  C6  UNL     1      23.341   1.315  51.981  1.00  0.00    -0.031 A 
HETATM   10  C7  UNL     1      22.176   0.992  52.692  1.00  0.00    -0.045 A 
HETATM   11  C8  UNL     1      22.126   0.125  53.761  1.00  0.00     0.009 A 
HETATM   12  C9  UNL     1      23.289  -0.482  54.185  1.00  0.00     0.013 A 
HETATM   13  C10 UNL     1      24.476  -0.213  53.537  1.00  0.00    -0.025 A 
HETATM   14  C11 UNL     1      25.634  -0.820  53.977  1.00  0.00     0.012 A 
HETATM   15  C12 UNL     1      26.844  -0.571  53.365  1.00  0.00     0.001 A 
HETATM   16  C13 UNL     1      26.828   0.313  52.296  1.00  0.00     0.001 A 
HETATM   17  C14 UNL     1      25.669   0.899  51.880  1.00  0.00     0.013 A 
HETATM   18  C15 UNL     1      24.450   0.663  52.476  1.00  0.00    -0.018 A 
HETATM   19  C16 UNL     1      20.768   1.494  52.496  1.00  0.00     0.097 C 
HETATM   20  C17 UNL     1      20.780   2.905  52.043  1.00  0.00     0.030 C 
ENDROOT
TORSDOF 0
ENDMDL
MODEL 4
REMARK VINA RESULT:      -7.9      2.871      4.810
REMARK  0 active torsions:
REMARK  status: ('A' for Active; 'I' for Inactive)
ROOT
HETATM    1  C1  UNL     1      18.074   0.883  51.369  1.00  0.00     0.018 C 
HETATM    2  C2  UNL     1      17.645   1.633  50.380  1.00  0.00     0.132 C 
HETATM    3  N1  UNL     1      18.070   2.969  50.220  1.00  0.00    -0.255 NA
HETATM    4  C3  UNL     1      19.063   3.450  50.902  1.00  0.00     0.210 C 
HETATM    5  N2  UNL     1      19.672   2.523  51.807  1.00  0.00    -0.335 N 
HETATM    6  C4  UNL     1      20.741   3.302  52.436  1.00  0.00     0.203 C 
HETATM    7  S1  UNL     1      22.284   3.040  51.462  1.00  0.00    -0.144 SA
HETATM    8  C5  UNL     1      22.363   1.270  51.085  1.00  0.00     0.115 C 
HETATM    9  C6  UNL     1      22.114   0.432  52.264  1.00  0.00    -0.031 A 
HETATM   10  C7  UNL     1      21.014  -0.171  52.892  1.00  0.00    -0.045 A 
HETATM   11  C8  UNL     1      21.088  -0.942  54.031  1.00  0.00     0.009 A 
HETATM   12  C9  UNL     1      22.318  -1.153  54.617  1.00  0.00     0.013 A 
HETATM   13  C10 UNL     1      23.447  -0.591  54.059  1.00  0.00    -0.025 A 
HETATM   14  C11 UNL     1      24.670  -0.802  54.661  1.00  0.00     0.012 A 
HETATM   15  C12 UNL     1      25.822  -0.250  54.142  1.00  0.00     0.001 A 
HETATM   16  C13 UNL     1      25.680   0.518  52.995  1.00  0.00     0.001 A 
HETATM   17  C14 UNL     1      24.459   0.711  52.419  1.00  0.00     0.013 A 
HETATM   18  C15 UNL     1      23.297   0.168  52.920  1.00  0.00    -0.018 A 
HETATM   19  C16 UNL     1      19.554  -0.117  52.519  1.00  0.00     0.097 C 
HETATM   20  C17 UNL     1      19.217   1.202  51.935  1.00  0.00     0.030 C 
ENDROOT
TORSDOF 0
ENDMDL
MODEL 5
REMARK VINA RESULT:      -7.8      2.441      4.757
REMARK  0 active torsions:
REMARK  status: ('A' for Active; 'I' for Inactive)
ROOT
HETATM    1  C1  UNL     1      21.095   0.170  51.730  1.00  0.00     0.018 C 
HETATM    2  C2  UNL     1      20.484   0.731  50.711  1.00  0.00     0.132 C 
HETATM    3  N1  UNL     1      20.566   2.119  50.466  1.00  0.00    -0.255 NA
HETATM    4  C3  UNL     1      21.419   2.868  51.094  1.00  0.00     0.210 C 
HETATM    5  N2  UNL     1      22.246   2.175  52.034  1.00  0.00    -0.335 N 
HETATM    6  C4  UNL     1      23.098   3.227  52.591  1.00  0.00     0.203 C 
HETATM    7  S1  UNL     1      24.647   3.292  51.594  1.00  0.00    -0.144 SA
HETATM    8  C5  UNL     1      25.155   1.575  51.314  1.00  0.00     0.115 C 
HETATM    9  C6  UNL     1      25.132   0.775  52.545  1.00  0.00    -0.031 A 
HETATM   10  C7  UNL     1      24.220  -0.040  53.233  1.00  0.00    -0.045 A 
HETATM   11  C8  UNL     1      24.494  -0.699  54.411  1.00  0.00     0.009 A 
HETATM   12  C9  UNL     1      25.745  -0.567  54.976  1.00  0.00     0.013 A 
HETATM   13  C10 UNL     1      26.695   0.219  54.359  1.00  0.00    -0.025 A 
HETATM   14  C11 UNL     1      27.939   0.350  54.940  1.00  0.00     0.012 A 
HETATM   15  C12 UNL     1      28.915   1.134  54.362  1.00  0.00     0.001 A 
HETATM   16  C13 UNL     1      28.576   1.774  53.178  1.00  0.00     0.001 A 
HETATM   17  C14 UNL     1      27.338   1.627  52.623  1.00  0.00     0.013 A 
HETATM   18  C15 UNL     1      26.350   0.848  53.183  1.00  0.00    -0.018 A 
HETATM   19  C16 UNL     1      22.788  -0.367  52.895  1.00  0.00     0.097 C 
HETATM   20  C17 UNL     1      22.131   0.792  52.247  1.00  0.00     0.030 C 
ENDROOT
TORSDOF 0
ENDMDL
MODEL 6
REMARK VINA RESULT:      -7.7      1.610      2.873
REMARK  0 active torsions:
REMARK  status: ('A' for Active; 'I' for Inactive)
ROOT
HETATM    1  C1  UNL     1      22.753   4.129  48.871  1.00  0.00     0.018 C 
HETATM    2  C2  UNL     1      23.800   4.866  48.578  1.00  0.00     0.132 C 
HETATM    3  N1  UNL     1      24.532   5.547  49.574  1.00  0.00    -0.255 NA
HETATM    4  C3  UNL     1      24.349   5.304  50.835  1.00  0.00     0.210 C 
HETATM    5  N2  UNL     1      23.359   4.309  51.114  1.00  0.00    -0.335 N 
HETATM    6  C4  UNL     1      23.348   4.229  52.577  1.00  0.00     0.203 C 
HETATM    7  S1  UNL     1      24.523   2.902  53.083  1.00  0.00    -0.144 SA
HETATM    8  C5  UNL     1      24.246   1.509  51.958  1.00  0.00     0.115 C 
HETATM    9  C6  UNL     1      22.823   1.182  51.809  1.00  0.00    -0.031 A 
HETATM   10  C7  UNL     1      21.760   1.541  50.966  1.00  0.00    -0.045 A 
HETATM   11  C8  UNL     1      20.481   1.042  51.063  1.00  0.00     0.009 A 
HETATM   12  C9  UNL     1      20.194   0.123  52.050  1.00  0.00     0.013 A 
HETATM   13  C10 UNL     1      21.186  -0.279  52.920  1.00  0.00    -0.025 A 
HETATM   14  C11 UNL     1      20.884  -1.192  53.909  1.00  0.00     0.012 A 
HETATM   15  C12 UNL     1      21.843  -1.612  54.805  1.00  0.00     0.001 A 
HETATM   16  C13 UNL     1      23.112  -1.070  54.656  1.00  0.00     0.001 A 
HETATM   17  C14 UNL     1      23.385  -0.169  53.669  1.00  0.00     0.013 A 
HETATM   18  C15 UNL     1      22.443   0.262  52.762  1.00  0.00    -0.018 A 
HETATM   19  C16 UNL     1      21.741   2.520  49.820  1.00  0.00     0.097 C 
HETATM   20  C17 UNL     1      22.652   3.655  50.093  1.00  0.00     0.030 C 
ENDROOT
TORSDOF 0
ENDMDL
MODEL 7
REMARK VINA RESULT:      -7.6      2.491      5.812
REMARK  0 active torsions:
REMARK  status: ('A' for Active; 'I' for Inactive)
ROOT
HETATM    1  C1  UNL     1      23.571  -0.310  54.058  1.00  0.00     0.018 C 
HETATM    2  C2  UNL     1      22.897  -1.241  54.693  1.00  0.00     0.132 C 
HETATM    3  N1  UNL     1      21.521  -1.103  54.975  1.00  0.00    -0.255 NA
HETATM    4  C3  UNL     1      20.810  -0.163  54.434  1.00  0.00     0.210 C 
HETATM    5  N2  UNL     1      21.532   0.699  53.548  1.00  0.00    -0.335 N 
HETATM    6  C4  UNL     1      20.519   1.650  53.084  1.00  0.00     0.203 C 
HETATM    7  S1  UNL     1      19.798   0.994  51.520  1.00  0.00    -0.144 SA
HETATM    8  C5  UNL     1      21.184   0.377  50.529  1.00  0.00     0.115 C 
HETATM    9  C6  UNL     1      22.292   1.337  50.456  1.00  0.00    -0.031 A 
HETATM   10  C7  UNL     1      23.466   1.620  51.171  1.00  0.00    -0.045 A 
HETATM   11  C8  UNL     1      24.358   2.617  50.848  1.00  0.00     0.009 A 
HETATM   12  C9  UNL     1      24.105   3.411  49.748  1.00  0.00     0.013 A 
HETATM   13  C10 UNL     1      22.970   3.195  48.995  1.00  0.00    -0.025 A 
HETATM   14  C11 UNL     1      22.724   4.001  47.904  1.00  0.00     0.012 A 
HETATM   15  C12 UNL     1      21.597   3.827  47.130  1.00  0.00     0.001 A 
HETATM   16  C13 UNL     1      20.736   2.806  47.510  1.00  0.00     0.001 A 
HETATM   17  C14 UNL     1      21.003   2.022  48.594  1.00  0.00     0.013 A 
HETATM   18  C15 UNL     1      22.124   2.178  49.378  1.00  0.00    -0.018 A 
HETATM   19  C16 UNL     1      24.009   0.960  52.413  1.00  0.00     0.097 C 
HETATM   20  C17 UNL     1      22.901   0.526  53.295  1.00  0.00     0.030 C 
ENDROOT
TORSDOF 0
ENDMDL
MODEL 8
REMARK VINA RESULT:      -7.6      2.315      5.887
REMARK  0 active torsions:
REMARK  status: ('A' for Active; 'I' for Inactive)
ROOT
HETATM    1  C1  UNL     1      26.699   0.482  51.938  1.00  0.00     0.018 C 
HETATM    2  C2  UNL     1      26.179  -0.589  52.493  1.00  0.00     0.132 C 
HETATM    3  N1  UNL     1      25.044  -0.518  53.330  1.00  0.00    -0.255 NA
HETATM    4  C3  UNL     1      24.332   0.562  53.414  1.00  0.00     0.210 C 
HETATM    5  N2  UNL     1      24.792   1.647  52.601  1.00  0.00    -0.335 N 
HETATM    6  C4  UNL     1      23.834   2.720  52.877  1.00  0.00     0.203 C 
HETATM    7  S1  UNL     1      22.492   2.622  51.617  1.00  0.00    -0.144 SA
HETATM    8  C5  UNL     1      23.300   2.326  50.022  1.00  0.00     0.115 C 
HETATM    9  C6  UNL     1      24.432   3.232  49.790  1.00  0.00    -0.031 A 
HETATM   10  C7  UNL     1      25.815   3.242  50.023  1.00  0.00    -0.045 A 
HETATM   11  C8  UNL     1      26.661   4.270  49.671  1.00  0.00     0.009 A 
HETATM   12  C9  UNL     1      26.138   5.381  49.043  1.00  0.00     0.013 A 
HETATM   13  C10 UNL     1      24.786   5.447  48.781  1.00  0.00    -0.025 A 
HETATM   14  C11 UNL     1      24.275   6.568  48.162  1.00  0.00     0.012 A 
HETATM   15  C12 UNL     1      22.928   6.678  47.891  1.00  0.00     0.001 A 
HETATM   16  C13 UNL     1      22.128   5.610  48.273  1.00  0.00     0.001 A 
HETATM   17  C14 UNL     1      22.659   4.512  48.883  1.00  0.00     0.013 A 
HETATM   18  C15 UNL     1      24.002   4.381  49.161  1.00  0.00    -0.018 A 
HETATM   19  C16 UNL     1      26.677   2.204  50.696  1.00  0.00     0.097 C 
HETATM   20  C17 UNL     1      25.926   1.534  51.783  1.00  0.00     0.030 C 
ENDROOT
TORSDOF 0
ENDMDL
MODEL 9
REMARK VINA RESULT:      -7.6      2.410      6.226
REMARK  0 active torsions:
REMARK  status: ('A' for Active; 'I' for Inactive)
ROOT
HETATM    1  C1  UNL     1      22.156   1.225  51.600  1.00  0.00     0.018 C 
HETATM    2  C2  UNL     1      20.858   1.162  51.790  1.00  0.00     0.132 C 
HETATM    3  N1  UNL     1      20.127   2.257  52.300  1.00  0.00    -0.255 NA
HETATM    4  C3  UNL     1      20.655   3.437  52.397  1.00  0.00     0.210 C 
HETATM    5  N2  UNL     1      22.012   3.525  51.950  1.00  0.00    -0.335 N 
HETATM    6  C4  UNL     1      22.359   4.931  52.163  1.00  0.00     0.203 C 
HETATM    7  S1  UNL     1      22.006   5.846  50.601  1.00  0.00    -0.144 SA
HETATM    8  C5  UNL     1      22.620   4.812  49.246  1.00  0.00     0.115 C 
HETATM    9  C6  UNL     1      23.979   4.314  49.490  1.00  0.00    -0.031 A 
HETATM   10  C7  UNL     1      24.581   3.189  50.072  1.00  0.00    -0.045 A 
HETATM   11  C8  UNL     1      25.940   2.981  50.151  1.00  0.00     0.009 A 
HETATM   12  C9  UNL     1      26.793   3.929  49.629  1.00  0.00     0.013 A 
HETATM   13  C10 UNL     1      26.277   5.065  49.041  1.00  0.00    -0.025 A 
HETATM   14  C11 UNL     1      27.142   6.010  48.532  1.00  0.00     0.012 A 
HETATM   15  C12 UNL     1      26.668   7.164  47.945  1.00  0.00     0.001 A 
HETATM   16  C13 UNL     1      25.290   7.316  47.898  1.00  0.00     0.001 A 
HETATM   17  C14 UNL     1      24.456   6.365  48.409  1.00  0.00     0.013 A 
HETATM   18  C15 UNL     1      24.908   5.205  48.998  1.00  0.00    -0.018 A 
HETATM   19  C16 UNL     1      23.937   2.000  50.740  1.00  0.00     0.097 C 
HETATM   20  C17 UNL     1      22.702   2.411  51.449  1.00  0.00     0.030 C 
ENDROOT
TORSDOF 0
ENDMDL
