MODEL 1
REMARK VINA RESULT:      -8.4      0.000      0.000
REMARK  7 active torsions:
REMARK  status: ('A' for Active; 'I' for Inactive)
REMARK    1  A    between atoms: C6_8  and  C7_9 
REMARK    2  A    between atoms: C8_10  and  N1_11 
REMARK    3  A    between atoms: N1_11  and  C9_12 
REMARK    4  A    between atoms: C10_13  and  C11_14 
REMARK    5  A    between atoms: C12_15  and  C13_16 
REMARK    6  A    between atoms: C16_19  and  C17_20 
REMARK    7  A    between atoms: C17_20  and  N2_21 
ROOT
HETATM    1  C9  UNL     1      24.675   4.640  50.318  1.00  0.00     0.096 C 
HETATM    2  C10 UNL     1      25.507   4.036  49.483  1.00  0.00     0.082 C 
ENDROOT
BRANCH   2   3
HETATM    3  C11 UNL     1      26.748   4.592  49.028  1.00  0.00    -0.070 C 
HETATM    4  C12 UNL     1      27.798   5.047  48.659  1.00  0.00    -0.037 C 
BRANCH   4   5
HETATM    5  C13 UNL     1      29.051   5.615  48.226  1.00  0.00     0.129 A 
HETATM    6  C14 UNL     1      29.246   6.747  47.500  1.00  0.00     0.049 A 
HETATM    7  C15 UNL     1      30.615   6.852  47.351  1.00  0.00     0.038 A 
HETATM    8  C16 UNL     1      31.207   5.781  47.992  1.00  0.00     0.083 A 
HETATM    9  O2  UNL     1      30.207   5.080  48.495  1.00  0.00    -0.304 OA
BRANCH   8  10
HETATM   10  C17 UNL     1      32.612   5.360  48.175  1.00  0.00     0.337 C 
BRANCH  10  11
HETATM   11  N2  UNL     1      33.162   4.942  46.921  1.00  0.00     0.094 N 
HETATM   12  C18 UNL     1      34.582   4.609  47.050  1.00  0.00     0.273 C 
HETATM   13  C19 UNL     1      34.524   3.290  47.752  1.00  0.00     0.032 C 
HETATM   14  C20 UNL     1      33.343   2.595  47.112  1.00  0.00     0.032 C 
HETATM   15  C21 UNL     1      32.559   3.732  46.455  1.00  0.00     0.273 C 
ENDBRANCH  10  11
ENDBRANCH   8  10
ENDBRANCH   4   5
ENDBRANCH   2   3
BRANCH   1  16
HETATM   16  N1  UNL     1      23.457   3.977  50.701  1.00  0.00    -0.375 N 
HETATM   17  H9  UNL     1      22.819   3.395  50.135  1.00  0.00     0.164 HD
BRANCH  16  18
HETATM   18  C8  UNL     1      23.171   4.221  52.097  1.00  0.00     0.087 C 
HETATM   19  C7  UNL     1      23.901   3.608  53.001  1.00  0.00     0.020 C 
BRANCH  19  20
HETATM   20  C6  UNL     1      24.922   2.749  53.514  1.00  0.00     0.037 C 
HETATM   21  C5  UNL     1      25.945   1.943  53.399  1.00  0.00     0.084 C 
HETATM   22  C1  UNL     1      26.557   1.570  52.110  1.00  0.00     0.249 C 
HETATM   23  O1  UNL     1      26.451   1.431  54.579  1.00  0.00    -0.348 OA
HETATM   24  F1  UNL     1      27.770   2.185  51.934  1.00  0.00    -0.238 F 
HETATM   25  C2  UNL     1      26.678   0.061  52.093  1.00  0.00     0.015 C 
HETATM   26  C3  UNL     1      26.922  -0.550  53.264  1.00  0.00    -0.001 C 
HETATM   27  C4  UNL     1      27.086   0.155  54.587  1.00  0.00     0.202 C 
ENDBRANCH  19  20
ENDBRANCH  16  18
ENDBRANCH   1  16
TORSDOF 7
ENDMDL
MODEL 2
REMARK VINA RESULT:      -8.1      1.431      1.805
REMARK  7 active torsions:
REMARK  status: ('A' for Active; 'I' for Inactive)
REMARK    1  A    between atoms: C6_8  and  C7_9 
REMARK    2  A    between atoms: C8_10  and  N1_11 
REMARK    3  A    between atoms: N1_11  and  C9_12 
REMARK    4  A    between atoms: C10_13  and  C11_14 
REMARK    5  A    between atoms: C12_15  and  C13_16 
REMARK    6  A    between atoms: C16_19  and  C17_20 
REMARK    7  A    between atoms: C17_20  and  N2_21 
ROOT
HETATM    1  C9  UNL     1      24.982   4.366  50.540  1.00  0.00     0.096 C 
HETATM    2  C10 UNL     1      25.733   3.836  49.586  1.00  0.00     0.082 C 
ENDROOT
BRANCH   2   3
HETATM    3  C11 UNL     1      26.928   4.434  49.066  1.00  0.00    -0.070 C 
HETATM    4  C12 UNL     1      27.939   4.931  48.648  1.00  0.00    -0.037 C 
BRANCH   4   5
HETATM    5  C13 UNL     1      29.140   5.551  48.142  1.00  0.00     0.129 A 
HETATM    6  C14 UNL     1      29.312   6.841  47.755  1.00  0.00     0.049 A 
HETATM    7  C15 UNL     1      30.632   6.928  47.355  1.00  0.00     0.038 A 
HETATM    8  C16 UNL     1      31.217   5.687  47.514  1.00  0.00     0.083 A 
HETATM    9  O2  UNL     1      30.263   4.910  47.990  1.00  0.00    -0.304 OA
BRANCH   8  10
HETATM   10  C17 UNL     1      32.578   5.170  47.262  1.00  0.00     0.337 C 
BRANCH  10  11
HETATM   11  N2  UNL     1      32.514   4.033  46.395  1.00  0.00     0.094 N 
HETATM   12  C18 UNL     1      33.035   4.351  45.064  1.00  0.00     0.273 C 
HETATM   13  C19 UNL     1      34.509   4.394  45.315  1.00  0.00     0.032 C 
HETATM   14  C20 UNL     1      34.741   3.254  46.282  1.00  0.00     0.032 C 
HETATM   15  C21 UNL     1      33.353   2.968  46.854  1.00  0.00     0.273 C 
ENDBRANCH  10  11
ENDBRANCH   8  10
ENDBRANCH   4   5
ENDBRANCH   2   3
BRANCH   1  16
HETATM   16  N1  UNL     1      23.803   3.669  50.979  1.00  0.00    -0.375 N 
HETATM   17  H9  UNL     1      23.013   3.299  50.425  1.00  0.00     0.164 HD
BRANCH  16  18
HETATM   18  C8  UNL     1      23.818   3.513  52.416  1.00  0.00     0.087 C 
HETATM   19  C7  UNL     1      24.352   2.425  52.921  1.00  0.00     0.020 C 
BRANCH  19  20
HETATM   20  C6  UNL     1      25.004   1.152  52.926  1.00  0.00     0.037 C 
HETATM   21  C5  UNL     1      25.832   0.259  53.402  1.00  0.00     0.084 C 
HETATM   22  C1  UNL     1      26.665   0.466  54.600  1.00  0.00     0.249 C 
HETATM   23  O1  UNL     1      25.901  -0.936  52.709  1.00  0.00    -0.348 OA
HETATM   24  F1  UNL     1      26.197  -0.256  55.668  1.00  0.00    -0.238 F 
HETATM   25  C2  UNL     1      28.082   0.081  54.231  1.00  0.00     0.015 C 
HETATM   26  C3  UNL     1      28.238  -0.923  53.353  1.00  0.00    -0.001 C 
HETATM   27  C4  UNL     1      27.110  -1.692  52.712  1.00  0.00     0.202 C 
ENDBRANCH  19  20
ENDBRANCH  16  18
ENDBRANCH   1  16
TORSDOF 7
ENDMDL
MODEL 3
REMARK VINA RESULT:      -7.7      1.887      2.198
REMARK  7 active torsions:
REMARK  status: ('A' for Active; 'I' for Inactive)
REMARK    1  A    between atoms: C6_8  and  C7_9 
REMARK    2  A    between atoms: C8_10  and  N1_11 
REMARK    3  A    between atoms: N1_11  and  C9_12 
REMARK    4  A    between atoms: C10_13  and  C11_14 
REMARK    5  A    between atoms: C12_15  and  C13_16 
REMARK    6  A    between atoms: C16_19  and  C17_20 
REMARK    7  A    between atoms: C17_20  and  N2_21 
ROOT
HETATM    1  C9  UNL     1      24.395   5.265  48.968  1.00  0.00     0.096 C 
HETATM    2  C10 UNL     1      25.519   4.657  49.319  1.00  0.00     0.082 C 
ENDROOT
BRANCH   2   3
HETATM    3  C11 UNL     1      26.828   5.059  48.894  1.00  0.00    -0.070 C 
HETATM    4  C12 UNL     1      27.919   5.398  48.520  1.00  0.00    -0.037 C 
BRANCH   4   5
HETATM    5  C13 UNL     1      29.237   5.781  48.077  1.00  0.00     0.129 A 
HETATM    6  C14 UNL     1      29.588   6.883  47.364  1.00  0.00     0.049 A 
HETATM    7  C15 UNL     1      30.957   6.787  47.199  1.00  0.00     0.038 A 
HETATM    8  C16 UNL     1      31.391   5.631  47.818  1.00  0.00     0.083 A 
HETATM    9  O2  UNL     1      30.304   5.078  48.324  1.00  0.00    -0.304 OA
BRANCH   8  10
HETATM   10  C17 UNL     1      32.720   5.005  47.976  1.00  0.00     0.337 C 
BRANCH  10  11
HETATM   11  N2  UNL     1      32.716   3.699  47.390  1.00  0.00     0.094 N 
HETATM   12  C18 UNL     1      32.734   3.774  45.928  1.00  0.00     0.273 C 
HETATM   13  C19 UNL     1      34.152   4.166  45.660  1.00  0.00     0.032 C 
HETATM   14  C20 UNL     1      34.942   3.369  46.674  1.00  0.00     0.032 C 
HETATM   15  C21 UNL     1      33.900   2.966  47.719  1.00  0.00     0.273 C 
ENDBRANCH  10  11
ENDBRANCH   8  10
ENDBRANCH   4   5
ENDBRANCH   2   3
BRANCH   1  16
HETATM   16  N1  UNL     1      23.140   4.766  49.461  1.00  0.00    -0.375 N 
HETATM   17  H9  UNL     1      22.488   5.184  50.144  1.00  0.00     0.164 HD
BRANCH  16  18
HETATM   18  C8  UNL     1      22.834   3.490  48.853  1.00  0.00     0.087 C 
HETATM   19  C7  UNL     1      22.804   2.424  49.619  1.00  0.00     0.020 C 
BRANCH  19  20
HETATM   20  C6  UNL     1      22.900   1.659  50.824  1.00  0.00     0.037 C 
HETATM   21  C5  UNL     1      23.486   1.278  51.928  1.00  0.00     0.084 C 
HETATM   22  C1  UNL     1      24.787   1.796  52.390  1.00  0.00     0.249 C 
HETATM   23  O1  UNL     1      22.815   0.329  52.677  1.00  0.00    -0.348 OA
HETATM   24  F1  UNL     1      24.639   2.646  53.456  1.00  0.00    -0.238 F 
HETATM   25  C2  UNL     1      25.648   0.599  52.734  1.00  0.00     0.015 C 
HETATM   26  C3  UNL     1      25.029  -0.479  53.240  1.00  0.00    -0.001 C 
HETATM   27  C4  UNL     1      23.546  -0.584  53.492  1.00  0.00     0.202 C 
ENDBRANCH  19  20
ENDBRANCH  16  18
ENDBRANCH   1  16
TORSDOF 7
ENDMDL
MODEL 4
REMARK VINA RESULT:      -7.6      4.093      5.542
REMARK  7 active torsions:
REMARK  status: ('A' for Active; 'I' for Inactive)
REMARK    1  A    between atoms: C6_8  and  C7_9 
REMARK    2  A    between atoms: C8_10  and  N1_11 
REMARK    3  A    between atoms: N1_11  and  C9_12 
REMARK    4  A    between atoms: C10_13  and  C11_14 
REMARK    5  A    between atoms: C12_15  and  C13_16 
REMARK    6  A    between atoms: C16_19  and  C17_20 
REMARK    7  A    between atoms: C17_20  and  N2_21 
ROOT
HETATM    1  C9  UNL     1      22.885   0.683  53.488  1.00  0.00     0.096 C 
HETATM    2  C10 UNL     1      22.947   0.802  52.171  1.00  0.00     0.082 C 
ENDROOT
BRANCH   2   3
HETATM    3  C11 UNL     1      23.778   1.743  51.478  1.00  0.00    -0.070 C 
HETATM    4  C12 UNL     1      24.469   2.524  50.880  1.00  0.00    -0.037 C 
BRANCH   4   5
HETATM    5  C13 UNL     1      25.319   3.452  50.174  1.00  0.00     0.129 A 
HETATM    6  C14 UNL     1      26.556   3.223  49.660  1.00  0.00     0.049 A 
HETATM    7  C15 UNL     1      26.939   4.421  49.089  1.00  0.00     0.038 A 
HETATM    8  C16 UNL     1      25.922   5.337  49.274  1.00  0.00     0.083 A 
HETATM    9  O2  UNL     1      24.982   4.686  49.933  1.00  0.00    -0.304 OA
BRANCH   8  10
HETATM   10  C17 UNL     1      25.755   6.755  48.892  1.00  0.00     0.337 C 
BRANCH  10  11
HETATM   11  N2  UNL     1      26.987   7.458  49.078  1.00  0.00     0.094 N 
HETATM   12  C18 UNL     1      27.430   8.089  47.833  1.00  0.00     0.273 C 
HETATM   13  C19 UNL     1      26.492   9.249  47.727  1.00  0.00     0.032 C 
HETATM   14  C20 UNL     1      26.360   9.734  49.154  1.00  0.00     0.032 C 
HETATM   15  C21 UNL     1      26.843   8.549  49.992  1.00  0.00     0.273 C 
ENDBRANCH  10  11
ENDBRANCH   8  10
ENDBRANCH   4   5
ENDBRANCH   2   3
BRANCH   1  16
HETATM   16  N1  UNL     1      22.010  -0.302  54.066  1.00  0.00    -0.375 N 
HETATM   17  H9  UNL     1      20.987  -0.412  53.970  1.00  0.00     0.164 HD
BRANCH  16  18
HETATM   18  C8  UNL     1      22.766  -1.227  54.882  1.00  0.00     0.087 C 
HETATM   19  C7  UNL     1      24.055  -1.024  55.026  1.00  0.00     0.020 C 
BRANCH  19  20
HETATM   20  C6  UNL     1      25.319  -0.378  54.852  1.00  0.00     0.037 C 
HETATM   21  C5  UNL     1      26.427  -0.122  54.207  1.00  0.00     0.084 C 
HETATM   22  C1  UNL     1      26.783  -0.728  52.911  1.00  0.00     0.249 C 
HETATM   23  O1  UNL     1      27.290   0.773  54.813  1.00  0.00    -0.348 OA
HETATM   24  F1  UNL     1      26.669   0.177  51.886  1.00  0.00    -0.238 F 
HETATM   25  C2  UNL     1      28.193  -1.264  53.041  1.00  0.00     0.015 C 
HETATM   26  C3  UNL     1      29.041  -0.583  53.827  1.00  0.00    -0.001 C 
HETATM   27  C4  UNL     1      28.693   0.674  54.585  1.00  0.00     0.202 C 
ENDBRANCH  19  20
ENDBRANCH  16  18
ENDBRANCH   1  16
TORSDOF 7
ENDMDL
MODEL 5
REMARK VINA RESULT:      -7.3      2.978      8.697
REMARK  7 active torsions:
REMARK  status: ('A' for Active; 'I' for Inactive)
REMARK    1  A    between atoms: C6_8  and  C7_9 
REMARK    2  A    between atoms: C8_10  and  N1_11 
REMARK    3  A    between atoms: N1_11  and  C9_12 
REMARK    4  A    between atoms: C10_13  and  C11_14 
REMARK    5  A    between atoms: C12_15  and  C13_16 
REMARK    6  A    between atoms: C16_19  and  C17_20 
REMARK    7  A    between atoms: C17_20  and  N2_21 
ROOT
HETATM    1  C9  UNL     1      29.685   7.341  47.395  1.00  0.00     0.096 C 
HETATM    2  C10 UNL     1      28.373   7.163  47.446  1.00  0.00     0.082 C 
ENDROOT
BRANCH   2   3
HETATM    3  C11 UNL     1      27.723   6.116  48.180  1.00  0.00    -0.070 C 
HETATM    4  C12 UNL     1      27.162   5.250  48.797  1.00  0.00    -0.037 C 
BRANCH   4   5
HETATM    5  C13 UNL     1      26.507   4.213  49.556  1.00  0.00     0.129 A 
HETATM    6  C14 UNL     1      25.184   3.908  49.579  1.00  0.00     0.049 A 
HETATM    7  C15 UNL     1      25.071   2.845  50.455  1.00  0.00     0.038 A 
HETATM    8  C16 UNL     1      26.330   2.539  50.933  1.00  0.00     0.083 A 
HETATM    9  O2  UNL     1      27.143   3.401  50.350  1.00  0.00    -0.304 OA
BRANCH   8  10
HETATM   10  C17 UNL     1      26.835   1.521  51.878  1.00  0.00     0.337 C 
BRANCH  10  11
HETATM   11  N2  UNL     1      26.984   2.097  53.180  1.00  0.00     0.094 N 
HETATM   12  C18 UNL     1      26.437   1.217  54.214  1.00  0.00     0.273 C 
HETATM   13  C19 UNL     1      27.480   0.148  54.290  1.00  0.00     0.032 C 
HETATM   14  C20 UNL     1      28.781   0.906  54.146  1.00  0.00     0.032 C 
HETATM   15  C21 UNL     1      28.361   2.246  53.540  1.00  0.00     0.273 C 
ENDBRANCH  10  11
ENDBRANCH   8  10
ENDBRANCH   4   5
ENDBRANCH   2   3
BRANCH   1  16
HETATM   16  N1  UNL     1      30.217   8.431  46.622  1.00  0.00    -0.375 N 
HETATM   17  H9  UNL     1      30.196   9.446  46.813  1.00  0.00     0.164 HD
BRANCH  16  18
HETATM   18  C8  UNL     1      30.856   7.932  45.425  1.00  0.00     0.087 C 
HETATM   19  C7  UNL     1      31.912   7.163  45.553  1.00  0.00     0.020 C 
BRANCH  19  20
HETATM   20  C6  UNL     1      32.940   6.431  46.227  1.00  0.00     0.037 C 
HETATM   21  C5  UNL     1      33.699   5.385  46.423  1.00  0.00     0.084 C 
HETATM   22  C1  UNL     1      33.631   4.155  45.613  1.00  0.00     0.249 C 
HETATM   23  O1  UNL     1      34.606   5.479  47.463  1.00  0.00    -0.348 OA
HETATM   24  F1  UNL     1      34.709   4.047  44.772  1.00  0.00    -0.238 F 
HETATM   25  C2  UNL     1      33.544   2.990  46.577  1.00  0.00     0.015 C 
HETATM   26  C3  UNL     1      34.201   3.105  47.742  1.00  0.00    -0.001 C 
HETATM   27  C4  UNL     1      35.016   4.304  48.158  1.00  0.00     0.202 C 
ENDBRANCH  19  20
ENDBRANCH  16  18
ENDBRANCH   1  16
TORSDOF 7
ENDMDL
MODEL 6
REMARK VINA RESULT:      -7.2      4.400      6.217
REMARK  7 active torsions:
REMARK  status: ('A' for Active; 'I' for Inactive)
REMARK    1  A    between atoms: C6_8  and  C7_9 
REMARK    2  A    between atoms: C8_10  and  N1_11 
REMARK    3  A    between atoms: N1_11  and  C9_12 
REMARK    4  A    between atoms: C10_13  and  C11_14 
REMARK    5  A    between atoms: C12_15  and  C13_16 
REMARK    6  A    between atoms: C16_19  and  C17_20 
REMARK    7  A    between atoms: C17_20  and  N2_21 
ROOT
HETATM    1  C9  UNL     1      22.058   0.275  53.452  1.00  0.00     0.096 C 
HETATM    2  C10 UNL     1      22.420   0.738  52.265  1.00  0.00     0.082 C 
ENDROOT
BRANCH   2   3
HETATM    3  C11 UNL     1      22.610   2.126  51.957  1.00  0.00    -0.070 C 
HETATM    4  C12 UNL     1      22.752   3.288  51.687  1.00  0.00    -0.037 C 
BRANCH   4   5
HETATM    5  C13 UNL     1      22.946   4.678  51.352  1.00  0.00     0.129 A 
HETATM    6  C14 UNL     1      21.996   5.636  51.190  1.00  0.00     0.049 A 
HETATM    7  C15 UNL     1      22.692   6.788  50.878  1.00  0.00     0.038 A 
HETATM    8  C16 UNL     1      24.041   6.491  50.862  1.00  0.00     0.083 A 
HETATM    9  O2  UNL     1      24.119   5.207  51.155  1.00  0.00    -0.304 OA
BRANCH   8  10
HETATM   10  C17 UNL     1      25.252   7.297  50.599  1.00  0.00     0.337 C 
BRANCH  10  11
HETATM   11  N2  UNL     1      25.203   7.832  49.273  1.00  0.00     0.094 N 
HETATM   12  C18 UNL     1      26.265   8.816  49.058  1.00  0.00     0.273 C 
HETATM   13  C19 UNL     1      27.472   7.941  48.932  1.00  0.00     0.032 C 
HETATM   14  C20 UNL     1      26.972   6.754  48.138  1.00  0.00     0.032 C 
HETATM   15  C21 UNL     1      25.451   6.827  48.285  1.00  0.00     0.273 C 
ENDBRANCH  10  11
ENDBRANCH   8  10
ENDBRANCH   4   5
ENDBRANCH   2   3
BRANCH   1  16
HETATM   16  N1  UNL     1      21.901  -1.142  53.638  1.00  0.00    -0.375 N 
HETATM   17  H9  UNL     1      21.560  -1.859  52.976  1.00  0.00     0.164 HD
BRANCH  16  18
HETATM   18  C8  UNL     1      22.303  -1.521  54.974  1.00  0.00     0.087 C 
HETATM   19  C7  UNL     1      23.545  -1.303  55.339  1.00  0.00     0.020 C 
BRANCH  19  20
HETATM   20  C6  UNL     1      24.903  -0.871  55.213  1.00  0.00     0.037 C 
HETATM   21  C5  UNL     1      25.870  -0.185  54.663  1.00  0.00     0.084 C 
HETATM   22  C1  UNL     1      25.686   0.717  53.511  1.00  0.00     0.249 C 
HETATM   23  O1  UNL     1      27.124  -0.345  55.222  1.00  0.00    -0.348 OA
HETATM   24  F1  UNL     1      25.759   2.034  53.887  1.00  0.00    -0.238 F 
HETATM   25  C2  UNL     1      26.746   0.359  52.490  1.00  0.00     0.015 C 
HETATM   26  C3  UNL     1      27.934  -0.057  52.956  1.00  0.00    -0.001 C 
HETATM   27  C4  UNL     1      28.289  -0.191  54.416  1.00  0.00     0.202 C 
ENDBRANCH  19  20
ENDBRANCH  16  18
ENDBRANCH   1  16
TORSDOF 7
ENDMDL
MODEL 7
REMARK VINA RESULT:      -7.2      3.094      9.357
REMARK  7 active torsions:
REMARK  status: ('A' for Active; 'I' for Inactive)
REMARK    1  A    between atoms: C6_8  and  C7_9 
REMARK    2  A    between atoms: C8_10  and  N1_11 
REMARK    3  A    between atoms: N1_11  and  C9_12 
REMARK    4  A    between atoms: C10_13  and  C11_14 
REMARK    5  A    between atoms: C12_15  and  C13_16 
REMARK    6  A    between atoms: C16_19  and  C17_20 
REMARK    7  A    between atoms: C17_20  and  N2_21 
ROOT
HETATM    1  C9  UNL     1      28.092   6.565  48.076  1.00  0.00     0.096 C 
HETATM    2  C10 UNL     1      28.091   5.314  48.513  1.00  0.00     0.082 C 
ENDROOT
BRANCH   2   3
HETATM    3  C11 UNL     1      26.934   4.626  49.006  1.00  0.00    -0.070 C 
HETATM    4  C12 UNL     1      25.974   4.032  49.418  1.00  0.00    -0.037 C 
BRANCH   4   5
HETATM    5  C13 UNL     1      24.809   3.326  49.892  1.00  0.00     0.129 A 
HETATM    6  C14 UNL     1      23.651   3.087  49.224  1.00  0.00     0.049 A 
HETATM    7  C15 UNL     1      22.860   2.378  50.109  1.00  0.00     0.038 A 
HETATM    8  C16 UNL     1      23.565   2.210  51.284  1.00  0.00     0.083 A 
HETATM    9  O2  UNL     1      24.727   2.804  51.082  1.00  0.00    -0.304 OA
BRANCH   8  10
HETATM   10  C17 UNL     1      23.251   1.549  52.568  1.00  0.00     0.337 C 
BRANCH  10  11
HETATM   11  N2  UNL     1      23.016   0.153  52.352  1.00  0.00     0.094 N 
HETATM   12  C18 UNL     1      23.385  -0.634  53.530  1.00  0.00     0.273 C 
HETATM   13  C19 UNL     1      22.259  -0.331  54.466  1.00  0.00     0.032 C 
HETATM   14  C20 UNL     1      21.043  -0.305  53.567  1.00  0.00     0.032 C 
HETATM   15  C21 UNL     1      21.626  -0.128  52.164  1.00  0.00     0.273 C 
ENDBRANCH  10  11
ENDBRANCH   8  10
ENDBRANCH   4   5
ENDBRANCH   2   3
BRANCH   1  16
HETATM   16  N1  UNL     1      29.321   7.146  47.605  1.00  0.00    -0.375 N 
HETATM   17  H9  UNL     1      29.626   7.348  46.639  1.00  0.00     0.164 HD
BRANCH  16  18
HETATM   18  C8  UNL     1      30.188   7.458  48.719  1.00  0.00     0.087 C 
HETATM   19  C7  UNL     1      31.339   6.834  48.809  1.00  0.00     0.020 C 
BRANCH  19  20
HETATM   20  C6  UNL     1      32.385   5.930  48.441  1.00  0.00     0.037 C 
HETATM   21  C5  UNL     1      32.903   4.961  47.733  1.00  0.00     0.084 C 
HETATM   22  C1  UNL     1      32.189   4.259  46.652  1.00  0.00     0.249 C 
HETATM   23  O1  UNL     1      34.201   4.603  48.051  1.00  0.00    -0.348 OA
HETATM   24  F1  UNL     1      32.662   4.624  45.417  1.00  0.00    -0.238 F 
HETATM   25  C2  UNL     1      32.344   2.775  46.904  1.00  0.00     0.015 C 
HETATM   26  C3  UNL     1      33.497   2.362  47.455  1.00  0.00    -0.001 C 
HETATM   27  C4  UNL     1      34.643   3.265  47.838  1.00  0.00     0.202 C 
ENDBRANCH  19  20
ENDBRANCH  16  18
ENDBRANCH   1  16
TORSDOF 7
ENDMDL
MODEL 8
REMARK VINA RESULT:      -7.1      3.566      4.815
REMARK  7 active torsions:
REMARK  status: ('A' for Active; 'I' for Inactive)
REMARK    1  A    between atoms: C6_8  and  C7_9 
REMARK    2  A    between atoms: C8_10  and  N1_11 
REMARK    3  A    between atoms: N1_11  and  C9_12 
REMARK    4  A    between atoms: C10_13  and  C11_14 
REMARK    5  A    between atoms: C12_15  and  C13_16 
REMARK    6  A    between atoms: C16_19  and  C17_20 
REMARK    7  A    between atoms: C17_20  and  N2_21 
ROOT
HETATM    1  C9  UNL     1      21.938   2.453  51.877  1.00  0.00     0.096 C 
HETATM    2  C10 UNL     1      22.541   3.623  52.031  1.00  0.00     0.082 C 
ENDROOT
BRANCH   2   3
HETATM    3  C11 UNL     1      23.635   4.085  51.228  1.00  0.00    -0.070 C 
HETATM    4  C12 UNL     1      24.565   4.464  50.567  1.00  0.00    -0.037 C 
BRANCH   4   5
HETATM    5  C13 UNL     1      25.675   4.942  49.779  1.00  0.00     0.129 A 
HETATM    6  C14 UNL     1      26.715   4.222  49.283  1.00  0.00     0.049 A 
HETATM    7  C15 UNL     1      27.500   5.137  48.607  1.00  0.00     0.038 A 
HETATM    8  C16 UNL     1      26.910   6.381  48.715  1.00  0.00     0.083 A 
HETATM    9  O2  UNL     1      25.818   6.188  49.432  1.00  0.00    -0.304 OA
BRANCH   8  10
HETATM   10  C17 UNL     1      27.274   7.722  48.211  1.00  0.00     0.337 C 
BRANCH  10  11
HETATM   11  N2  UNL     1      28.322   8.275  49.013  1.00  0.00     0.094 N 
HETATM   12  C18 UNL     1      29.371   8.866  48.180  1.00  0.00     0.273 C 
HETATM   13  C19 UNL     1      28.717  10.128  47.714  1.00  0.00     0.032 C 
HETATM   14  C20 UNL     1      27.956  10.607  48.930  1.00  0.00     0.032 C 
HETATM   15  C21 UNL     1      27.856   9.364  49.816  1.00  0.00     0.273 C 
ENDBRANCH  10  11
ENDBRANCH   8  10
ENDBRANCH   4   5
ENDBRANCH   2   3
BRANCH   1  16
HETATM   16  N1  UNL     1      20.849   2.102  52.748  1.00  0.00    -0.375 N 
HETATM   17  H9  UNL     1      20.209   2.713  53.281  1.00  0.00     0.164 HD
BRANCH  16  18
HETATM   18  C8  UNL     1      20.710   0.665  52.823  1.00  0.00     0.087 C 
HETATM   19  C7  UNL     1      21.781  -0.056  53.063  1.00  0.00     0.020 C 
BRANCH  19  20
HETATM   20  C6  UNL     1      23.161  -0.325  53.325  1.00  0.00     0.037 C 
HETATM   21  C5  UNL     1      24.434  -0.027  53.332  1.00  0.00     0.084 C 
HETATM   22  C1  UNL     1      24.982   1.251  52.843  1.00  0.00     0.249 C 
HETATM   23  O1  UNL     1      25.282  -0.997  53.834  1.00  0.00    -0.348 OA
HETATM   24  F1  UNL     1      25.391   2.051  53.880  1.00  0.00    -0.238 F 
HETATM   25  C2  UNL     1      26.119   0.918  51.901  1.00  0.00     0.015 C 
HETATM   26  C3  UNL     1      26.850  -0.174  52.180  1.00  0.00    -0.001 C 
HETATM   27  C4  UNL     1      26.623  -1.086  53.359  1.00  0.00     0.202 C 
ENDBRANCH  19  20
ENDBRANCH  16  18
ENDBRANCH   1  16
TORSDOF 7
ENDMDL
MODEL 9
REMARK VINA RESULT:      -7.0      1.746      2.317
REMARK  7 active torsions:
REMARK  status: ('A' for Active; 'I' for Inactive)
REMARK    1  A    between atoms: C6_8  and  C7_9 
REMARK    2  A    between atoms: C8_10  and  N1_11 
REMARK    3  A    between atoms: N1_11  and  C9_12 
REMARK    4  A    between atoms: C10_13  and  C11_14 
REMARK    5  A    between atoms: C12_15  and  C13_16 
REMARK    6  A    between atoms: C16_19  and  C17_20 
REMARK    7  A    between atoms: C17_20  and  N2_21 
ROOT
HETATM    1  C9  UNL     1      22.974   3.141  50.634  1.00  0.00     0.096 C 
HETATM    2  C10 UNL     1      23.357   3.613  49.457  1.00  0.00     0.082 C 
ENDROOT
BRANCH   2   3
HETATM    3  C11 UNL     1      24.612   4.259  49.209  1.00  0.00    -0.070 C 
HETATM    4  C12 UNL     1      25.655   4.818  48.996  1.00  0.00    -0.037 C 
BRANCH   4   5
HETATM    5  C13 UNL     1      26.912   5.471  48.722  1.00  0.00     0.129 A 
HETATM    6  C14 UNL     1      27.158   6.805  48.648  1.00  0.00     0.049 A 
HETATM    7  C15 UNL     1      28.506   6.911  48.364  1.00  0.00     0.038 A 
HETATM    8  C16 UNL     1      29.034   5.637  48.277  1.00  0.00     0.083 A 
HETATM    9  O2  UNL     1      28.020   4.823  48.503  1.00  0.00    -0.304 OA
BRANCH   8  10
HETATM   10  C17 UNL     1      30.391   5.120  48.003  1.00  0.00     0.337 C 
BRANCH  10  11
HETATM   11  N2  UNL     1      31.332   6.198  48.000  1.00  0.00     0.094 N 
HETATM   12  C18 UNL     1      32.529   5.859  48.773  1.00  0.00     0.273 C 
HETATM   13  C19 UNL     1      33.229   4.911  47.853  1.00  0.00     0.032 C 
HETATM   14  C20 UNL     1      33.007   5.513  46.482  1.00  0.00     0.032 C 
HETATM   15  C21 UNL     1      31.828   6.466  46.685  1.00  0.00     0.273 C 
ENDBRANCH  10  11
ENDBRANCH   8  10
ENDBRANCH   4   5
ENDBRANCH   2   3
BRANCH   1  16
HETATM   16  N1  UNL     1      21.687   2.511  50.756  1.00  0.00    -0.375 N 
HETATM   17  H9  UNL     1      21.013   2.243  50.020  1.00  0.00     0.164 HD
BRANCH  16  18
HETATM   18  C8  UNL     1      21.383   2.257  52.146  1.00  0.00     0.087 C 
HETATM   19  C7  UNL     1      22.222   1.529  52.847  1.00  0.00     0.020 C 
BRANCH  19  20
HETATM   20  C6  UNL     1      23.386   0.742  53.112  1.00  0.00     0.037 C 
HETATM   21  C5  UNL     1      24.674   0.556  53.235  1.00  0.00     0.084 C 
HETATM   22  C1  UNL     1      25.681   1.614  53.033  1.00  0.00     0.249 C 
HETATM   23  O1  UNL     1      25.074  -0.723  53.574  1.00  0.00    -0.348 OA
HETATM   24  F1  UNL     1      26.221   2.028  54.225  1.00  0.00    -0.238 F 
HETATM   25  C2  UNL     1      26.731   1.059  52.096  1.00  0.00     0.015 C 
HETATM   26  C3  UNL     1      27.005  -0.252  52.186  1.00  0.00    -0.001 C 
HETATM   27  C4  UNL     1      26.347  -1.207  53.151  1.00  0.00     0.202 C 
ENDBRANCH  19  20
ENDBRANCH  16  18
ENDBRANCH   1  16
TORSDOF 7
ENDMDL
