MODEL 1
REMARK VINA RESULT:      -8.9      0.000      0.000
REMARK  2 active torsions:
REMARK  status: ('A' for Active; 'I' for Inactive)
REMARK    1  A    between atoms: S1_2  and  N1_5 
REMARK    2  A    between atoms: N1_5  and  C2_6 
ROOT
HETATM    1  C2  UNL     1      26.042   0.139  53.472  1.00  0.00     0.043 A 
HETATM    2  C3  UNL     1      26.043   0.680  52.212  1.00  0.00     0.033 A 
HETATM    3  C4  UNL     1      24.845   0.937  51.560  1.00  0.00     0.040 A 
HETATM    4  C5  UNL     1      23.625   0.649  52.176  1.00  0.00     0.086 A 
HETATM    5  C6  UNL     1      23.626   0.092  53.474  1.00  0.00     0.006 A 
HETATM    6  C7  UNL     1      24.837  -0.142  54.074  1.00  0.00     0.041 A 
HETATM    7  C8  UNL     1      22.237  -0.133  53.988  1.00  0.00     0.311 C 
HETATM    8  N2  UNL     1      21.342  -0.163  52.862  1.00  0.00     0.093 N 
HETATM    9  C9  UNL     1      20.002   0.055  53.265  1.00  0.00     0.328 C 
HETATM   10  C10 UNL     1      19.106   0.242  52.070  1.00  0.00     0.055 A 
HETATM   11  C11 UNL     1      18.063  -0.529  51.945  1.00  0.00     0.017 A 
HETATM   12 BR1  UNL     1      17.792  -1.822  53.309  1.00  0.00    -0.053 Br
HETATM   13  C12 UNL     1      17.070  -0.503  50.856  1.00  0.00     0.077 A 
HETATM   14  C13 UNL     1      17.411   0.537  49.896  1.00  0.00    -0.004 A 
HETATM   15  C14 UNL     1      18.465   1.292  50.052  1.00  0.00     0.090 A 
HETATM   16  N3  UNL     1      19.427   1.243  51.135  1.00  0.00    -0.327 N 
HETATM   17  C15 UNL     1      20.437   2.251  50.928  1.00  0.00     0.291 A 
HETATM   18  N4  UNL     1      19.964   3.495  51.542  1.00  0.00    -0.248 NA
HETATM   19  C16 UNL     1      20.818   3.905  52.412  1.00  0.00     0.232 A 
HETATM   20  N5  UNL     1      21.924   2.980  52.454  1.00  0.00    -0.218 NA
HETATM   21  C17 UNL     1      21.719   2.038  51.616  1.00  0.00     0.192 A 
HETATM   22  O3  UNL     1      22.560   0.968  51.375  1.00  0.00    -0.291 OA
HETATM   23  H10 UNL     1      21.502  -0.948  52.225  1.00  0.00     0.316 HD
ENDROOT
BRANCH   1  24
HETATM   24  N1  UNL     1      27.224  -0.153  54.200  1.00  0.00    -0.285 N 
HETATM   25  H4  UNL     1      27.132  -0.953  54.897  1.00  0.00     0.178 HD
BRANCH  24  26
HETATM   26  S1  UNL     1      28.727   0.645  54.053  1.00  0.00     0.227 S 
HETATM   27  C1  UNL     1      30.001  -0.546  53.676  1.00  0.00     0.186 C 
HETATM   28  O1  UNL     1      28.687   1.638  52.927  1.00  0.00    -0.206 OA
HETATM   29  O2  UNL     1      29.104   1.349  55.349  1.00  0.00    -0.206 OA
ENDBRANCH  24  26
ENDBRANCH   1  24
TORSDOF 2
ENDMDL
MODEL 2
REMARK VINA RESULT:      -8.9      5.810      7.642
REMARK  2 active torsions:
REMARK  status: ('A' for Active; 'I' for Inactive)
REMARK    1  A    between atoms: S1_2  and  N1_5 
REMARK    2  A    between atoms: N1_5  and  C2_6 
ROOT
HETATM    1  C2  UNL     1      24.508   1.298  52.604  1.00  0.00     0.043 A 
HETATM    2  C3  UNL     1      23.644   2.286  53.004  1.00  0.00     0.033 A 
HETATM    3  C4  UNL     1      23.699   3.543  52.418  1.00  0.00     0.040 A 
HETATM    4  C5  UNL     1      24.632   3.820  51.416  1.00  0.00     0.086 A 
HETATM    5  C6  UNL     1      25.520   2.801  51.005  1.00  0.00     0.006 A 
HETATM    6  C7  UNL     1      25.424   1.577  51.616  1.00  0.00     0.041 A 
HETATM    7  C8  UNL     1      26.434   3.263  49.912  1.00  0.00     0.311 C 
HETATM    8  N2  UNL     1      26.464   4.702  49.930  1.00  0.00     0.093 N 
HETATM    9  C9  UNL     1      26.942   5.222  48.703  1.00  0.00     0.328 C 
HETATM   10  C10 UNL     1      26.764   6.715  48.647  1.00  0.00     0.055 A 
HETATM   11  C11 UNL     1      27.806   7.460  48.408  1.00  0.00     0.017 A 
HETATM   12 BR1  UNL     1      29.457   6.557  48.156  1.00  0.00    -0.053 Br
HETATM   13  C12 UNL     1      27.839   8.931  48.312  1.00  0.00     0.077 A 
HETATM   14  C13 UNL     1      26.504   9.473  48.525  1.00  0.00    -0.004 A 
HETATM   15  C14 UNL     1      25.481   8.697  48.762  1.00  0.00     0.090 A 
HETATM   16  N3  UNL     1      25.479   7.251  48.852  1.00  0.00    -0.327 N 
HETATM   17  C15 UNL     1      24.142   6.787  49.126  1.00  0.00     0.291 A 
HETATM   18  N4  UNL     1      23.457   6.605  47.843  1.00  0.00    -0.248 NA
HETATM   19  C16 UNL     1      23.036   5.394  47.740  1.00  0.00     0.232 A 
HETATM   20  N5  UNL     1      23.399   4.669  48.933  1.00  0.00    -0.218 NA
HETATM   21  C17 UNL     1      24.027   5.449  49.727  1.00  0.00     0.192 A 
HETATM   22  O3  UNL     1      24.532   5.110  50.968  1.00  0.00    -0.291 OA
HETATM   23  H10 UNL     1      26.872   5.098  50.781  1.00  0.00     0.316 HD
ENDROOT
BRANCH   1  24
HETATM   24  N1  UNL     1      24.514  -0.008  53.156  1.00  0.00    -0.285 N 
HETATM   25  H4  UNL     1      23.678  -0.610  52.887  1.00  0.00     0.178 HD
BRANCH  24  26
HETATM   26  S1  UNL     1      25.713  -0.668  54.179  1.00  0.00     0.227 S 
HETATM   27  C1  UNL     1      26.754   0.642  54.800  1.00  0.00     0.186 C 
HETATM   28  O1  UNL     1      25.081  -1.344  55.361  1.00  0.00    -0.206 OA
HETATM   29  O2  UNL     1      26.593  -1.656  53.426  1.00  0.00    -0.206 OA
ENDBRANCH  24  26
ENDBRANCH   1  24
TORSDOF 2
ENDMDL
MODEL 3
REMARK VINA RESULT:      -8.8      4.167      5.791
REMARK  2 active torsions:
REMARK  status: ('A' for Active; 'I' for Inactive)
REMARK    1  A    between atoms: S1_2  and  N1_5 
REMARK    2  A    between atoms: N1_5  and  C2_6 
ROOT
HETATM    1  C2  UNL     1      26.476   1.419  52.464  1.00  0.00     0.043 A 
HETATM    2  C3  UNL     1      25.538   1.774  53.399  1.00  0.00     0.033 A 
HETATM    3  C4  UNL     1      24.596   2.752  53.109  1.00  0.00     0.040 A 
HETATM    4  C5  UNL     1      24.590   3.387  51.865  1.00  0.00     0.086 A 
HETATM    5  C6  UNL     1      25.557   3.020  50.903  1.00  0.00     0.006 A 
HETATM    6  C7  UNL     1      26.465   2.049  51.240  1.00  0.00     0.041 A 
HETATM    7  C8  UNL     1      25.392   3.783  49.624  1.00  0.00     0.311 C 
HETATM    8  N2  UNL     1      24.626   4.968  49.905  1.00  0.00     0.093 N 
HETATM    9  C9  UNL     1      24.068   5.511  48.722  1.00  0.00     0.328 C 
HETATM   10  C10 UNL     1      23.094   6.612  49.044  1.00  0.00     0.055 A 
HETATM   11  C11 UNL     1      23.273   7.783  48.502  1.00  0.00     0.017 A 
HETATM   12 BR1  UNL     1      24.770   7.966  47.348  1.00  0.00    -0.053 Br
HETATM   13  C12 UNL     1      22.435   8.982  48.688  1.00  0.00     0.077 A 
HETATM   14  C13 UNL     1      21.333   8.682  49.592  1.00  0.00    -0.004 A 
HETATM   15  C14 UNL     1      21.183   7.497  50.119  1.00  0.00     0.090 A 
HETATM   16  N3  UNL     1      22.026   6.335  49.918  1.00  0.00    -0.327 N 
HETATM   17  C15 UNL     1      21.508   5.227  50.681  1.00  0.00     0.291 A 
HETATM   18  N4  UNL     1      20.523   4.529  49.850  1.00  0.00    -0.248 NA
HETATM   19  C16 UNL     1      20.858   3.294  49.720  1.00  0.00     0.232 A 
HETATM   20  N5  UNL     1      22.083   3.062  50.446  1.00  0.00    -0.218 NA
HETATM   21  C17 UNL     1      22.461   4.152  50.995  1.00  0.00     0.192 A 
HETATM   22  O3  UNL     1      23.591   4.320  51.772  1.00  0.00    -0.291 OA
HETATM   23  H10 UNL     1      25.095   5.628  50.531  1.00  0.00     0.316 HD
ENDROOT
BRANCH   1  24
HETATM   24  N1  UNL     1      27.470   0.433  52.686  1.00  0.00    -0.285 N 
HETATM   25  H4  UNL     1      27.605  -0.254  51.884  1.00  0.00     0.178 HD
BRANCH  24  26
HETATM   26  S1  UNL     1      28.434   0.266  54.087  1.00  0.00     0.227 S 
HETATM   27  C1  UNL     1      29.882  -0.705  53.703  1.00  0.00     0.186 C 
HETATM   28  O1  UNL     1      28.904   1.610  54.566  1.00  0.00    -0.206 OA
HETATM   29  O2  UNL     1      27.670  -0.441  55.198  1.00  0.00    -0.206 OA
ENDBRANCH  24  26
ENDBRANCH   1  24
TORSDOF 2
ENDMDL
MODEL 4
REMARK VINA RESULT:      -8.6      1.698      2.093
REMARK  2 active torsions:
REMARK  status: ('A' for Active; 'I' for Inactive)
REMARK    1  A    between atoms: S1_2  and  N1_5 
REMARK    2  A    between atoms: N1_5  and  C2_6 
ROOT
HETATM    1  C2  UNL     1      26.792   1.555  52.408  1.00  0.00     0.043 A 
HETATM    2  C3  UNL     1      26.787   2.173  51.183  1.00  0.00     0.033 A 
HETATM    3  C4  UNL     1      25.586   2.495  50.567  1.00  0.00     0.040 A 
HETATM    4  C5  UNL     1      24.368   2.194  51.181  1.00  0.00     0.086 A 
HETATM    5  C6  UNL     1      24.375   1.558  52.443  1.00  0.00     0.006 A 
HETATM    6  C7  UNL     1      25.589   1.261  53.009  1.00  0.00     0.041 A 
HETATM    7  C8  UNL     1      22.989   1.329  52.962  1.00  0.00     0.311 C 
HETATM    8  N2  UNL     1      22.078   1.388  51.850  1.00  0.00     0.093 N 
HETATM    9  C9  UNL     1      20.749   1.608  52.285  1.00  0.00     0.328 C 
HETATM   10  C10 UNL     1      19.841   1.888  51.118  1.00  0.00     0.055 A 
HETATM   11  C11 UNL     1      18.780   1.148  50.961  1.00  0.00     0.017 A 
HETATM   12 BR1  UNL     1      18.500  -0.222  52.246  1.00  0.00    -0.053 Br
HETATM   13  C12 UNL     1      17.772   1.262  49.891  1.00  0.00     0.077 A 
HETATM   14  C13 UNL     1      18.124   2.353  48.992  1.00  0.00    -0.004 A 
HETATM   15  C14 UNL     1      19.195   3.075  49.178  1.00  0.00     0.090 A 
HETATM   16  N3  UNL     1      20.170   2.938  50.242  1.00  0.00    -0.327 N 
HETATM   17  C15 UNL     1      21.199   3.936  50.083  1.00  0.00     0.291 A 
HETATM   18  N4  UNL     1      20.762   5.149  50.780  1.00  0.00    -0.248 NA
HETATM   19  C16 UNL     1      21.636   5.487  51.660  1.00  0.00     0.232 A 
HETATM   20  N5  UNL     1      22.723   4.538  51.629  1.00  0.00    -0.218 NA
HETATM   21  C17 UNL     1      22.485   3.654  50.737  1.00  0.00     0.192 A 
HETATM   22  O3  UNL     1      23.300   2.584  50.418  1.00  0.00    -0.291 OA
HETATM   23  H10 UNL     1      22.213   0.641  51.163  1.00  0.00     0.316 HD
ENDROOT
BRANCH   1  24
HETATM   24  N1  UNL     1      27.976   1.193  53.099  1.00  0.00    -0.285 N 
HETATM   25  H4  UNL     1      28.713   1.960  53.154  1.00  0.00     0.178 HD
BRANCH  24  26
HETATM   26  S1  UNL     1      28.303  -0.319  53.824  1.00  0.00     0.227 S 
HETATM   27  C1  UNL     1      30.037  -0.703  53.647  1.00  0.00     0.186 C 
HETATM   28  O1  UNL     1      27.996  -0.275  55.293  1.00  0.00    -0.206 OA
HETATM   29  O2  UNL     1      27.501  -1.430  53.160  1.00  0.00    -0.206 OA
ENDBRANCH  24  26
ENDBRANCH   1  24
TORSDOF 2
ENDMDL
MODEL 5
REMARK VINA RESULT:      -8.3      7.971     10.336
REMARK  2 active torsions:
REMARK  status: ('A' for Active; 'I' for Inactive)
REMARK    1  A    between atoms: S1_2  and  N1_5 
REMARK    2  A    between atoms: N1_5  and  C2_6 
ROOT
HETATM    1  C2  UNL     1      24.405   3.711  50.302  1.00  0.00     0.043 A 
HETATM    2  C3  UNL     1      23.917   4.925  50.715  1.00  0.00     0.033 A 
HETATM    3  C4  UNL     1      24.620   6.090  50.443  1.00  0.00     0.040 A 
HETATM    4  C5  UNL     1      25.832   6.044  49.750  1.00  0.00     0.086 A 
HETATM    5  C6  UNL     1      26.332   4.793  49.325  1.00  0.00     0.006 A 
HETATM    6  C7  UNL     1      25.598   3.672  49.618  1.00  0.00     0.041 A 
HETATM    7  C8  UNL     1      27.625   4.931  48.581  1.00  0.00     0.311 C 
HETATM    8  N2  UNL     1      28.204   6.204  48.920  1.00  0.00     0.093 N 
HETATM    9  C9  UNL     1      29.176   6.597  47.968  1.00  0.00     0.328 C 
HETATM   10  C10 UNL     1      29.615   8.016  48.204  1.00  0.00     0.055 A 
HETATM   11  C11 UNL     1      30.885   8.259  48.362  1.00  0.00     0.017 A 
HETATM   12 BR1  UNL     1      32.054   6.764  48.277  1.00  0.00    -0.053 Br
HETATM   13  C12 UNL     1      31.513   9.572  48.601  1.00  0.00     0.077 A 
HETATM   14  C13 UNL     1      30.493  10.611  48.636  1.00  0.00    -0.004 A 
HETATM   15  C14 UNL     1      29.228  10.333  48.474  1.00  0.00     0.090 A 
HETATM   16  N3  UNL     1      28.638   9.029  48.242  1.00  0.00    -0.327 N 
HETATM   17  C15 UNL     1      27.208   9.161  48.115  1.00  0.00     0.291 A 
HETATM   18  N4  UNL     1      26.905   9.435  46.707  1.00  0.00    -0.248 NA
HETATM   19  C16 UNL     1      26.096   8.544  46.254  1.00  0.00     0.232 A 
HETATM   20  N5  UNL     1      25.791   7.607  47.308  1.00  0.00    -0.218 NA
HETATM   21  C17 UNL     1      26.418   7.948  48.369  1.00  0.00     0.192 A 
HETATM   22  O3  UNL     1      26.373   7.291  49.584  1.00  0.00    -0.291 OA
HETATM   23  H10 UNL     1      28.472   6.289  49.904  1.00  0.00     0.316 HD
ENDROOT
BRANCH   1  24
HETATM   24  N1  UNL     1      23.746   2.478  50.542  1.00  0.00    -0.285 N 
HETATM   25  H4  UNL     1      23.166   2.116  49.727  1.00  0.00     0.178 HD
BRANCH  24  26
HETATM   26  S1  UNL     1      23.807   1.563  51.984  1.00  0.00     0.227 S 
HETATM   27  C1  UNL     1      22.332   0.567  52.121  1.00  0.00     0.186 C 
HETATM   28  O1  UNL     1      24.984   0.630  51.965  1.00  0.00    -0.206 OA
HETATM   29  O2  UNL     1      23.884   2.468  53.205  1.00  0.00    -0.206 OA
ENDBRANCH  24  26
ENDBRANCH   1  24
TORSDOF 2
ENDMDL
MODEL 6
REMARK VINA RESULT:      -8.2      3.441      4.215
REMARK  2 active torsions:
REMARK  status: ('A' for Active; 'I' for Inactive)
REMARK    1  A    between atoms: S1_2  and  N1_5 
REMARK    2  A    between atoms: N1_5  and  C2_6 
ROOT
HETATM    1  C2  UNL     1      26.205   2.080  52.916  1.00  0.00     0.043 A 
HETATM    2  C3  UNL     1      26.883   2.354  51.755  1.00  0.00     0.033 A 
HETATM    3  C4  UNL     1      26.196   2.791  50.631  1.00  0.00     0.040 A 
HETATM    4  C5  UNL     1      24.809   2.956  50.664  1.00  0.00     0.086 A 
HETATM    5  C6  UNL     1      24.114   2.674  51.861  1.00  0.00     0.006 A 
HETATM    6  C7  UNL     1      24.839   2.245  52.943  1.00  0.00     0.041 A 
HETATM    7  C8  UNL     1      22.642   2.924  51.726  1.00  0.00     0.311 C 
HETATM    8  N2  UNL     1      22.314   2.920  50.325  1.00  0.00     0.093 N 
HETATM    9  C9  UNL     1      21.072   3.556  50.087  1.00  0.00     0.328 C 
HETATM   10  C10 UNL     1      20.839   3.745  48.612  1.00  0.00     0.055 A 
HETATM   11  C11 UNL     1      19.747   3.268  48.086  1.00  0.00     0.017 A 
HETATM   12 BR1  UNL     1      18.556   2.372  49.263  1.00  0.00    -0.053 Br
HETATM   13  C12 UNL     1      19.337   3.349  46.672  1.00  0.00     0.077 A 
HETATM   14  C13 UNL     1      20.347   4.062  45.902  1.00  0.00    -0.004 A 
HETATM   15  C14 UNL     1      21.430   4.528  46.461  1.00  0.00     0.090 A 
HETATM   16  N3  UNL     1      21.809   4.431  47.857  1.00  0.00    -0.327 N 
HETATM   17  C15 UNL     1      23.081   5.079  48.058  1.00  0.00     0.291 A 
HETATM   18  N4  UNL     1      22.827   6.496  48.332  1.00  0.00    -0.248 NA
HETATM   19  C16 UNL     1      23.343   6.822  49.463  1.00  0.00     0.232 A 
HETATM   20  N5  UNL     1      23.982   5.663  50.038  1.00  0.00    -0.218 NA
HETATM   21  C17 UNL     1      23.839   4.668  49.249  1.00  0.00     0.192 A 
HETATM   22  O3  UNL     1      24.317   3.389  49.462  1.00  0.00    -0.291 OA
HETATM   23  H10 UNL     1      22.456   2.016  49.868  1.00  0.00     0.316 HD
ENDROOT
BRANCH   1  24
HETATM   24  N1  UNL     1      26.836   1.628  54.103  1.00  0.00    -0.285 N 
HETATM   25  H4  UNL     1      27.160   2.402  54.758  1.00  0.00     0.178 HD
BRANCH  24  26
HETATM   26  S1  UNL     1      27.105   0.001  54.550  1.00  0.00     0.227 S 
HETATM   27  C1  UNL     1      26.992  -1.040  53.105  1.00  0.00     0.186 C 
HETATM   28  O1  UNL     1      28.484  -0.166  55.122  1.00  0.00    -0.206 OA
HETATM   29  O2  UNL     1      26.066  -0.470  55.557  1.00  0.00    -0.206 OA
ENDBRANCH  24  26
ENDBRANCH   1  24
TORSDOF 2
ENDMDL
MODEL 7
REMARK VINA RESULT:      -8.1      8.019     10.690
REMARK  2 active torsions:
REMARK  status: ('A' for Active; 'I' for Inactive)
REMARK    1  A    between atoms: S1_2  and  N1_5 
REMARK    2  A    between atoms: N1_5  and  C2_6 
ROOT
HETATM    1  C2  UNL     1      23.915   4.803  50.322  1.00  0.00     0.043 A 
HETATM    2  C3  UNL     1      23.810   6.128  50.662  1.00  0.00     0.033 A 
HETATM    3  C4  UNL     1      24.834   7.012  50.353  1.00  0.00     0.040 A 
HETATM    4  C5  UNL     1      25.983   6.568  49.695  1.00  0.00     0.086 A 
HETATM    5  C6  UNL     1      26.089   5.204  49.345  1.00  0.00     0.006 A 
HETATM    6  C7  UNL     1      25.049   4.371  49.673  1.00  0.00     0.041 A 
HETATM    7  C8  UNL     1      27.371   4.907  48.629  1.00  0.00     0.311 C 
HETATM    8  N2  UNL     1      28.302   5.965  48.921  1.00  0.00     0.093 N 
HETATM    9  C9  UNL     1      29.357   5.996  47.977  1.00  0.00     0.328 C 
HETATM   10  C10 UNL     1      30.200   7.229  48.154  1.00  0.00     0.055 A 
HETATM   11  C11 UNL     1      31.483   7.089  48.334  1.00  0.00     0.017 A 
HETATM   12 BR1  UNL     1      32.149   5.311  48.353  1.00  0.00    -0.053 Br
HETATM   13  C12 UNL     1      32.473   8.164  48.525  1.00  0.00     0.077 A 
HETATM   14  C13 UNL     1      31.812   9.462  48.483  1.00  0.00    -0.004 A 
HETATM   15  C14 UNL     1      30.524   9.567  48.301  1.00  0.00     0.090 A 
HETATM   16  N3  UNL     1      29.573   8.489  48.117  1.00  0.00    -0.327 N 
HETATM   17  C15 UNL     1      28.250   9.036  47.947  1.00  0.00     0.291 A 
HETATM   18  N4  UNL     1      28.057   9.311  46.520  1.00  0.00    -0.248 NA
HETATM   19  C16 UNL     1      27.023   8.680  46.089  1.00  0.00     0.232 A 
HETATM   20  N5  UNL     1      26.440   7.937  47.180  1.00  0.00    -0.218 NA
HETATM   21  C17 UNL     1      27.128   8.131  48.239  1.00  0.00     0.192 A 
HETATM   22  O3  UNL     1      26.876   7.585  49.483  1.00  0.00    -0.291 OA
HETATM   23  H10 UNL     1      28.573   6.019  49.906  1.00  0.00     0.316 HD
ENDROOT
BRANCH   1  24
HETATM   24  N1  UNL     1      22.914   3.839  50.605  1.00  0.00    -0.285 N 
HETATM   25  H4  UNL     1      22.074   3.863  49.951  1.00  0.00     0.178 HD
BRANCH  24  26
HETATM   26  S1  UNL     1      22.948   2.685  51.864  1.00  0.00     0.227 S 
HETATM   27  C1  UNL     1      24.161   3.166  53.082  1.00  0.00     0.186 C 
HETATM   28  O1  UNL     1      21.615   2.620  52.554  1.00  0.00    -0.206 OA
HETATM   29  O2  UNL     1      23.325   1.308  51.337  1.00  0.00    -0.206 OA
ENDBRANCH  24  26
ENDBRANCH   1  24
TORSDOF 2
ENDMDL
MODEL 8
REMARK VINA RESULT:      -8.0      4.938      8.603
REMARK  2 active torsions:
REMARK  status: ('A' for Active; 'I' for Inactive)
REMARK    1  A    between atoms: S1_2  and  N1_5 
REMARK    2  A    between atoms: N1_5  and  C2_6 
ROOT
HETATM    1  C2  UNL     1      18.659   2.129  51.405  1.00  0.00     0.043 A 
HETATM    2  C3  UNL     1      19.359   1.073  50.878  1.00  0.00     0.033 A 
HETATM    3  C4  UNL     1      20.702   1.215  50.558  1.00  0.00     0.040 A 
HETATM    4  C5  UNL     1      21.358   2.430  50.765  1.00  0.00     0.086 A 
HETATM    5  C6  UNL     1      20.636   3.516  51.308  1.00  0.00     0.006 A 
HETATM    6  C7  UNL     1      19.311   3.324  51.607  1.00  0.00     0.041 A 
HETATM    7  C8  UNL     1      21.497   4.730  51.482  1.00  0.00     0.311 C 
HETATM    8  N2  UNL     1      22.647   4.589  50.629  1.00  0.00     0.093 N 
HETATM    9  C9  UNL     1      23.694   5.452  51.033  1.00  0.00     0.328 C 
HETATM   10  C10 UNL     1      24.962   5.146  50.283  1.00  0.00     0.055 A 
HETATM   11  C11 UNL     1      25.549   6.107  49.628  1.00  0.00     0.017 A 
HETATM   12 BR1  UNL     1      24.718   7.813  49.697  1.00  0.00    -0.053 Br
HETATM   13  C12 UNL     1      26.790   6.011  48.838  1.00  0.00     0.077 A 
HETATM   14  C13 UNL     1      27.304   4.650  48.884  1.00  0.00    -0.004 A 
HETATM   15  C14 UNL     1      26.691   3.709  49.550  1.00  0.00     0.090 A 
HETATM   16  N3  UNL     1      25.468   3.833  50.319  1.00  0.00    -0.327 N 
HETATM   17  C15 UNL     1      25.133   2.557  50.900  1.00  0.00     0.291 A 
HETATM   18  N4  UNL     1      25.815   2.459  52.194  1.00  0.00    -0.248 NA
HETATM   19  C16 UNL     1      24.954   2.251  53.127  1.00  0.00     0.232 A 
HETATM   20  N5  UNL     1      23.636   2.192  52.543  1.00  0.00    -0.218 NA
HETATM   21  C17 UNL     1      23.726   2.364  51.279  1.00  0.00     0.192 A 
HETATM   22  O3  UNL     1      22.673   2.372  50.385  1.00  0.00    -0.291 OA
HETATM   23  H10 UNL     1      22.425   4.582  49.630  1.00  0.00     0.316 HD
ENDROOT
BRANCH   1  24
HETATM   24  N1  UNL     1      17.286   2.063  51.755  1.00  0.00    -0.285 N 
HETATM   25  H4  UNL     1      16.973   1.128  52.158  1.00  0.00     0.178 HD
BRANCH  24  26
HETATM   26  S1  UNL     1      16.138   3.317  51.589  1.00  0.00     0.227 S 
HETATM   27  C1  UNL     1      14.492   2.629  51.640  1.00  0.00     0.186 C 
HETATM   28  O1  UNL     1      16.257   4.293  52.724  1.00  0.00    -0.206 OA
HETATM   29  O2  UNL     1      16.308   4.043  50.262  1.00  0.00    -0.206 OA
ENDBRANCH  24  26
ENDBRANCH   1  24
TORSDOF 2
ENDMDL
MODEL 9
REMARK VINA RESULT:      -7.8      6.030      7.496
REMARK  2 active torsions:
REMARK  status: ('A' for Active; 'I' for Inactive)
REMARK    1  A    between atoms: S1_2  and  N1_5 
REMARK    2  A    between atoms: N1_5  and  C2_6 
ROOT
HETATM    1  C2  UNL     1      25.885   2.829  50.961  1.00  0.00     0.043 A 
HETATM    2  C3  UNL     1      26.564   3.132  49.809  1.00  0.00     0.033 A 
HETATM    3  C4  UNL     1      26.276   4.298  49.113  1.00  0.00     0.040 A 
HETATM    4  C5  UNL     1      25.292   5.176  49.574  1.00  0.00     0.086 A 
HETATM    5  C6  UNL     1      24.595   4.862  50.762  1.00  0.00     0.006 A 
HETATM    6  C7  UNL     1      24.918   3.699  51.411  1.00  0.00     0.041 A 
HETATM    7  C8  UNL     1      23.595   5.920  51.120  1.00  0.00     0.311 C 
HETATM    8  N2  UNL     1      23.309   6.685  49.935  1.00  0.00     0.093 N 
HETATM    9  C9  UNL     1      22.726   7.934  50.259  1.00  0.00     0.328 C 
HETATM   10  C10 UNL     1      22.632   8.814  49.043  1.00  0.00     0.055 A 
HETATM   11  C11 UNL     1      21.470   9.302  48.712  1.00  0.00     0.017 A 
HETATM   12 BR1  UNL     1      20.004   8.833  49.824  1.00  0.00    -0.053 Br
HETATM   13  C12 UNL     1      21.172  10.179  47.565  1.00  0.00     0.077 A 
HETATM   14  C13 UNL     1      22.392  10.448  46.815  1.00  0.00    -0.004 A 
HETATM   15  C14 UNL     1      23.541   9.944  47.175  1.00  0.00     0.090 A 
HETATM   16  N3  UNL     1      23.804   9.081  48.309  1.00  0.00    -0.327 N 
HETATM   17  C15 UNL     1      25.207   8.751  48.349  1.00  0.00     0.291 A 
HETATM   18  N4  UNL     1      25.893   9.795  49.116  1.00  0.00    -0.248 NA
HETATM   19  C16 UNL     1      26.522   9.268  50.106  1.00  0.00     0.232 A 
HETATM   20  N5  UNL     1      26.314   7.841  50.087  1.00  0.00    -0.218 NA
HETATM   21  C17 UNL     1      25.568   7.536  49.095  1.00  0.00     0.192 A 
HETATM   22  O3  UNL     1      25.153   6.263  48.753  1.00  0.00    -0.291 OA
HETATM   23  H10 UNL     1      22.849   6.148  49.195  1.00  0.00     0.316 HD
ENDROOT
BRANCH   1  24
HETATM   24  N1  UNL     1      26.122   1.658  51.725  1.00  0.00    -0.285 N 
HETATM   25  H4  UNL     1      25.526   0.819  51.452  1.00  0.00     0.178 HD
BRANCH  24  26
HETATM   26  S1  UNL     1      27.245   1.492  53.001  1.00  0.00     0.227 S 
HETATM   27  C1  UNL     1      27.808  -0.200  53.085  1.00  0.00     0.186 C 
HETATM   28  O1  UNL     1      28.448   2.358  52.759  1.00  0.00    -0.206 OA
HETATM   29  O2  UNL     1      26.613   1.848  54.339  1.00  0.00    -0.206 OA
ENDBRANCH  24  26
ENDBRANCH   1  24
TORSDOF 2
ENDMDL
