MODEL 1
REMARK VINA RESULT:      -9.4      0.000      0.000
REMARK  6 active torsions:
REMARK  status: ('A' for Active; 'I' for Inactive)
REMARK    1  A    between atoms: C2_2  and  C3_3 
REMARK    2  A    between atoms: C3_3  and  C4_4 
REMARK    3  A    between atoms: C5_6  and  C6_7 
REMARK    4  A    between atoms: C7_9  and  C8_10 
REMARK    5  A    between atoms: N4_13  and  C10_14 
REMARK    6  A    between atoms: C18_24  and  N7_25 
ROOT
HETATM    1  C4  UNL     1      27.788   0.145  54.221  1.00  0.00     0.083 A 
HETATM    2  N1  UNL     1      26.692  -0.591  54.421  1.00  0.00    -0.226 NA
HETATM    3  C5  UNL     1      25.565   0.056  54.100  1.00  0.00     0.177 A 
HETATM    4  N8  UNL     1      25.952   1.269  53.673  1.00  0.00    -0.232 N 
HETATM    5  C19 UNL     1      25.178   2.344  53.216  1.00  0.00     0.191 C 
HETATM    6  N9  UNL     1      24.551   3.243  52.833  1.00  0.00    -0.171 NA
HETATM    7  C20 UNL     1      27.307   1.364  53.731  1.00  0.00     0.058 A 
HETATM    8  C21 UNL     1      28.100   2.398  53.405  1.00  0.00     0.067 C 
ENDROOT
BRANCH   3   9
HETATM    9  C6  UNL     1      24.179  -0.385  54.171  1.00  0.00     0.149 A 
HETATM   10  N2  UNL     1      23.279  -0.031  53.238  1.00  0.00    -0.239 NA
HETATM   11  C7  UNL     1      21.990  -0.466  53.346  1.00  0.00     0.088 A 
HETATM   12  C17 UNL     1      21.540  -1.261  54.373  1.00  0.00     0.151 A 
HETATM   13  N6  UNL     1      22.442  -1.630  55.329  1.00  0.00    -0.239 NA
HETATM   14  C18 UNL     1      23.702  -1.183  55.188  1.00  0.00     0.153 A 
BRANCH  11  15
HETATM   15  C8  UNL     1      21.042  -0.063  52.315  1.00  0.00     0.030 A 
HETATM   16  C9  UNL     1      21.301   0.395  51.034  1.00  0.00     0.154 A 
HETATM   17  N3  UNL     1      20.130   0.643  50.443  1.00  0.00    -0.184 NA
HETATM   18  N4  UNL     1      19.102   0.385  51.234  1.00  0.00    -0.276 N 
HETATM   19  C16 UNL     1      19.665  -0.054  52.398  1.00  0.00     0.128 A 
BRANCH  18  20
HETATM   20  C10 UNL     1      17.676   0.511  50.993  1.00  0.00     0.113 C 
HETATM   21  C11 UNL     1      17.135   1.833  51.531  1.00  0.00     0.057 C 
HETATM   22  C12 UNL     1      15.662   1.870  51.153  1.00  0.00     0.274 C 
HETATM   23  N5  UNL     1      14.962   0.818  51.843  1.00  0.00     0.084 N 
HETATM   24  C13 UNL     1      14.037   1.404  52.773  1.00  0.00     0.309 C 
HETATM   25  C14 UNL     1      15.807  -0.095  52.552  1.00  0.00     0.274 C 
HETATM   26  C15 UNL     1      16.958  -0.591  51.732  1.00  0.00     0.057 C 
ENDBRANCH  18  20
ENDBRANCH  11  15
BRANCH  14  27
HETATM   27  N7  UNL     1      24.554  -1.625  56.226  1.00  0.00    -0.382 N 
HETATM   28  H20 UNL     1      24.982  -1.658  57.152  1.00  0.00     0.157 HD
HETATM   29  H21 UNL     1      25.137  -2.428  55.873  1.00  0.00     0.157 HD
ENDBRANCH  14  27
ENDBRANCH   3   9
BRANCH   1  30
HETATM   30  C3  UNL     1      29.071  -0.113  54.404  1.00  0.00     0.033 C 
BRANCH  30  31
HETATM   31  C2  UNL     1      29.780  -1.091  53.592  1.00  0.00    -0.008 C 
HETATM   32  C1  UNL     1      29.380  -2.298  53.228  1.00  0.00     0.011 C 
ENDBRANCH  30  31
ENDBRANCH   1  30
TORSDOF 6
ENDMDL
MODEL 2
REMARK VINA RESULT:      -9.1      2.006      3.343
REMARK  6 active torsions:
REMARK  status: ('A' for Active; 'I' for Inactive)
REMARK    1  A    between atoms: C2_2  and  C3_3 
REMARK    2  A    between atoms: C3_3  and  C4_4 
REMARK    3  A    between atoms: C5_6  and  C6_7 
REMARK    4  A    between atoms: C7_9  and  C8_10 
REMARK    5  A    between atoms: N4_13  and  C10_14 
REMARK    6  A    between atoms: C18_24  and  N7_25 
ROOT
HETATM    1  C4  UNL     1      27.759   0.120  54.252  1.00  0.00     0.083 A 
HETATM    2  N1  UNL     1      26.655  -0.604  54.448  1.00  0.00    -0.226 NA
HETATM    3  C5  UNL     1      25.536   0.053  54.119  1.00  0.00     0.177 A 
HETATM    4  N8  UNL     1      25.937   1.260  53.689  1.00  0.00    -0.232 N 
HETATM    5  C19 UNL     1      25.177   2.341  53.224  1.00  0.00     0.191 C 
HETATM    6  N9  UNL     1      24.561   3.244  52.833  1.00  0.00    -0.171 NA
HETATM    7  C20 UNL     1      27.293   1.342  53.755  1.00  0.00     0.058 A 
HETATM    8  C21 UNL     1      28.098   2.368  53.430  1.00  0.00     0.067 C 
ENDROOT
BRANCH   3   9
HETATM    9  C6  UNL     1      24.145  -0.374  54.183  1.00  0.00     0.149 A 
HETATM   10  N2  UNL     1      23.247   0.013  53.261  1.00  0.00    -0.239 NA
HETATM   11  C7  UNL     1      21.954  -0.410  53.362  1.00  0.00     0.088 A 
HETATM   12  C17 UNL     1      21.498  -1.225  54.371  1.00  0.00     0.151 A 
HETATM   13  N6  UNL     1      22.398  -1.627  55.315  1.00  0.00    -0.239 NA
HETATM   14  C18 UNL     1      23.662  -1.191  55.181  1.00  0.00     0.153 A 
BRANCH  11  15
HETATM   15  C8  UNL     1      21.007   0.028  52.344  1.00  0.00     0.030 A 
HETATM   16  C9  UNL     1      19.639  -0.185  52.288  1.00  0.00     0.154 A 
HETATM   17  N3  UNL     1      19.180   0.398  51.179  1.00  0.00    -0.184 NA
HETATM   18  N4  UNL     1      20.140   0.988  50.485  1.00  0.00    -0.276 N 
HETATM   19  C16 UNL     1      21.276   0.760  51.207  1.00  0.00     0.128 A 
BRANCH  18  20
HETATM   20  C10 UNL     1      20.078   1.728  49.238  1.00  0.00     0.113 C 
HETATM   21  C11 UNL     1      21.472   1.976  48.668  1.00  0.00     0.057 C 
HETATM   22  C12 UNL     1      21.264   2.688  47.339  1.00  0.00     0.274 C 
HETATM   23  N5  UNL     1      20.670   3.979  47.574  1.00  0.00     0.084 N 
HETATM   24  C13 UNL     1      21.607   4.999  47.197  1.00  0.00     0.309 C 
HETATM   25  C14 UNL     1      20.261   4.210  48.927  1.00  0.00     0.274 C 
HETATM   26  C15 UNL     1      19.464   3.080  49.504  1.00  0.00     0.057 C 
ENDBRANCH  18  20
ENDBRANCH  11  15
BRANCH  14  27
HETATM   27  N7  UNL     1      24.511  -1.668  56.206  1.00  0.00    -0.382 N 
HETATM   28  H20 UNL     1      25.040  -2.340  56.764  1.00  0.00     0.157 HD
HETATM   29  H21 UNL     1      24.826  -0.855  56.798  1.00  0.00     0.157 HD
ENDBRANCH  14  27
ENDBRANCH   3   9
BRANCH   1  30
HETATM   30  C3  UNL     1      29.038  -0.149  54.444  1.00  0.00     0.033 C 
BRANCH  30  31
HETATM   31  C2  UNL     1      29.761  -1.084  53.593  1.00  0.00    -0.008 C 
HETATM   32  C1  UNL     1      29.398  -2.297  53.215  1.00  0.00     0.011 C 
ENDBRANCH  30  31
ENDBRANCH   1  30
TORSDOF 6
ENDMDL
MODEL 3
REMARK VINA RESULT:      -8.4      6.118      9.415
REMARK  6 active torsions:
REMARK  status: ('A' for Active; 'I' for Inactive)
REMARK    1  A    between atoms: C2_2  and  C3_3 
REMARK    2  A    between atoms: C3_3  and  C4_4 
REMARK    3  A    between atoms: C5_6  and  C6_7 
REMARK    4  A    between atoms: C7_9  and  C8_10 
REMARK    5  A    between atoms: N4_13  and  C10_14 
REMARK    6  A    between atoms: C18_24  and  N7_25 
ROOT
HETATM    1  C4  UNL     1      32.481   4.264  47.427  1.00  0.00     0.083 A 
HETATM    2  N1  UNL     1      31.152   4.329  47.312  1.00  0.00    -0.226 NA
HETATM    3  C5  UNL     1      30.626   5.389  47.937  1.00  0.00     0.177 A 
HETATM    4  N8  UNL     1      31.666   6.041  48.481  1.00  0.00    -0.232 N 
HETATM    5  C19 UNL     1      31.684   7.217  49.243  1.00  0.00     0.191 C 
HETATM    6  N9  UNL     1      31.715   8.192  49.873  1.00  0.00    -0.171 NA
HETATM    7  C20 UNL     1      32.821   5.384  48.192  1.00  0.00     0.058 A 
HETATM    8  C21 UNL     1      34.082   5.688  48.544  1.00  0.00     0.067 C 
ENDROOT
BRANCH   3   9
HETATM    9  C6  UNL     1      29.239   5.817  48.051  1.00  0.00     0.149 A 
HETATM   10  N2  UNL     1      28.349   5.128  48.785  1.00  0.00    -0.239 NA
HETATM   11  C7  UNL     1      27.058   5.565  48.862  1.00  0.00     0.088 A 
HETATM   12  C17 UNL     1      26.598   6.690  48.221  1.00  0.00     0.151 A 
HETATM   13  N6  UNL     1      27.490   7.401  47.472  1.00  0.00    -0.239 NA
HETATM   14  C18 UNL     1      28.751   6.940  47.421  1.00  0.00     0.153 A 
BRANCH  11  15
HETATM   15  C8  UNL     1      26.120   4.793  49.667  1.00  0.00     0.030 A 
HETATM   16  C9  UNL     1      24.888   5.182  50.168  1.00  0.00     0.154 A 
HETATM   17  N3  UNL     1      24.378   4.151  50.846  1.00  0.00    -0.184 NA
HETATM   18  N4  UNL     1      25.178   3.097  50.837  1.00  0.00    -0.276 N 
HETATM   19  C16 UNL     1      26.260   3.493  50.105  1.00  0.00     0.128 A 
BRANCH  18  20
HETATM   20  C10 UNL     1      25.012   1.788  51.440  1.00  0.00     0.113 C 
HETATM   21  C11 UNL     1      24.372   1.888  52.822  1.00  0.00     0.057 C 
HETATM   22  C12 UNL     1      24.190   0.458  53.308  1.00  0.00     0.274 C 
HETATM   23  N5  UNL     1      25.480  -0.157  53.486  1.00  0.00     0.084 N 
HETATM   24  C13 UNL     1      25.678  -0.431  54.881  1.00  0.00     0.309 C 
HETATM   25  C14 UNL     1      26.583   0.623  53.011  1.00  0.00     0.274 C 
HETATM   26  C15 UNL     1      26.372   1.163  51.630  1.00  0.00     0.057 C 
ENDBRANCH  18  20
ENDBRANCH  11  15
BRANCH  14  27
HETATM   27  N7  UNL     1      29.593   7.751  46.624  1.00  0.00    -0.382 N 
HETATM   28  H20 UNL     1      30.109   8.059  45.799  1.00  0.00     0.157 HD
HETATM   29  H21 UNL     1      29.923   8.570  47.198  1.00  0.00     0.157 HD
ENDBRANCH  14  27
ENDBRANCH   3   9
BRANCH   1  30
HETATM   30  C3  UNL     1      33.365   3.397  46.968  1.00  0.00     0.033 C 
BRANCH  30  31
HETATM   31  C2  UNL     1      33.241   1.967  47.220  1.00  0.00    -0.008 C 
HETATM   32  C1  UNL     1      33.074   1.351  48.378  1.00  0.00     0.011 C 
ENDBRANCH  30  31
ENDBRANCH   1  30
TORSDOF 6
ENDMDL
MODEL 4
REMARK VINA RESULT:      -8.3      5.297      9.725
REMARK  6 active torsions:
REMARK  status: ('A' for Active; 'I' for Inactive)
REMARK    1  A    between atoms: C2_2  and  C3_3 
REMARK    2  A    between atoms: C3_3  and  C4_4 
REMARK    3  A    between atoms: C5_6  and  C6_7 
REMARK    4  A    between atoms: C7_9  and  C8_10 
REMARK    5  A    between atoms: N4_13  and  C10_14 
REMARK    6  A    between atoms: C18_24  and  N7_25 
ROOT
HETATM    1  C4  UNL     1      23.274  -0.049  52.933  1.00  0.00     0.083 A 
HETATM    2  N1  UNL     1      23.031   1.013  52.160  1.00  0.00    -0.226 NA
HETATM    3  C5  UNL     1      23.986   1.947  52.244  1.00  0.00     0.177 A 
HETATM    4  N8  UNL     1      24.889   1.465  53.113  1.00  0.00    -0.232 N 
HETATM    5  C19 UNL     1      26.086   2.036  53.564  1.00  0.00     0.191 C 
HETATM    6  N9  UNL     1      27.083   2.494  53.946  1.00  0.00    -0.171 NA
HETATM    7  C20 UNL     1      24.490   0.244  53.558  1.00  0.00     0.058 A 
HETATM    8  C21 UNL     1      25.091  -0.578  54.435  1.00  0.00     0.067 C 
ENDROOT
BRANCH   3   9
HETATM    9  C6  UNL     1      24.097   3.235  51.574  1.00  0.00     0.149 A 
HETATM   10  N2  UNL     1      25.173   3.552  50.833  1.00  0.00    -0.239 NA
HETATM   11  C7  UNL     1      25.236   4.771  50.225  1.00  0.00     0.088 A 
HETATM   12  C17 UNL     1      24.247   5.722  50.324  1.00  0.00     0.151 A 
HETATM   13  N6  UNL     1      23.149   5.415  51.073  1.00  0.00    -0.239 NA
HETATM   14  C18 UNL     1      23.122   4.204  51.655  1.00  0.00     0.153 A 
BRANCH  11  15
HETATM   15  C8  UNL     1      26.417   5.081  49.428  1.00  0.00     0.030 A 
HETATM   16  C9  UNL     1      27.457   4.242  49.064  1.00  0.00     0.154 A 
HETATM   17  N3  UNL     1      28.319   4.952  48.334  1.00  0.00    -0.184 NA
HETATM   18  N4  UNL     1      27.934   6.208  48.180  1.00  0.00    -0.276 N 
HETATM   19  C16 UNL     1      26.753   6.291  48.859  1.00  0.00     0.128 A 
BRANCH  18  20
HETATM   20  C10 UNL     1      28.566   7.304  47.468  1.00  0.00     0.113 C 
HETATM   21  C11 UNL     1      29.392   8.177  48.408  1.00  0.00     0.057 C 
HETATM   22  C12 UNL     1      30.052   9.233  47.534  1.00  0.00     0.274 C 
HETATM   23  N5  UNL     1      29.040  10.079  46.957  1.00  0.00     0.084 N 
HETATM   24  C13 UNL     1      29.183  11.406  47.486  1.00  0.00     0.309 C 
HETATM   25  C14 UNL     1      27.695   9.639  47.182  1.00  0.00     0.274 C 
HETATM   26  C15 UNL     1      27.492   8.186  46.880  1.00  0.00     0.057 C 
ENDBRANCH  18  20
ENDBRANCH  11  15
BRANCH  14  27
HETATM   27  N7  UNL     1      21.941   3.987  52.401  1.00  0.00    -0.382 N 
HETATM   28  H20 UNL     1      21.342   3.630  53.147  1.00  0.00     0.157 HD
HETATM   29  H21 UNL     1      21.143   4.492  51.935  1.00  0.00     0.157 HD
ENDBRANCH  14  27
ENDBRANCH   3   9
BRANCH   1  30
HETATM   30  C3  UNL     1      22.599  -1.167  53.136  1.00  0.00     0.033 C 
BRANCH  30  31
HETATM   31  C2  UNL     1      21.412  -1.203  53.979  1.00  0.00    -0.008 C 
HETATM   32  C1  UNL     1      20.942  -0.256  54.773  1.00  0.00     0.011 C 
ENDBRANCH  30  31
ENDBRANCH   1  30
TORSDOF 6
ENDMDL
MODEL 5
REMARK VINA RESULT:      -8.2      4.939      9.819
REMARK  6 active torsions:
REMARK  status: ('A' for Active; 'I' for Inactive)
REMARK    1  A    between atoms: C2_2  and  C3_3 
REMARK    2  A    between atoms: C3_3  and  C4_4 
REMARK    3  A    between atoms: C5_6  and  C6_7 
REMARK    4  A    between atoms: C7_9  and  C8_10 
REMARK    5  A    between atoms: N4_13  and  C10_14 
REMARK    6  A    between atoms: C18_24  and  N7_25 
ROOT
HETATM    1  C4  UNL     1      23.723   0.110  53.383  1.00  0.00     0.083 A 
HETATM    2  N1  UNL     1      23.204   0.876  52.420  1.00  0.00    -0.226 NA
HETATM    3  C5  UNL     1      24.113   1.663  51.833  1.00  0.00     0.177 A 
HETATM    4  N8  UNL     1      25.277   1.393  52.447  1.00  0.00    -0.232 N 
HETATM    5  C19 UNL     1      26.550   1.933  52.226  1.00  0.00     0.191 C 
HETATM    6  N9  UNL     1      27.612   2.369  52.052  1.00  0.00    -0.171 NA
HETATM    7  C20 UNL     1      25.081   0.447  53.404  1.00  0.00     0.058 A 
HETATM    8  C21 UNL     1      25.969  -0.103  54.249  1.00  0.00     0.067 C 
ENDROOT
BRANCH   3   9
HETATM    9  C6  UNL     1      23.959   2.632  50.757  1.00  0.00     0.149 A 
HETATM   10  N2  UNL     1      24.747   3.717  50.669  1.00  0.00    -0.239 NA
HETATM   11  C7  UNL     1      24.565   4.600  49.644  1.00  0.00     0.088 A 
HETATM   12  C17 UNL     1      23.604   4.448  48.673  1.00  0.00     0.151 A 
HETATM   13  N6  UNL     1      22.796   3.351  48.748  1.00  0.00    -0.239 NA
HETATM   14  C18 UNL     1      23.006   2.504  49.771  1.00  0.00     0.153 A 
BRANCH  11  15
HETATM   15  C8  UNL     1      25.438   5.765  49.580  1.00  0.00     0.030 A 
HETATM   16  C9  UNL     1      25.401   6.916  50.350  1.00  0.00     0.154 A 
HETATM   17  N3  UNL     1      26.391   7.713  49.943  1.00  0.00    -0.184 NA
HETATM   18  N4  UNL     1      27.091   7.182  48.955  1.00  0.00    -0.276 N 
HETATM   19  C16 UNL     1      26.501   5.971  48.727  1.00  0.00     0.128 A 
BRANCH  18  20
HETATM   20  C10 UNL     1      28.236   7.702  48.230  1.00  0.00     0.113 C 
HETATM   21  C11 UNL     1      29.331   6.649  48.089  1.00  0.00     0.057 C 
HETATM   22  C12 UNL     1      30.431   7.292  47.257  1.00  0.00     0.274 C 
HETATM   23  N5  UNL     1      31.001   8.396  47.985  1.00  0.00     0.084 N 
HETATM   24  C13 UNL     1      32.365   8.088  48.308  1.00  0.00     0.309 C 
HETATM   25  C14 UNL     1      30.309   8.734  49.193  1.00  0.00     0.274 C 
HETATM   26  C15 UNL     1      28.827   8.849  49.011  1.00  0.00     0.057 C 
ENDBRANCH  18  20
ENDBRANCH  11  15
BRANCH  14  27
HETATM   27  N7  UNL     1      22.121   1.402  49.752  1.00  0.00    -0.382 N 
HETATM   28  H20 UNL     1      21.234   0.898  49.711  1.00  0.00     0.157 HD
HETATM   29  H21 UNL     1      22.679   0.512  49.826  1.00  0.00     0.157 HD
ENDBRANCH  14  27
ENDBRANCH   3   9
BRANCH   1  30
HETATM   30  C3  UNL     1      23.181  -0.787  54.187  1.00  0.00     0.033 C 
BRANCH  30  31
HETATM   31  C2  UNL     1      21.737  -0.912  54.335  1.00  0.00    -0.008 C 
HETATM   32  C1  UNL     1      20.875  -0.001  54.752  1.00  0.00     0.011 C 
ENDBRANCH  30  31
ENDBRANCH   1  30
TORSDOF 6
ENDMDL
MODEL 6
REMARK VINA RESULT:      -8.1      4.660      9.080
REMARK  6 active torsions:
REMARK  status: ('A' for Active; 'I' for Inactive)
REMARK    1  A    between atoms: C2_2  and  C3_3 
REMARK    2  A    between atoms: C3_3  and  C4_4 
REMARK    3  A    between atoms: C5_6  and  C6_7 
REMARK    4  A    between atoms: C7_9  and  C8_10 
REMARK    5  A    between atoms: N4_13  and  C10_14 
REMARK    6  A    between atoms: C18_24  and  N7_25 
ROOT
HETATM    1  C4  UNL     1      26.542   8.103  48.798  1.00  0.00     0.083 A 
HETATM    2  N1  UNL     1      25.455   7.848  49.531  1.00  0.00    -0.226 NA
HETATM    3  C5  UNL     1      25.314   6.549  49.820  1.00  0.00     0.177 A 
HETATM    4  N8  UNL     1      26.360   5.934  49.244  1.00  0.00    -0.232 N 
HETATM    5  C19 UNL     1      26.703   4.576  49.234  1.00  0.00     0.191 C 
HETATM    6  N9  UNL     1      27.001   3.453  49.218  1.00  0.00    -0.171 NA
HETATM    7  C20 UNL     1      27.137   6.851  48.608  1.00  0.00     0.058 A 
HETATM    8  C21 UNL     1      28.268   6.665  47.906  1.00  0.00     0.067 C 
ENDROOT
BRANCH   3   9
HETATM    9  C6  UNL     1      24.280   5.865  50.584  1.00  0.00     0.149 A 
HETATM   10  N2  UNL     1      24.500   4.668  51.152  1.00  0.00    -0.239 NA
HETATM   11  C7  UNL     1      23.501   4.063  51.857  1.00  0.00     0.088 A 
HETATM   12  C17 UNL     1      22.252   4.612  52.028  1.00  0.00     0.151 A 
HETATM   13  N6  UNL     1      22.012   5.828  51.456  1.00  0.00    -0.239 NA
HETATM   14  C18 UNL     1      23.021   6.392  50.771  1.00  0.00     0.153 A 
BRANCH  11  15
HETATM   15  C8  UNL     1      23.775   2.765  52.461  1.00  0.00     0.030 A 
HETATM   16  C9  UNL     1      22.900   1.717  52.690  1.00  0.00     0.154 A 
HETATM   17  N3  UNL     1      23.588   0.726  53.262  1.00  0.00    -0.184 NA
HETATM   18  N4  UNL     1      24.864   1.032  53.433  1.00  0.00    -0.276 N 
HETATM   19  C16 UNL     1      24.983   2.298  52.936  1.00  0.00     0.128 A 
BRANCH  18  20
HETATM   20  C10 UNL     1      25.947   0.255  54.006  1.00  0.00     0.113 C 
HETATM   21  C11 UNL     1      27.212   1.094  54.162  1.00  0.00     0.057 C 
HETATM   22  C12 UNL     1      28.237   0.191  54.833  1.00  0.00     0.274 C 
HETATM   23  N5  UNL     1      28.563  -0.901  53.953  1.00  0.00     0.084 N 
HETATM   24  C13 UNL     1      29.937  -0.784  53.553  1.00  0.00     0.309 C 
HETATM   25  C14 UNL     1      27.749  -0.984  52.778  1.00  0.00     0.274 C 
HETATM   26  C15 UNL     1      26.283  -0.877  53.067  1.00  0.00     0.057 C 
ENDBRANCH  18  20
ENDBRANCH  11  15
BRANCH  14  27
HETATM   27  N7  UNL     1      22.670   7.649  50.226  1.00  0.00    -0.382 N 
HETATM   28  H20 UNL     1      22.220   8.320  49.601  1.00  0.00     0.157 HD
HETATM   29  H21 UNL     1      23.150   8.408  50.775  1.00  0.00     0.157 HD
ENDBRANCH  14  27
ENDBRANCH   3   9
BRANCH   1  30
HETATM   30  C3  UNL     1      27.036   9.227  48.312  1.00  0.00     0.033 C 
BRANCH  30  31
HETATM   31  C2  UNL     1      27.927  10.074  49.094  1.00  0.00    -0.008 C 
HETATM   32  C1  UNL     1      29.206  10.333  48.882  1.00  0.00     0.011 C 
ENDBRANCH  30  31
ENDBRANCH   1  30
TORSDOF 6
ENDMDL
MODEL 7
REMARK VINA RESULT:      -8.0      1.770      2.301
REMARK  6 active torsions:
REMARK  status: ('A' for Active; 'I' for Inactive)
REMARK    1  A    between atoms: C2_2  and  C3_3 
REMARK    2  A    between atoms: C3_3  and  C4_4 
REMARK    3  A    between atoms: C5_6  and  C6_7 
REMARK    4  A    between atoms: C7_9  and  C8_10 
REMARK    5  A    between atoms: N4_13  and  C10_14 
REMARK    6  A    between atoms: C18_24  and  N7_25 
ROOT
HETATM    1  C4  UNL     1      26.578  -0.163  52.846  1.00  0.00     0.083 A 
HETATM    2  N1  UNL     1      25.519  -0.849  53.282  1.00  0.00    -0.226 NA
HETATM    3  C5  UNL     1      24.388  -0.133  53.260  1.00  0.00     0.177 A 
HETATM    4  N8  UNL     1      24.734   1.075  52.787  1.00  0.00    -0.232 N 
HETATM    5  C19 UNL     1      23.939   2.206  52.560  1.00  0.00     0.191 C 
HETATM    6  N9  UNL     1      23.293   3.151  52.363  1.00  0.00    -0.171 NA
HETATM    7  C20 UNL     1      26.067   1.099  52.520  1.00  0.00     0.058 A 
HETATM    8  C21 UNL     1      26.820   2.104  52.043  1.00  0.00     0.067 C 
ENDROOT
BRANCH   3   9
HETATM    9  C6  UNL     1      23.035  -0.506  53.648  1.00  0.00     0.149 A 
HETATM   10  N2  UNL     1      21.970  -0.163  52.904  1.00  0.00    -0.239 NA
HETATM   11  C7  UNL     1      20.720  -0.532  53.308  1.00  0.00     0.088 A 
HETATM   12  C17 UNL     1      20.472  -1.247  54.456  1.00  0.00     0.151 A 
HETATM   13  N6  UNL     1      21.544  -1.602  55.223  1.00  0.00    -0.239 NA
HETATM   14  C18 UNL     1      22.759  -1.222  54.792  1.00  0.00     0.153 A 
BRANCH  11  15
HETATM   15  C8  UNL     1      19.588  -0.144  52.476  1.00  0.00     0.030 A 
HETATM   16  C9  UNL     1      18.348  -0.753  52.366  1.00  0.00     0.154 A 
HETATM   17  N3  UNL     1      17.626  -0.054  51.487  1.00  0.00    -0.184 NA
HETATM   18  N4  UNL     1      18.290   0.981  50.998  1.00  0.00    -0.276 N 
HETATM   19  C16 UNL     1      19.509   0.927  51.611  1.00  0.00     0.128 A 
BRANCH  18  20
HETATM   20  C10 UNL     1      17.884   1.986  50.034  1.00  0.00     0.113 C 
HETATM   21  C11 UNL     1      17.467   3.283  50.722  1.00  0.00     0.057 C 
HETATM   22  C12 UNL     1      17.138   4.265  49.608  1.00  0.00     0.274 C 
HETATM   23  N5  UNL     1      15.994   3.793  48.873  1.00  0.00     0.084 N 
HETATM   24  C13 UNL     1      14.902   4.704  49.072  1.00  0.00     0.309 C 
HETATM   25  C14 UNL     1      15.560   2.475  49.228  1.00  0.00     0.274 C 
HETATM   26  C15 UNL     1      16.678   1.480  49.282  1.00  0.00     0.057 C 
ENDBRANCH  18  20
ENDBRANCH  11  15
BRANCH  14  27
HETATM   27  N7  UNL     1      23.797  -1.644  55.654  1.00  0.00    -0.382 N 
HETATM   28  H20 UNL     1      24.301  -1.793  56.530  1.00  0.00     0.157 HD
HETATM   29  H21 UNL     1      24.554  -2.101  55.083  1.00  0.00     0.157 HD
ENDBRANCH  14  27
ENDBRANCH   3   9
BRANCH   1  30
HETATM   30  C3  UNL     1      27.849  -0.493  52.709  1.00  0.00     0.033 C 
BRANCH  30  31
HETATM   31  C2  UNL     1      28.778  -0.450  53.830  1.00  0.00    -0.008 C 
HETATM   32  C1  UNL     1      28.671   0.235  54.956  1.00  0.00     0.011 C 
ENDBRANCH  30  31
ENDBRANCH   1  30
TORSDOF 6
ENDMDL
MODEL 8
REMARK VINA RESULT:      -8.0      5.351      9.399
REMARK  6 active torsions:
REMARK  status: ('A' for Active; 'I' for Inactive)
REMARK    1  A    between atoms: C2_2  and  C3_3 
REMARK    2  A    between atoms: C3_3  and  C4_4 
REMARK    3  A    between atoms: C5_6  and  C6_7 
REMARK    4  A    between atoms: C7_9  and  C8_10 
REMARK    5  A    between atoms: N4_13  and  C10_14 
REMARK    6  A    between atoms: C18_24  and  N7_25 
ROOT
HETATM    1  C4  UNL     1      29.543   7.090  47.809  1.00  0.00     0.083 A 
HETATM    2  N1  UNL     1      28.506   6.248  47.833  1.00  0.00    -0.226 NA
HETATM    3  C5  UNL     1      27.473   6.714  48.545  1.00  0.00     0.177 A 
HETATM    4  N8  UNL     1      27.861   7.916  49.003  1.00  0.00    -0.232 N 
HETATM    5  C19 UNL     1      27.166   8.835  49.799  1.00  0.00     0.191 C 
HETATM    6  N9  UNL     1      26.602   9.608  50.457  1.00  0.00    -0.171 NA
HETATM    7  C20 UNL     1      29.123   8.184  48.574  1.00  0.00     0.058 A 
HETATM    8  C21 UNL     1      29.888   9.264  48.806  1.00  0.00     0.067 C 
ENDROOT
BRANCH   3   9
HETATM    9  C6  UNL     1      26.175   6.113  48.816  1.00  0.00     0.149 A 
HETATM   10  N2  UNL     1      26.040   5.083  49.668  1.00  0.00    -0.239 NA
HETATM   11  C7  UNL     1      24.804   4.550  49.889  1.00  0.00     0.088 A 
HETATM   12  C17 UNL     1      23.659   5.008  49.282  1.00  0.00     0.151 A 
HETATM   13  N6  UNL     1      23.779   6.054  48.414  1.00  0.00    -0.239 NA
HETATM   14  C18 UNL     1      25.012   6.553  48.222  1.00  0.00     0.153 A 
BRANCH  11  15
HETATM   15  C8  UNL     1      24.695   3.433  50.820  1.00  0.00     0.030 A 
HETATM   16  C9  UNL     1      23.579   2.676  51.134  1.00  0.00     0.154 A 
HETATM   17  N3  UNL     1      23.945   1.760  52.034  1.00  0.00    -0.184 NA
HETATM   18  N4  UNL     1      25.227   1.847  52.347  1.00  0.00    -0.276 N 
HETATM   19  C16 UNL     1      25.696   2.885  51.595  1.00  0.00     0.128 A 
BRANCH  18  20
HETATM   20  C10 UNL     1      26.024   1.057  53.268  1.00  0.00     0.113 C 
HETATM   21  C11 UNL     1      27.439   1.612  53.398  1.00  0.00     0.057 C 
HETATM   22  C12 UNL     1      28.139   0.746  54.434  1.00  0.00     0.274 C 
HETATM   23  N5  UNL     1      28.260  -0.599  53.934  1.00  0.00     0.084 N 
HETATM   24  C13 UNL     1      29.650  -0.901  53.739  1.00  0.00     0.309 C 
HETATM   25  C14 UNL     1      27.562  -0.843  52.707  1.00  0.00     0.274 C 
HETATM   26  C15 UNL     1      26.150  -0.344  52.723  1.00  0.00     0.057 C 
ENDBRANCH  18  20
ENDBRANCH  11  15
BRANCH  14  27
HETATM   27  N7  UNL     1      25.024   7.634  47.311  1.00  0.00    -0.382 N 
HETATM   28  H20 UNL     1      24.654   8.358  46.693  1.00  0.00     0.157 HD
HETATM   29  H21 UNL     1      26.022   7.899  47.105  1.00  0.00     0.157 HD
ENDBRANCH  14  27
ENDBRANCH   3   9
BRANCH   1  30
HETATM   30  C3  UNL     1      30.729   7.015  47.232  1.00  0.00     0.033 C 
BRANCH  30  31
HETATM   31  C2  UNL     1      31.759   6.104  47.712  1.00  0.00    -0.008 C 
HETATM   32  C1  UNL     1      31.934   4.830  47.403  1.00  0.00     0.011 C 
ENDBRANCH  30  31
ENDBRANCH   1  30
TORSDOF 6
ENDMDL
MODEL 9
REMARK VINA RESULT:      -7.8      7.473     10.114
REMARK  6 active torsions:
REMARK  status: ('A' for Active; 'I' for Inactive)
REMARK    1  A    between atoms: C2_2  and  C3_3 
REMARK    2  A    between atoms: C3_3  and  C4_4 
REMARK    3  A    between atoms: C5_6  and  C6_7 
REMARK    4  A    between atoms: C7_9  and  C8_10 
REMARK    5  A    between atoms: N4_13  and  C10_14 
REMARK    6  A    between atoms: C18_24  and  N7_25 
ROOT
HETATM    1  C4  UNL     1      32.770   3.747  47.408  1.00  0.00     0.083 A 
HETATM    2  N1  UNL     1      31.855   4.382  48.146  1.00  0.00    -0.226 NA
HETATM    3  C5  UNL     1      31.472   5.547  47.611  1.00  0.00     0.177 A 
HETATM    4  N8  UNL     1      32.173   5.672  46.473  1.00  0.00    -0.232 N 
HETATM    5  C19 UNL     1      32.160   6.703  45.524  1.00  0.00     0.191 C 
HETATM    6  N9  UNL     1      32.158   7.548  44.728  1.00  0.00    -0.171 NA
HETATM    7  C20 UNL     1      32.981   4.590  46.311  1.00  0.00     0.058 A 
HETATM    8  C21 UNL     1      33.846   4.317  45.320  1.00  0.00     0.067 C 
ENDROOT
BRANCH   3   9
HETATM    9  C6  UNL     1      30.510   6.528  48.094  1.00  0.00     0.149 A 
HETATM   10  N2  UNL     1      29.186   6.337  47.966  1.00  0.00    -0.239 NA
HETATM   11  C7  UNL     1      28.321   7.285  48.431  1.00  0.00     0.088 A 
HETATM   12  C17 UNL     1      28.726   8.452  49.036  1.00  0.00     0.151 A 
HETATM   13  N6  UNL     1      30.067   8.660  49.173  1.00  0.00    -0.239 NA
HETATM   14  C18 UNL     1      30.888   7.704  48.704  1.00  0.00     0.153 A 
BRANCH  11  15
HETATM   15  C8  UNL     1      26.892   7.045  48.276  1.00  0.00     0.030 A 
HETATM   16  C9  UNL     1      25.981   7.731  47.490  1.00  0.00     0.154 A 
HETATM   17  N3  UNL     1      24.785   7.162  47.659  1.00  0.00    -0.184 NA
HETATM   18  N4  UNL     1      24.826   6.143  48.501  1.00  0.00    -0.276 N 
HETATM   19  C16 UNL     1      26.134   6.068  48.886  1.00  0.00     0.128 A 
BRANCH  18  20
HETATM   20  C10 UNL     1      23.769   5.261  48.959  1.00  0.00     0.113 C 
HETATM   21  C11 UNL     1      24.288   3.845  49.195  1.00  0.00     0.057 C 
HETATM   22  C12 UNL     1      23.110   3.048  49.735  1.00  0.00     0.274 C 
HETATM   23  N5  UNL     1      22.088   2.957  48.726  1.00  0.00     0.084 N 
HETATM   24  C13 UNL     1      21.952   1.587  48.320  1.00  0.00     0.309 C 
HETATM   25  C14 UNL     1      22.326   3.758  47.562  1.00  0.00     0.274 C 
HETATM   26  C15 UNL     1      22.713   5.169  47.886  1.00  0.00     0.057 C 
ENDBRANCH  18  20
ENDBRANCH  11  15
BRANCH  14  27
HETATM   27  N7  UNL     1      32.253   8.016  48.900  1.00  0.00    -0.382 N 
HETATM   28  H20 UNL     1      33.267   7.918  48.836  1.00  0.00     0.157 HD
HETATM   29  H21 UNL     1      32.324   8.902  49.466  1.00  0.00     0.157 HD
ENDBRANCH  14  27
ENDBRANCH   3   9
BRANCH   1  30
HETATM   30  C3  UNL     1      33.396   2.596  47.574  1.00  0.00     0.033 C 
BRANCH  30  31
HETATM   31  C2  UNL     1      32.670   1.338  47.686  1.00  0.00    -0.008 C 
HETATM   32  C1  UNL     1      32.081   0.645  46.726  1.00  0.00     0.011 C 
ENDBRANCH  30  31
ENDBRANCH   1  30
TORSDOF 6
ENDMDL
