MODEL 1
REMARK VINA RESULT:      -9.0      0.000      0.000
REMARK  2 active torsions:
REMARK  status: ('A' for Active; 'I' for Inactive)
REMARK       I    between atoms: C2_2  and  N1_4 
REMARK    1  A    between atoms: N2_7  and  C5_8 
REMARK    2  A    between atoms: C11_16  and  C12_17 
REMARK       I    between atoms: C12_17  and  N5_18 
ROOT
HETATM    1  C5  UNL     1      22.333   1.026  51.501  1.00  0.00     0.725 A 
HETATM    2  N3  UNL     1      21.961   0.064  52.386  1.00  0.00    -0.075 NA
HETATM    3  C6  UNL     1      22.842  -0.421  53.281  1.00  0.00     0.146 A 
HETATM    4  C7  UNL     1      24.143   0.034  53.335  1.00  0.00    -0.008 A 
HETATM    5  C8  UNL     1      24.499   0.996  52.443  1.00  0.00     0.112 A 
HETATM    6  N4  UNL     1      23.609   1.451  51.577  1.00  0.00    -0.060 NA
HETATM    7  C9  UNL     1      25.866   1.490  52.482  1.00  0.00     0.091 A 
HETATM    8  C10 UNL     1      26.723   0.963  53.413  1.00  0.00     0.009 A 
HETATM    9  C11 UNL     1      27.912   1.613  53.209  1.00  0.00     0.153 A 
HETATM   10  N6  UNL     1      27.721   2.489  52.181  1.00  0.00    -0.166 NA
HETATM   11  N7  UNL     1      26.495   2.419  51.741  1.00  0.00    -0.271 N 
HETATM   12  C13 UNL     1      25.861   3.164  50.668  1.00  0.00     0.180 C 
HETATM   13  C14 UNL     1      26.405  -0.072  54.399  1.00  0.00     0.048 A 
HETATM   14  C15 UNL     1      25.007  -0.571  54.352  1.00  0.00     0.047 A 
ENDROOT
BRANCH   1  15
HETATM   15  N2  UNL     1      21.501   1.618  50.511  1.00  0.00    -0.211 N 
HETATM   16  C4  UNL     1      21.189   0.931  49.249  1.00  0.00     0.161 C 
HETATM   17  C3  UNL     1      22.023   1.694  48.211  1.00  0.00     0.146 C 
HETATM   18  N1  UNL     1      21.600   3.075  48.339  1.00  0.00    -0.349 N 
HETATM   19  C2  UNL     1      21.838   3.821  47.151  1.00  0.00     0.215 C 
HETATM   20  C17 UNL     1      21.003   3.770  49.443  1.00  0.00     0.146 C 
HETATM   21  C1  UNL     1      21.665   5.182  46.621  1.00  0.00     0.117 C 
HETATM   22  O1  UNL     1      22.367   2.996  46.329  1.00  0.00    -0.274 OA
HETATM   23  C16 UNL     1      20.913   2.934  50.693  1.00  0.00     0.161 C 
ENDBRANCH   1  15
BRANCH   9  24
HETATM   24  C12 UNL     1      29.162   1.425  53.937  1.00  0.00     0.270 C 
HETATM   25  N5  UNL     1      30.080   0.420  53.528  1.00  0.00    -0.365 N 
HETATM   26  H9  UNL     1      30.412  -0.552  53.736  1.00  0.00     0.159 HD
HETATM   27  H10 UNL     1      30.636   0.797  52.706  1.00  0.00     0.159 HD
HETATM   28  O2  UNL     1      29.399   2.167  54.923  1.00  0.00    -0.266 OA
ENDBRANCH   9  24
TORSDOF 2
ENDMDL
MODEL 2
REMARK VINA RESULT:      -8.9      2.221      2.872
REMARK  2 active torsions:
REMARK  status: ('A' for Active; 'I' for Inactive)
REMARK       I    between atoms: C2_2  and  N1_4 
REMARK    1  A    between atoms: N2_7  and  C5_8 
REMARK    2  A    between atoms: C11_16  and  C12_17 
REMARK       I    between atoms: C12_17  and  N5_18 
ROOT
HETATM    1  C5  UNL     1      22.198   0.834  52.132  1.00  0.00     0.725 A 
HETATM    2  N3  UNL     1      21.947  -0.158  53.026  1.00  0.00    -0.075 NA
HETATM    3  C6  UNL     1      22.927  -0.626  53.821  1.00  0.00     0.146 A 
HETATM    4  C7  UNL     1      24.210  -0.124  53.761  1.00  0.00    -0.008 A 
HETATM    5  C8  UNL     1      24.443   0.868  52.861  1.00  0.00     0.112 A 
HETATM    6  N4  UNL     1      23.459   1.306  52.094  1.00  0.00    -0.060 NA
HETATM    7  C9  UNL     1      25.789   1.413  52.780  1.00  0.00     0.091 A 
HETATM    8  C10 UNL     1      26.751   0.901  53.612  1.00  0.00     0.009 A 
HETATM    9  C11 UNL     1      27.890   1.599  53.310  1.00  0.00     0.153 A 
HETATM   10  N6  UNL     1      27.570   2.486  52.326  1.00  0.00    -0.166 NA
HETATM   11  N7  UNL     1      26.310   2.379  52.004  1.00  0.00    -0.271 N 
HETATM   12  C13 UNL     1      25.550   3.120  51.014  1.00  0.00     0.180 C 
HETATM   13  C14 UNL     1      26.566  -0.164  54.601  1.00  0.00     0.048 A 
HETATM   14  C15 UNL     1      25.190  -0.714  54.676  1.00  0.00     0.047 A 
ENDROOT
BRANCH   1  15
HETATM   15  N2  UNL     1      21.253   1.413  51.239  1.00  0.00    -0.211 N 
HETATM   16  C4  UNL     1      21.090   2.870  51.120  1.00  0.00     0.161 C 
HETATM   17  C3  UNL     1      19.755   3.139  51.828  1.00  0.00     0.146 C 
HETATM   18  N1  UNL     1      18.794   2.303  51.137  1.00  0.00    -0.349 N 
HETATM   19  C2  UNL     1      17.464   2.793  51.271  1.00  0.00     0.215 C 
HETATM   20  C17 UNL     1      18.979   1.105  50.371  1.00  0.00     0.146 C 
HETATM   21  C1  UNL     1      16.093   2.461  50.854  1.00  0.00     0.117 C 
HETATM   22  O1  UNL     1      17.559   3.850  51.984  1.00  0.00    -0.274 OA
HETATM   23  C16 UNL     1      20.397   0.596  50.397  1.00  0.00     0.161 C 
ENDBRANCH   1  15
BRANCH   9  24
HETATM   24  C12 UNL     1      29.210   1.445  53.911  1.00  0.00     0.270 C 
HETATM   25  N5  UNL     1      30.092   0.433  53.442  1.00  0.00    -0.365 N 
HETATM   26  H9  UNL     1      30.455  -0.528  53.645  1.00  0.00     0.159 HD
HETATM   27  H10 UNL     1      30.557   0.787  52.555  1.00  0.00     0.159 HD
HETATM   28  O2  UNL     1      29.540   2.221  54.843  1.00  0.00    -0.266 OA
ENDBRANCH   9  24
TORSDOF 2
ENDMDL
MODEL 3
REMARK VINA RESULT:      -8.5      3.555      5.754
REMARK  2 active torsions:
REMARK  status: ('A' for Active; 'I' for Inactive)
REMARK       I    between atoms: C2_2  and  N1_4 
REMARK    1  A    between atoms: N2_7  and  C5_8 
REMARK    2  A    between atoms: C11_16  and  C12_17 
REMARK       I    between atoms: C12_17  and  N5_18 
ROOT
HETATM    1  C5  UNL     1      25.318   3.707  50.792  1.00  0.00     0.725 A 
HETATM    2  N3  UNL     1      26.477   3.004  50.881  1.00  0.00    -0.075 NA
HETATM    3  C6  UNL     1      26.513   1.823  51.526  1.00  0.00     0.146 A 
HETATM    4  C7  UNL     1      25.388   1.285  52.115  1.00  0.00    -0.008 A 
HETATM    5  C8  UNL     1      24.237   2.002  52.017  1.00  0.00     0.112 A 
HETATM    6  N4  UNL     1      24.235   3.158  51.376  1.00  0.00    -0.060 NA
HETATM    7  C9  UNL     1      23.038   1.453  52.631  1.00  0.00     0.091 A 
HETATM    8  C10 UNL     1      23.129   0.247  53.275  1.00  0.00     0.009 A 
HETATM    9  C11 UNL     1      21.865  -0.003  53.741  1.00  0.00     0.153 A 
HETATM   10  N6  UNL     1      21.081   1.047  53.363  1.00  0.00    -0.166 NA
HETATM   11  N7  UNL     1      21.780   1.924  52.696  1.00  0.00    -0.271 N 
HETATM   12  C13 UNL     1      21.355   3.182  52.110  1.00  0.00     0.180 C 
HETATM   13  C14 UNL     1      24.334  -0.573  53.417  1.00  0.00     0.048 A 
HETATM   14  C15 UNL     1      25.553  -0.006  52.788  1.00  0.00     0.047 A 
ENDROOT
BRANCH   1  15
HETATM   15  N2  UNL     1      25.149   4.961  50.141  1.00  0.00    -0.211 N 
HETATM   16  C4  UNL     1      25.531   5.163  48.736  1.00  0.00     0.161 C 
HETATM   17  C3  UNL     1      26.807   6.010  48.831  1.00  0.00     0.146 C 
HETATM   18  N1  UNL     1      26.417   7.183  49.590  1.00  0.00    -0.349 N 
HETATM   19  C2  UNL     1      27.266   8.295  49.330  1.00  0.00     0.215 C 
HETATM   20  C17 UNL     1      25.347   7.376  50.524  1.00  0.00     0.146 C 
HETATM   21  C1  UNL     1      27.435   9.701  49.729  1.00  0.00     0.117 C 
HETATM   22  O1  UNL     1      28.127   7.879  48.480  1.00  0.00    -0.274 OA
HETATM   23  C16 UNL     1      24.589   6.110  50.831  1.00  0.00     0.161 C 
ENDBRANCH   1  15
BRANCH   9  24
HETATM   24  C12 UNL     1      21.413  -1.163  54.501  1.00  0.00     0.270 C 
HETATM   25  N5  UNL     1      20.123  -1.711  54.264  1.00  0.00    -0.365 N 
HETATM   26  H9  UNL     1      19.140  -1.737  54.626  1.00  0.00     0.159 HD
HETATM   27  H10 UNL     1      20.178  -2.321  53.398  1.00  0.00     0.159 HD
HETATM   28  O2  UNL     1      22.187  -1.657  55.358  1.00  0.00    -0.266 OA
ENDBRANCH   9  24
TORSDOF 2
ENDMDL
MODEL 4
REMARK VINA RESULT:      -8.5      3.304      4.741
REMARK  2 active torsions:
REMARK  status: ('A' for Active; 'I' for Inactive)
REMARK       I    between atoms: C2_2  and  N1_4 
REMARK    1  A    between atoms: N2_7  and  C5_8 
REMARK    2  A    between atoms: C11_16  and  C12_17 
REMARK       I    between atoms: C12_17  and  N5_18 
ROOT
HETATM    1  C5  UNL     1      21.947   1.623  52.279  1.00  0.00     0.725 A 
HETATM    2  N3  UNL     1      22.287   2.427  51.237  1.00  0.00    -0.075 NA
HETATM    3  C6  UNL     1      23.571   2.540  50.851  1.00  0.00     0.146 A 
HETATM    4  C7  UNL     1      24.582   1.852  51.488  1.00  0.00    -0.008 A 
HETATM    5  C8  UNL     1      24.225   1.052  52.527  1.00  0.00     0.112 A 
HETATM    6  N4  UNL     1      22.954   0.963  52.883  1.00  0.00    -0.060 NA
HETATM    7  C9  UNL     1      25.275   0.317  53.215  1.00  0.00     0.091 A 
HETATM    8  C10 UNL     1      26.567   0.467  52.781  1.00  0.00     0.009 A 
HETATM    9  C11 UNL     1      27.313  -0.334  53.605  1.00  0.00     0.153 A 
HETATM   10  N6  UNL     1      26.452  -0.920  54.485  1.00  0.00    -0.166 NA
HETATM   11  N7  UNL     1      25.228  -0.534  54.255  1.00  0.00    -0.271 N 
HETATM   12  C13 UNL     1      24.004  -0.904  54.943  1.00  0.00     0.180 C 
HETATM   13  C14 UNL     1      27.018   1.309  51.671  1.00  0.00     0.048 A 
HETATM   14  C15 UNL     1      25.940   2.056  50.975  1.00  0.00     0.047 A 
ENDROOT
BRANCH   1  15
HETATM   15  N2  UNL     1      20.632   1.419  52.783  1.00  0.00    -0.211 N 
HETATM   16  C4  UNL     1      20.391   0.772  54.081  1.00  0.00     0.161 C 
HETATM   17  C3  UNL     1      19.862  -0.616  53.697  1.00  0.00     0.146 C 
HETATM   18  N1  UNL     1      18.708  -0.353  52.859  1.00  0.00    -0.349 N 
HETATM   19  C2  UNL     1      17.793  -1.443  52.851  1.00  0.00     0.215 C 
HETATM   20  C17 UNL     1      18.368   0.797  52.072  1.00  0.00     0.146 C 
HETATM   21  C1  UNL     1      16.503  -1.827  52.257  1.00  0.00     0.117 C 
HETATM   22  O1  UNL     1      18.310  -2.330  53.613  1.00  0.00    -0.274 OA
HETATM   23  C16 UNL     1      19.456   1.839  52.041  1.00  0.00     0.161 C 
ENDBRANCH   1  15
BRANCH   9  24
HETATM   24  C12 UNL     1      28.757  -0.539  53.572  1.00  0.00     0.270 C 
HETATM   25  N5  UNL     1      29.637   0.574  53.672  1.00  0.00    -0.365 N 
HETATM   26  H9  UNL     1      30.236   1.227  53.114  1.00  0.00     0.159 HD
HETATM   27  H10 UNL     1      29.715   0.839  54.697  1.00  0.00     0.159 HD
HETATM   28  O2  UNL     1      29.194  -1.711  53.454  1.00  0.00    -0.266 OA
ENDBRANCH   9  24
TORSDOF 2
ENDMDL
MODEL 5
REMARK VINA RESULT:      -8.3      3.292      5.039
REMARK  2 active torsions:
REMARK  status: ('A' for Active; 'I' for Inactive)
REMARK       I    between atoms: C2_2  and  N1_4 
REMARK    1  A    between atoms: N2_7  and  C5_8 
REMARK    2  A    between atoms: C11_16  and  C12_17 
REMARK       I    between atoms: C12_17  and  N5_18 
ROOT
HETATM    1  C5  UNL     1      25.522   3.284  50.400  1.00  0.00     0.725 A 
HETATM    2  N3  UNL     1      26.791   2.870  50.653  1.00  0.00    -0.075 NA
HETATM    3  C6  UNL     1      27.024   1.878  51.534  1.00  0.00     0.146 A 
HETATM    4  C7  UNL     1      25.996   1.251  52.206  1.00  0.00    -0.008 A 
HETATM    5  C8  UNL     1      24.733   1.678  51.940  1.00  0.00     0.112 A 
HETATM    6  N4  UNL     1      24.538   2.654  51.070  1.00  0.00    -0.060 NA
HETATM    7  C9  UNL     1      23.633   1.030  52.638  1.00  0.00     0.091 A 
HETATM    8  C10 UNL     1      23.925   0.026  53.524  1.00  0.00     0.009 A 
HETATM    9  C11 UNL     1      22.711  -0.380  54.012  1.00  0.00     0.153 A 
HETATM   10  N6  UNL     1      21.757   0.385  53.409  1.00  0.00    -0.166 NA
HETATM   11  N7  UNL     1      22.305   1.233  52.582  1.00  0.00    -0.271 N 
HETATM   12  C13 UNL     1      21.673   2.230  51.737  1.00  0.00     0.180 C 
HETATM   13  C14 UNL     1      25.259  -0.480  53.854  1.00  0.00     0.048 A 
HETATM   14  C15 UNL     1      26.375   0.186  53.138  1.00  0.00     0.047 A 
ENDROOT
BRANCH   1  15
HETATM   15  N2  UNL     1      25.145   4.317  49.496  1.00  0.00    -0.211 N 
HETATM   16  C4  UNL     1      26.077   5.387  49.110  1.00  0.00     0.161 C 
HETATM   17  C3  UNL     1      25.545   6.614  49.864  1.00  0.00     0.146 C 
HETATM   18  N1  UNL     1      24.166   6.743  49.434  1.00  0.00    -0.349 N 
HETATM   19  C2  UNL     1      23.681   8.073  49.584  1.00  0.00     0.215 C 
HETATM   20  C17 UNL     1      23.258   5.769  48.903  1.00  0.00     0.146 C 
HETATM   21  C1  UNL     1      22.458   8.859  49.359  1.00  0.00     0.117 C 
HETATM   22  O1  UNL     1      24.659   8.742  50.067  1.00  0.00    -0.274 OA
HETATM   23  C16 UNL     1      23.819   4.370  48.906  1.00  0.00     0.161 C 
ENDBRANCH   1  15
BRANCH   9  24
HETATM   24  C12 UNL     1      22.455  -1.429  54.992  1.00  0.00     0.270 C 
HETATM   25  N5  UNL     1      23.402  -1.689  56.021  1.00  0.00    -0.365 N 
HETATM   26  H9  UNL     1      24.183  -2.327  56.305  1.00  0.00     0.159 HD
HETATM   27  H10 UNL     1      23.264  -0.965  56.785  1.00  0.00     0.159 HD
HETATM   28  O2  UNL     1      21.389  -2.088  54.902  1.00  0.00    -0.266 OA
ENDBRANCH   9  24
TORSDOF 2
ENDMDL
MODEL 6
REMARK VINA RESULT:      -7.9      2.730      3.240
REMARK  2 active torsions:
REMARK  status: ('A' for Active; 'I' for Inactive)
REMARK       I    between atoms: C2_2  and  N1_4 
REMARK    1  A    between atoms: N2_7  and  C5_8 
REMARK    2  A    between atoms: C11_16  and  C12_17 
REMARK       I    between atoms: C12_17  and  N5_18 
ROOT
HETATM    1  C5  UNL     1      22.178   3.701  51.114  1.00  0.00     0.725 A 
HETATM    2  N3  UNL     1      21.175   3.071  51.779  1.00  0.00    -0.075 NA
HETATM    3  C6  UNL     1      21.422   1.956  52.494  1.00  0.00     0.146 A 
HETATM    4  C7  UNL     1      22.688   1.418  52.579  1.00  0.00    -0.008 A 
HETATM    5  C8  UNL     1      23.680   2.061  51.907  1.00  0.00     0.112 A 
HETATM    6  N4  UNL     1      23.404   3.153  51.214  1.00  0.00    -0.060 NA
HETATM    7  C9  UNL     1      25.024   1.510  51.983  1.00  0.00     0.091 A 
HETATM    8  C10 UNL     1      25.222   0.374  52.724  1.00  0.00     0.009 A 
HETATM    9  C11 UNL     1      26.560   0.103  52.607  1.00  0.00     0.153 A 
HETATM   10  N6  UNL     1      27.100   1.072  51.814  1.00  0.00    -0.166 NA
HETATM   11  N7  UNL     1      26.183   1.919  51.436  1.00  0.00    -0.271 N 
HETATM   12  C13 UNL     1      26.310   3.094  50.594  1.00  0.00     0.180 C 
HETATM   13  C14 UNL     1      24.201  -0.366  53.469  1.00  0.00     0.048 A 
HETATM   14  C15 UNL     1      22.832   0.203  53.386  1.00  0.00     0.047 A 
ENDROOT
BRANCH   1  15
HETATM   15  N2  UNL     1      22.047   4.880  50.328  1.00  0.00    -0.211 N 
HETATM   16  C4  UNL     1      22.177   4.854  48.864  1.00  0.00     0.161 C 
HETATM   17  C3  UNL     1      23.544   5.506  48.615  1.00  0.00     0.146 C 
HETATM   18  N1  UNL     1      23.456   6.805  49.252  1.00  0.00    -0.349 N 
HETATM   19  C2  UNL     1      24.372   7.739  48.693  1.00  0.00     0.215 C 
HETATM   20  C17 UNL     1      22.616   7.267  50.319  1.00  0.00     0.146 C 
HETATM   21  C1  UNL     1      24.789   9.141  48.850  1.00  0.00     0.117 C 
HETATM   22  O1  UNL     1      24.996   7.101  47.777  1.00  0.00    -0.274 OA
HETATM   23  C16 UNL     1      21.777   6.174  50.930  1.00  0.00     0.161 C 
ENDBRANCH   1  15
BRANCH   9  24
HETATM   24  C12 UNL     1      27.296  -1.004  53.207  1.00  0.00     0.270 C 
HETATM   25  N5  UNL     1      28.270  -0.752  54.211  1.00  0.00    -0.365 N 
HETATM   26  H9  UNL     1      29.300  -0.653  54.379  1.00  0.00     0.159 HD
HETATM   27  H10 UNL     1      27.764  -0.612  55.133  1.00  0.00     0.159 HD
HETATM   28  O2  UNL     1      27.047  -2.172  52.814  1.00  0.00    -0.266 OA
ENDBRANCH   9  24
TORSDOF 2
ENDMDL
MODEL 7
REMARK VINA RESULT:      -7.8      3.590      6.038
REMARK  2 active torsions:
REMARK  status: ('A' for Active; 'I' for Inactive)
REMARK       I    between atoms: C2_2  and  N1_4 
REMARK    1  A    between atoms: N2_7  and  C5_8 
REMARK    2  A    between atoms: C11_16  and  C12_17 
REMARK       I    between atoms: C12_17  and  N5_18 
ROOT
HETATM    1  C5  UNL     1      24.589   3.902  49.631  1.00  0.00     0.725 A 
HETATM    2  N3  UNL     1      23.713   3.780  48.600  1.00  0.00    -0.075 NA
HETATM    3  C6  UNL     1      22.697   2.898  48.667  1.00  0.00     0.146 A 
HETATM    4  C7  UNL     1      22.508   2.094  49.771  1.00  0.00    -0.008 A 
HETATM    5  C8  UNL     1      23.394   2.230  50.793  1.00  0.00     0.112 A 
HETATM    6  N4  UNL     1      24.381   3.105  50.697  1.00  0.00    -0.060 NA
HETATM    7  C9  UNL     1      23.213   1.393  51.968  1.00  0.00     0.091 A 
HETATM    8  C10 UNL     1      22.163   0.511  51.986  1.00  0.00     0.009 A 
HETATM    9  C11 UNL     1      22.252  -0.123  53.197  1.00  0.00     0.153 A 
HETATM   10  N6  UNL     1      23.334   0.395  53.844  1.00  0.00    -0.166 NA
HETATM   11  N7  UNL     1      23.915   1.305  53.112  1.00  0.00    -0.271 N 
HETATM   12  C13 UNL     1      25.089   2.107  53.404  1.00  0.00     0.180 C 
HETATM   13  C14 UNL     1      21.176   0.316  50.921  1.00  0.00     0.048 A 
HETATM   14  C15 UNL     1      21.368   1.175  49.726  1.00  0.00     0.047 A 
ENDROOT
BRANCH   1  15
HETATM   15  N2  UNL     1      25.698   4.792  49.683  1.00  0.00    -0.211 N 
HETATM   16  C4  UNL     1      25.546   6.199  50.083  1.00  0.00     0.161 C 
HETATM   17  C3  UNL     1      25.702   6.965  48.762  1.00  0.00     0.146 C 
HETATM   18  N1  UNL     1      26.993   6.555  48.246  1.00  0.00    -0.349 N 
HETATM   19  C2  UNL     1      27.543   7.518  47.355  1.00  0.00     0.215 C 
HETATM   20  C17 UNL     1      27.764   5.372  48.493  1.00  0.00     0.146 C 
HETATM   21  C1  UNL     1      28.740   7.733  46.526  1.00  0.00     0.117 C 
HETATM   22  O1  UNL     1      26.684   8.464  47.299  1.00  0.00    -0.274 OA
HETATM   23  C16 UNL     1      27.042   4.358  49.343  1.00  0.00     0.161 C 
ENDBRANCH   1  15
BRANCH   9  24
HETATM   24  C12 UNL     1      21.371  -1.161  53.721  1.00  0.00     0.270 C 
HETATM   25  N5  UNL     1      19.989  -0.890  53.915  1.00  0.00    -0.365 N 
HETATM   26  H9  UNL     1      19.274  -0.639  54.638  1.00  0.00     0.159 HD
HETATM   27  H10 UNL     1      19.502  -0.975  52.976  1.00  0.00     0.159 HD
HETATM   28  O2  UNL     1      21.863  -2.285  53.992  1.00  0.00    -0.266 OA
ENDBRANCH   9  24
TORSDOF 2
ENDMDL
MODEL 8
REMARK VINA RESULT:      -7.7      3.520      6.379
REMARK  2 active torsions:
REMARK  status: ('A' for Active; 'I' for Inactive)
REMARK       I    between atoms: C2_2  and  N1_4 
REMARK    1  A    between atoms: N2_7  and  C5_8 
REMARK    2  A    between atoms: C11_16  and  C12_17 
REMARK       I    between atoms: C12_17  and  N5_18 
ROOT
HETATM    1  C5  UNL     1      23.727   2.124  51.008  1.00  0.00     0.725 A 
HETATM    2  N3  UNL     1      24.468   1.783  52.095  1.00  0.00    -0.075 NA
HETATM    3  C6  UNL     1      23.932   1.045  53.085  1.00  0.00     0.146 A 
HETATM    4  C7  UNL     1      22.625   0.610  53.036  1.00  0.00    -0.008 A 
HETATM    5  C8  UNL     1      21.898   0.959  51.942  1.00  0.00     0.112 A 
HETATM    6  N4  UNL     1      22.454   1.685  50.987  1.00  0.00    -0.060 NA
HETATM    7  C9  UNL     1      20.516   0.511  51.870  1.00  0.00     0.091 A 
HETATM    8  C10 UNL     1      20.019  -0.239  52.904  1.00  0.00     0.009 A 
HETATM    9  C11 UNL     1      18.721  -0.506  52.557  1.00  0.00     0.153 A 
HETATM   10  N6  UNL     1      18.497   0.085  51.349  1.00  0.00    -0.166 NA
HETATM   11  N7  UNL     1      19.571   0.696  50.931  1.00  0.00    -0.271 N 
HETATM   12  C13 UNL     1      19.782   1.449  49.708  1.00  0.00     0.180 C 
HETATM   13  C14 UNL     1      20.746  -0.649  54.108  1.00  0.00     0.048 A 
HETATM   14  C15 UNL     1      22.155  -0.187  54.173  1.00  0.00     0.047 A 
ENDROOT
BRANCH   1  15
HETATM   15  N2  UNL     1      24.175   2.896  49.900  1.00  0.00    -0.211 N 
HETATM   16  C4  UNL     1      25.597   3.215  49.702  1.00  0.00     0.161 C 
HETATM   17  C3  UNL     1      25.683   4.704  50.065  1.00  0.00     0.146 C 
HETATM   18  N1  UNL     1      24.726   5.354  49.192  1.00  0.00    -0.349 N 
HETATM   19  C2  UNL     1      25.032   6.730  48.993  1.00  0.00     0.215 C 
HETATM   20  C17 UNL     1      23.565   4.837  48.528  1.00  0.00     0.146 C 
HETATM   21  C1  UNL     1      24.518   7.906  48.274  1.00  0.00     0.117 C 
HETATM   22  O1  UNL     1      26.091   6.948  49.675  1.00  0.00    -0.274 OA
HETATM   23  C16 UNL     1      23.251   3.412  48.905  1.00  0.00     0.161 C 
ENDBRANCH   1  15
BRANCH   9  24
HETATM   24  C12 UNL     1      17.740  -1.274  53.316  1.00  0.00     0.270 C 
HETATM   25  N5  UNL     1      18.094  -2.538  53.863  1.00  0.00    -0.365 N 
HETATM   26  H9  UNL     1      18.021  -3.572  53.711  1.00  0.00     0.159 HD
HETATM   27  H10 UNL     1      18.631  -2.368  54.763  1.00  0.00     0.159 HD
HETATM   28  O2  UNL     1      16.589  -0.792  53.470  1.00  0.00    -0.266 OA
ENDBRANCH   9  24
TORSDOF 2
ENDMDL
MODEL 9
REMARK VINA RESULT:      -7.6      4.123      5.823
REMARK  2 active torsions:
REMARK  status: ('A' for Active; 'I' for Inactive)
REMARK       I    between atoms: C2_2  and  N1_4 
REMARK    1  A    between atoms: N2_7  and  C5_8 
REMARK    2  A    between atoms: C11_16  and  C12_17 
REMARK       I    between atoms: C12_17  and  N5_18 
ROOT
HETATM    1  C5  UNL     1      19.548   3.296  51.453  1.00  0.00     0.725 A 
HETATM    2  N3  UNL     1      20.259   4.447  51.332  1.00  0.00    -0.075 NA
HETATM    3  C6  UNL     1      21.558   4.489  51.685  1.00  0.00     0.146 A 
HETATM    4  C7  UNL     1      22.211   3.379  52.176  1.00  0.00    -0.008 A 
HETATM    5  C8  UNL     1      21.484   2.235  52.291  1.00  0.00     0.112 A 
HETATM    6  N4  UNL     1      20.210   2.227  51.936  1.00  0.00    -0.060 NA
HETATM    7  C9  UNL     1      22.152   1.051  52.807  1.00  0.00     0.091 A 
HETATM    8  C10 UNL     1      23.476   1.148  53.152  1.00  0.00     0.009 A 
HETATM    9  C11 UNL     1      23.819  -0.102  53.595  1.00  0.00     0.153 A 
HETATM   10  N6  UNL     1      22.706  -0.884  53.501  1.00  0.00    -0.166 NA
HETATM   11  N7  UNL     1      21.702  -0.197  53.028  1.00  0.00    -0.271 N 
HETATM   12  C13 UNL     1      20.340  -0.624  52.766  1.00  0.00     0.180 C 
HETATM   13  C14 UNL     1      24.314   2.345  53.053  1.00  0.00     0.048 A 
HETATM   14  C15 UNL     1      23.624   3.548  52.525  1.00  0.00     0.047 A 
ENDROOT
BRANCH   1  15
HETATM   15  N2  UNL     1      18.176   3.122  51.117  1.00  0.00    -0.211 N 
HETATM   16  C4  UNL     1      17.296   4.266  50.836  1.00  0.00     0.161 C 
HETATM   17  C3  UNL     1      16.407   4.349  52.084  1.00  0.00     0.146 C 
HETATM   18  N1  UNL     1      15.788   3.042  52.185  1.00  0.00    -0.349 N 
HETATM   19  C2  UNL     1      14.569   3.083  52.917  1.00  0.00     0.215 C 
HETATM   20  C17 UNL     1      16.208   1.768  51.678  1.00  0.00     0.146 C 
HETATM   21  C1  UNL     1      13.496   2.184  53.371  1.00  0.00     0.117 C 
HETATM   22  O1  UNL     1      14.413   4.306  53.258  1.00  0.00    -0.274 OA
HETATM   23  C16 UNL     1      17.571   1.805  51.035  1.00  0.00     0.161 C 
ENDBRANCH   1  15
BRANCH   9  24
HETATM   24  C12 UNL     1      25.121  -0.544  54.083  1.00  0.00     0.270 C 
HETATM   25  N5  UNL     1      25.302  -0.841  55.461  1.00  0.00    -0.365 N 
HETATM   26  H9  UNL     1      25.670  -0.457  56.364  1.00  0.00     0.159 HD
HETATM   27  H10 UNL     1      24.924  -1.817  55.639  1.00  0.00     0.159 HD
HETATM   28  O2  UNL     1      26.065  -0.651  53.260  1.00  0.00    -0.266 OA
ENDBRANCH   9  24
TORSDOF 2
ENDMDL
