MODEL 1
REMARK VINA RESULT:      -8.7      0.000      0.000
REMARK  3 active torsions:
REMARK  status: ('A' for Active; 'I' for Inactive)
REMARK    1  A    between atoms: C4_5  and  C5_6 
REMARK    2  A    between atoms: C5_6  and  N2_7 
REMARK    3  A    between atoms: C10_13  and  N4_14 
ROOT
HETATM    1  C5  UNL     1      28.580   8.105  48.474  1.00  0.00     0.218 C 
HETATM    2  C6  UNL     1      29.448   6.907  48.582  1.00  0.00     0.168 C 
HETATM    3  N3  UNL     1      30.862   6.942  48.434  1.00  0.00    -0.373 N 
HETATM    4  C7  UNL     1      31.347   8.175  48.992  1.00  0.00     0.099 C 
HETATM    5  C8  UNL     1      32.420   8.474  48.162  1.00  0.00     0.002 C 
HETATM    6  C9  UNL     1      33.138   7.251  48.250  1.00  0.00     0.028 A 
HETATM    7  C10 UNL     1      34.296   6.707  48.457  1.00  0.00     0.130 A 
HETATM    8  N5  UNL     1      33.933   5.309  48.434  1.00  0.00    -0.245 NA
HETATM    9  C11 UNL     1      32.683   5.096  48.190  1.00  0.00     0.122 A 
HETATM   10  C12 UNL     1      31.974   6.277  47.957  1.00  0.00     0.162 A 
HETATM   11  C13 UNL     1      32.626   9.720  47.442  1.00  0.00    -0.021 A 
HETATM   12  C14 UNL     1      33.801  10.080  46.875  1.00  0.00     0.012 A 
HETATM   13  C15 UNL     1      33.441  11.186  46.122  1.00  0.00     0.004 A 
HETATM   14  C16 UNL     1      32.169  11.726  46.025  1.00  0.00     0.037 A 
HETATM   15  C17 UNL     1      30.978  11.378  46.585  1.00  0.00     0.069 A 
HETATM   16  C18 UNL     1      31.395  10.294  47.316  1.00  0.00     0.049 A 
HETATM   17  O1  UNL     1      29.729  11.293  46.955  1.00  0.00    -0.350 OA
HETATM   18  C19 UNL     1      28.889  10.501  47.664  1.00  0.00     0.195 C 
HETATM   19  C20 UNL     1      28.562   9.059  47.346  1.00  0.00     0.081 C 
HETATM   20  C21 UNL     1      27.125   9.180  46.731  1.00  0.00     0.022 C 
HETATM   21  C22 UNL     1      26.928   8.290  45.531  1.00  0.00     0.002 C 
HETATM   22  C23 UNL     1      27.541   8.969  44.353  1.00  0.00     0.007 C 
HETATM   23  C24 UNL     1      28.818   9.564  44.926  1.00  0.00     0.079 C 
HETATM   24  C25 UNL     1      29.291   8.708  46.093  1.00  0.00     0.140 C 
HETATM   25  O2  UNL     1      30.152   7.960  45.651  1.00  0.00    -0.297 OA
ENDROOT
BRANCH   1  26
HETATM   26  C4  UNL     1      27.254   7.582  48.994  1.00  0.00     0.266 C 
HETATM   27  C2  UNL     1      26.452   8.083  50.056  1.00  0.00     0.045 C 
HETATM   28  C1  UNL     1      25.335   9.094  49.682  1.00  0.00     0.014 C 
HETATM   29  C3  UNL     1      25.782   6.687  49.921  1.00  0.00     0.276 C 
HETATM   30  N1  UNL     1      27.033   6.211  49.271  1.00  0.00     0.091 N 
HETATM   31  H7  UNL     1      26.828   5.536  48.503  1.00  0.00     0.316 HD
ENDBRANCH   1  26
BRANCH   1  32
HETATM   32  N2  UNL     1      28.896   8.924  49.673  1.00  0.00     0.093 N 
HETATM   33  H9  UNL     1      29.384   8.398  50.406  1.00  0.00     0.314 HD
HETATM   34  H10 UNL     1      29.609   9.648  49.350  1.00  0.00     0.314 HD
ENDBRANCH   1  32
BRANCH   7  35
HETATM   35  N4  UNL     1      35.468   7.462  48.711  1.00  0.00    -0.383 N 
HETATM   36  H14 UNL     1      36.222   6.936  49.232  1.00  0.00     0.157 HD
HETATM   37  H15 UNL     1      35.201   8.362  48.275  1.00  0.00     0.157 HD
ENDBRANCH   7  35
TORSDOF 3
ENDMDL
MODEL 2
REMARK VINA RESULT:      -8.7      9.936     12.933
REMARK  3 active torsions:
REMARK  status: ('A' for Active; 'I' for Inactive)
REMARK    1  A    between atoms: C4_5  and  C5_6 
REMARK    2  A    between atoms: C5_6  and  N2_7 
REMARK    3  A    between atoms: C10_13  and  N4_14 
ROOT
HETATM    1  C5  UNL     1      20.339   3.015  49.184  1.00  0.00     0.218 C 
HETATM    2  C6  UNL     1      21.602   3.466  49.819  1.00  0.00     0.168 C 
HETATM    3  N3  UNL     1      22.259   2.754  50.860  1.00  0.00    -0.373 N 
HETATM    4  C7  UNL     1      22.092   1.346  50.624  1.00  0.00     0.099 C 
HETATM    5  C8  UNL     1      22.008   0.837  51.913  1.00  0.00     0.002 C 
HETATM    6  C9  UNL     1      23.193   1.391  52.466  1.00  0.00     0.028 A 
HETATM    7  C10 UNL     1      24.271   1.145  53.144  1.00  0.00     0.130 A 
HETATM    8  N5  UNL     1      24.915   2.436  53.084  1.00  0.00    -0.245 NA
HETATM    9  C11 UNL     1      24.228   3.336  52.462  1.00  0.00     0.122 A 
HETATM   10  C12 UNL     1      22.989   2.859  52.028  1.00  0.00     0.162 A 
HETATM   11  C13 UNL     1      20.941  -0.001  52.437  1.00  0.00    -0.021 A 
HETATM   12  C14 UNL     1      21.028  -0.701  53.593  1.00  0.00     0.012 A 
HETATM   13  C15 UNL     1      19.722  -1.123  53.782  1.00  0.00     0.004 A 
HETATM   14  C16 UNL     1      18.649  -0.852  52.950  1.00  0.00     0.037 A 
HETATM   15  C17 UNL     1      18.543  -0.151  51.788  1.00  0.00     0.069 A 
HETATM   16  C18 UNL     1      19.853   0.233  51.649  1.00  0.00     0.049 A 
HETATM   17  O1  UNL     1      18.134   0.438  50.697  1.00  0.00    -0.350 OA
HETATM   18  C19 UNL     1      18.575   1.254  49.708  1.00  0.00     0.195 C 
HETATM   19  C20 UNL     1      19.094   2.662  49.897  1.00  0.00     0.081 C 
HETATM   20  C21 UNL     1      17.888   3.524  49.386  1.00  0.00     0.022 C 
HETATM   21  C22 UNL     1      17.630   4.732  50.249  1.00  0.00     0.002 C 
HETATM   22  C23 UNL     1      16.864   4.283  51.447  1.00  0.00     0.007 C 
HETATM   23  C24 UNL     1      17.522   2.958  51.799  1.00  0.00     0.079 C 
HETATM   24  C25 UNL     1      18.976   2.985  51.348  1.00  0.00     0.140 C 
HETATM   25  O2  UNL     1      19.642   3.274  52.332  1.00  0.00    -0.297 OA
ENDROOT
BRANCH   1  26
HETATM   26  C4  UNL     1      20.244   3.937  47.982  1.00  0.00     0.266 C 
HETATM   27  C2  UNL     1      20.280   3.607  46.600  1.00  0.00     0.045 C 
HETATM   28  C1  UNL     1      18.917   3.369  45.895  1.00  0.00     0.014 C 
HETATM   29  C3  UNL     1      20.533   5.134  46.463  1.00  0.00     0.276 C 
HETATM   30  N1  UNL     1      21.004   5.127  47.875  1.00  0.00     0.091 N 
HETATM   31  H7  UNL     1      20.715   5.994  48.376  1.00  0.00     0.316 HD
ENDBRANCH   1  26
BRANCH   1  32
HETATM   32  N2  UNL     1      20.705   1.800  48.410  1.00  0.00     0.093 N 
HETATM   33  H9  UNL     1      21.717   1.644  48.357  1.00  0.00     0.314 HD
HETATM   34  H10 UNL     1      20.340   0.974  48.977  1.00  0.00     0.314 HD
ENDBRANCH   1  32
BRANCH   7  35
HETATM   35  N4  UNL     1      24.590  -0.143  53.643  1.00  0.00    -0.383 N 
HETATM   36  H14 UNL     1      24.485  -0.243  54.690  1.00  0.00     0.157 HD
HETATM   37  H15 UNL     1      24.845  -0.621  52.762  1.00  0.00     0.157 HD
ENDBRANCH   7  35
TORSDOF 3
ENDMDL
MODEL 3
REMARK VINA RESULT:      -8.5      5.196      8.838
REMARK  3 active torsions:
REMARK  status: ('A' for Active; 'I' for Inactive)
REMARK    1  A    between atoms: C4_5  and  C5_6 
REMARK    2  A    between atoms: C5_6  and  N2_7 
REMARK    3  A    between atoms: C10_13  and  N4_14 
ROOT
HETATM    1  C5  UNL     1      24.090   3.399  51.159  1.00  0.00     0.218 C 
HETATM    2  C6  UNL     1      25.341   3.832  50.487  1.00  0.00     0.168 C 
HETATM    3  N3  UNL     1      25.556   5.148  49.994  1.00  0.00    -0.373 N 
HETATM    4  C7  UNL     1      24.916   6.078  50.884  1.00  0.00     0.099 C 
HETATM    5  C8  UNL     1      24.491   7.075  50.016  1.00  0.00     0.002 C 
HETATM    6  C9  UNL     1      25.718   7.356  49.357  1.00  0.00     0.028 A 
HETATM    7  C10 UNL     1      26.538   8.288  48.981  1.00  0.00     0.130 A 
HETATM    8  N5  UNL     1      27.612   7.486  48.442  1.00  0.00    -0.245 NA
HETATM    9  C11 UNL     1      27.384   6.215  48.478  1.00  0.00     0.122 A 
HETATM   10  C12 UNL     1      26.122   5.910  48.991  1.00  0.00     0.162 A 
HETATM   11  C13 UNL     1      23.135   7.586  49.894  1.00  0.00    -0.021 A 
HETATM   12  C14 UNL     1      22.815   8.733  49.250  1.00  0.00     0.012 A 
HETATM   13  C15 UNL     1      21.432   8.664  49.191  1.00  0.00     0.004 A 
HETATM   14  C16 UNL     1      20.646   7.639  49.690  1.00  0.00     0.037 A 
HETATM   15  C17 UNL     1      20.950   6.480  50.338  1.00  0.00     0.069 A 
HETATM   16  C18 UNL     1      22.316   6.606  50.372  1.00  0.00     0.049 A 
HETATM   17  O1  UNL     1      20.925   5.330  50.955  1.00  0.00    -0.350 OA
HETATM   18  C19 UNL     1      21.753   4.373  51.440  1.00  0.00     0.195 C 
HETATM   19  C20 UNL     1      22.724   3.553  50.619  1.00  0.00     0.081 C 
HETATM   20  C21 UNL     1      21.991   2.170  50.536  1.00  0.00     0.022 C 
HETATM   21  C22 UNL     1      22.087   1.542  49.169  1.00  0.00     0.002 C 
HETATM   22  C23 UNL     1      21.066   2.189  48.295  1.00  0.00     0.007 C 
HETATM   23  C24 UNL     1      21.145   3.653  48.702  1.00  0.00     0.079 C 
HETATM   24  C25 UNL     1      22.552   3.962  49.195  1.00  0.00     0.140 C 
HETATM   25  O2  UNL     1      23.149   4.466  48.253  1.00  0.00    -0.297 OA
ENDROOT
BRANCH   1  26
HETATM   26  C4  UNL     1      24.489   2.052  51.732  1.00  0.00     0.266 C 
HETATM   27  C2  UNL     1      24.321   1.560  53.055  1.00  0.00     0.045 C 
HETATM   28  C1  UNL     1      23.035   0.740  53.345  1.00  0.00     0.014 C 
HETATM   29  C3  UNL     1      25.356   0.510  52.566  1.00  0.00     0.276 C 
HETATM   30  N1  UNL     1      25.770   1.486  51.521  1.00  0.00     0.091 N 
HETATM   31  H7  UNL     1      26.002   1.006  50.625  1.00  0.00     0.316 HD
ENDBRANCH   1  26
BRANCH   1  32
HETATM   32  N2  UNL     1      24.080   4.116  52.461  1.00  0.00     0.093 N 
HETATM   33  H9  UNL     1      24.039   3.487  53.269  1.00  0.00     0.314 HD
HETATM   34  H10 UNL     1      25.034   4.586  52.540  1.00  0.00     0.314 HD
ENDBRANCH   1  32
BRANCH   7  35
HETATM   35  N4  UNL     1      26.298   9.665  49.214  1.00  0.00    -0.383 N 
HETATM   36  H14 UNL     1      26.456  10.284  48.372  1.00  0.00     0.157 HD
HETATM   37  H15 UNL     1      26.023   9.635  50.211  1.00  0.00     0.157 HD
ENDBRANCH   7  35
TORSDOF 3
ENDMDL
MODEL 4
REMARK VINA RESULT:      -8.4      8.098     11.785
REMARK  3 active torsions:
REMARK  status: ('A' for Active; 'I' for Inactive)
REMARK    1  A    between atoms: C4_5  and  C5_6 
REMARK    2  A    between atoms: C5_6  and  N2_7 
REMARK    3  A    between atoms: C10_13  and  N4_14 
ROOT
HETATM    1  C5  UNL     1      22.372   4.716  50.978  1.00  0.00     0.218 C 
HETATM    2  C6  UNL     1      21.192   4.086  50.337  1.00  0.00     0.168 C 
HETATM    3  N3  UNL     1      20.649   2.836  50.743  1.00  0.00    -0.373 N 
HETATM    4  C7  UNL     1      20.775   2.727  52.170  1.00  0.00     0.099 C 
HETATM    5  C8  UNL     1      20.997   1.367  52.345  1.00  0.00     0.002 C 
HETATM    6  C9  UNL     1      19.886   0.850  51.627  1.00  0.00     0.028 A 
HETATM    7  C10 UNL     1      18.887   0.023  51.657  1.00  0.00     0.130 A 
HETATM    8  N5  UNL     1      18.253   0.338  50.398  1.00  0.00    -0.245 NA
HETATM    9  C11 UNL     1      18.875   1.234  49.707  1.00  0.00     0.122 A 
HETATM   10  C12 UNL     1      20.053   1.663  50.323  1.00  0.00     0.162 A 
HETATM   11  C13 UNL     1      22.107   0.765  53.065  1.00  0.00    -0.021 A 
HETATM   12  C14 UNL     1      22.143  -0.532  53.452  1.00  0.00     0.012 A 
HETATM   13  C15 UNL     1      23.458  -0.683  53.862  1.00  0.00     0.004 A 
HETATM   14  C16 UNL     1      24.435   0.299  53.846  1.00  0.00     0.037 A 
HETATM   15  C17 UNL     1      24.417   1.604  53.460  1.00  0.00     0.069 A 
HETATM   16  C18 UNL     1      23.104   1.696  53.075  1.00  0.00     0.049 A 
HETATM   17  O1  UNL     1      24.708   2.845  53.177  1.00  0.00    -0.350 OA
HETATM   18  C19 UNL     1      24.168   3.955  52.617  1.00  0.00     0.195 C 
HETATM   19  C20 UNL     1      23.686   4.073  51.188  1.00  0.00     0.081 C 
HETATM   20  C21 UNL     1      24.836   4.908  50.526  1.00  0.00     0.022 C 
HETATM   21  C22 UNL     1      25.199   4.408  49.151  1.00  0.00     0.002 C 
HETATM   22  C23 UNL     1      26.090   3.224  49.316  1.00  0.00     0.007 C 
HETATM   23  C24 UNL     1      25.462   2.482  50.486  1.00  0.00     0.079 C 
HETATM   24  C25 UNL     1      23.967   2.770  50.519  1.00  0.00     0.140 C 
HETATM   25  O2  UNL     1      23.417   1.826  49.969  1.00  0.00    -0.297 OA
ENDROOT
BRANCH   1  26
HETATM   26  C4  UNL     1      22.343   6.114  50.388  1.00  0.00     0.266 C 
HETATM   27  C2  UNL     1      22.583   7.359  51.031  1.00  0.00     0.045 C 
HETATM   28  C1  UNL     1      24.033   7.911  50.982  1.00  0.00     0.014 C 
HETATM   29  C3  UNL     1      21.908   7.909  49.745  1.00  0.00     0.276 C 
HETATM   30  N1  UNL     1      21.283   6.570  49.566  1.00  0.00     0.091 N 
HETATM   31  H7  UNL     1      21.235   6.306  48.559  1.00  0.00     0.316 HD
ENDBRANCH   1  26
BRANCH   1  32
HETATM   32  N2  UNL     1      21.911   5.117  52.333  1.00  0.00     0.093 N 
HETATM   33  H9  UNL     1      22.577   5.724  52.823  1.00  0.00     0.314 HD
HETATM   34  H10 UNL     1      21.057   5.735  52.177  1.00  0.00     0.314 HD
ENDBRANCH   1  32
BRANCH   7  35
HETATM   35  N4  UNL     1      18.614  -0.815  52.767  1.00  0.00    -0.383 N 
HETATM   36  H14 UNL     1      18.383  -1.814  52.513  1.00  0.00     0.157 HD
HETATM   37  H15 UNL     1      18.735  -0.137  53.539  1.00  0.00     0.157 HD
ENDBRANCH   7  35
TORSDOF 3
ENDMDL
MODEL 5
REMARK VINA RESULT:      -8.1      3.514      6.897
REMARK  3 active torsions:
REMARK  status: ('A' for Active; 'I' for Inactive)
REMARK    1  A    between atoms: C4_5  and  C5_6 
REMARK    2  A    between atoms: C5_6  and  N2_7 
REMARK    3  A    between atoms: C10_13  and  N4_14 
ROOT
HETATM    1  C5  UNL     1      27.296  10.615  48.308  1.00  0.00     0.218 C 
HETATM    2  C6  UNL     1      25.828  10.663  48.516  1.00  0.00     0.168 C 
HETATM    3  N3  UNL     1      25.062   9.562  48.988  1.00  0.00    -0.373 N 
HETATM    4  C7  UNL     1      25.852   8.835  49.944  1.00  0.00     0.099 C 
HETATM    5  C8  UNL     1      25.449   7.524  49.726  1.00  0.00     0.002 C 
HETATM    6  C9  UNL     1      24.043   7.683  49.849  1.00  0.00     0.028 A 
HETATM    7  C10 UNL     1      22.962   7.230  50.404  1.00  0.00     0.130 A 
HETATM    8  N5  UNL     1      22.003   8.204  49.937  1.00  0.00    -0.245 NA
HETATM    9  C11 UNL     1      22.505   9.098  49.150  1.00  0.00     0.122 A 
HETATM   10  C12 UNL     1      23.861   8.886  48.895  1.00  0.00     0.162 A 
HETATM   11  C13 UNL     1      26.320   6.395  49.439  1.00  0.00    -0.021 A 
HETATM   12  C14 UNL     1      25.928   5.101  49.510  1.00  0.00     0.012 A 
HETATM   13  C15 UNL     1      26.995   4.436  48.927  1.00  0.00     0.004 A 
HETATM   14  C16 UNL     1      28.142   5.023  48.419  1.00  0.00     0.037 A 
HETATM   15  C17 UNL     1      28.551   6.320  48.339  1.00  0.00     0.069 A 
HETATM   16  C18 UNL     1      27.470   6.923  48.931  1.00  0.00     0.049 A 
HETATM   17  O1  UNL     1      29.199   7.432  48.122  1.00  0.00    -0.350 OA
HETATM   18  C19 UNL     1      29.056   8.776  48.228  1.00  0.00     0.195 C 
HETATM   19  C20 UNL     1      28.021   9.609  47.505  1.00  0.00     0.081 C 
HETATM   20  C21 UNL     1      28.878  10.291  46.384  1.00  0.00     0.022 C 
HETATM   21  C22 UNL     1      28.168  10.334  45.055  1.00  0.00     0.002 C 
HETATM   22  C23 UNL     1      28.313   8.994  44.416  1.00  0.00     0.007 C 
HETATM   23  C24 UNL     1      28.135   8.036  45.584  1.00  0.00     0.079 C 
HETATM   24  C25 UNL     1      27.241   8.683  46.633  1.00  0.00     0.140 C 
HETATM   25  O2  UNL     1      26.113   8.247  46.448  1.00  0.00    -0.297 OA
ENDROOT
BRANCH   1  26
HETATM   26  C4  UNL     1      27.633  12.080  48.099  1.00  0.00     0.266 C 
HETATM   27  C2  UNL     1      28.460  12.926  48.886  1.00  0.00     0.045 C 
HETATM   28  C1  UNL     1      29.952  13.041  48.472  1.00  0.00     0.014 C 
HETATM   29  C3  UNL     1      27.738  14.033  48.069  1.00  0.00     0.276 C 
HETATM   30  N1  UNL     1      26.645  13.054  47.815  1.00  0.00     0.091 N 
HETATM   31  H7  UNL     1      26.259  13.160  46.852  1.00  0.00     0.316 HD
ENDBRANCH   1  26
BRANCH   1  32
HETATM   32  N2  UNL     1      27.879  10.523  49.672  1.00  0.00     0.093 N 
HETATM   33  H9  UNL     1      27.254  10.875  50.404  1.00  0.00     0.314 HD
HETATM   34  H10 UNL     1      27.967   9.481  49.879  1.00  0.00     0.314 HD
ENDBRANCH   1  32
BRANCH   7  35
HETATM   35  N4  UNL     1      22.955   6.116  51.280  1.00  0.00    -0.383 N 
HETATM   36  H14 UNL     1      22.794   5.187  50.803  1.00  0.00     0.157 HD
HETATM   37  H15 UNL     1      23.122   6.594  52.182  1.00  0.00     0.157 HD
ENDBRANCH   7  35
TORSDOF 3
ENDMDL
MODEL 6
REMARK VINA RESULT:      -7.8     10.570     13.336
REMARK  3 active torsions:
REMARK  status: ('A' for Active; 'I' for Inactive)
REMARK    1  A    between atoms: C4_5  and  C5_6 
REMARK    2  A    between atoms: C5_6  and  N2_7 
REMARK    3  A    between atoms: C10_13  and  N4_14 
ROOT
HETATM    1  C5  UNL     1      19.563   3.694  49.795  1.00  0.00     0.218 C 
HETATM    2  C6  UNL     1      18.408   2.764  49.761  1.00  0.00     0.168 C 
HETATM    3  N3  UNL     1      18.295   1.617  50.594  1.00  0.00    -0.373 N 
HETATM    4  C7  UNL     1      18.871   1.926  51.875  1.00  0.00     0.099 C 
HETATM    5  C8  UNL     1      19.421   0.709  52.254  1.00  0.00     0.002 C 
HETATM    6  C9  UNL     1      18.282  -0.126  52.101  1.00  0.00     0.028 A 
HETATM    7  C10 UNL     1      17.541  -1.033  52.659  1.00  0.00     0.130 A 
HETATM    8  N5  UNL     1      16.502  -1.166  51.664  1.00  0.00    -0.245 NA
HETATM    9  C11 UNL     1      16.677  -0.424  50.621  1.00  0.00     0.122 A 
HETATM   10  C12 UNL     1      17.866   0.306  50.677  1.00  0.00     0.162 A 
HETATM   11  C13 UNL     1      20.800   0.478  52.654  1.00  0.00    -0.021 A 
HETATM   12  C14 UNL     1      21.228  -0.644  53.278  1.00  0.00     0.012 A 
HETATM   13  C15 UNL     1      22.606  -0.505  53.225  1.00  0.00     0.004 A 
HETATM   14  C16 UNL     1      23.297   0.551  52.654  1.00  0.00     0.037 A 
HETATM   15  C17 UNL     1      22.884   1.685  52.023  1.00  0.00     0.069 A 
HETATM   16  C18 UNL     1      21.528   1.496  52.111  1.00  0.00     0.049 A 
HETATM   17  O1  UNL     1      22.801   2.824  51.392  1.00  0.00    -0.350 OA
HETATM   18  C19 UNL     1      21.892   3.656  50.828  1.00  0.00     0.195 C 
HETATM   19  C20 UNL     1      20.984   3.309  49.668  1.00  0.00     0.081 C 
HETATM   20  C21 UNL     1      21.671   4.067  48.481  1.00  0.00     0.022 C 
HETATM   21  C22 UNL     1      21.697   3.256  47.210  1.00  0.00     0.002 C 
HETATM   22  C23 UNL     1      22.827   2.289  47.309  1.00  0.00     0.007 C 
HETATM   23  C24 UNL     1      22.760   1.828  48.757  1.00  0.00     0.079 C 
HETATM   24  C25 UNL     1      21.321   1.919  49.246  1.00  0.00     0.140 C 
HETATM   25  O2  UNL     1      20.846   0.796  49.144  1.00  0.00    -0.297 OA
ENDROOT
BRANCH   1  26
HETATM   26  C4  UNL     1      19.057   4.857  48.962  1.00  0.00     0.266 C 
HETATM   27  C2  UNL     1      18.849   6.208  49.350  1.00  0.00     0.045 C 
HETATM   28  C1  UNL     1      20.020   7.199  49.112  1.00  0.00     0.014 C 
HETATM   29  C3  UNL     1      18.033   6.237  48.029  1.00  0.00     0.276 C 
HETATM   30  N1  UNL     1      17.910   4.758  48.137  1.00  0.00     0.091 N 
HETATM   31  H7  UNL     1      17.962   4.304  47.201  1.00  0.00     0.316 HD
ENDBRANCH   1  26
BRANCH   1  32
HETATM   32  N2  UNL     1      19.462   4.393  51.102  1.00  0.00     0.093 N 
HETATM   33  H9  UNL     1      18.971   5.291  51.044  1.00  0.00     0.314 HD
HETATM   34  H10 UNL     1      18.829   3.785  51.708  1.00  0.00     0.314 HD
ENDBRANCH   1  32
BRANCH   7  35
HETATM   35  N4  UNL     1      17.805  -1.557  53.949  1.00  0.00    -0.383 N 
HETATM   36  H14 UNL     1      18.817  -1.493  54.247  1.00  0.00     0.157 HD
HETATM   37  H15 UNL     1      16.855  -1.864  54.218  1.00  0.00     0.157 HD
ENDBRANCH   7  35
TORSDOF 3
ENDMDL
MODEL 7
REMARK VINA RESULT:      -7.8      7.394     11.335
REMARK  3 active torsions:
REMARK  status: ('A' for Active; 'I' for Inactive)
REMARK    1  A    between atoms: C4_5  and  C5_6 
REMARK    2  A    between atoms: C5_6  and  N2_7 
REMARK    3  A    between atoms: C10_13  and  N4_14 
ROOT
HETATM    1  C5  UNL     1      20.247   3.840  48.122  1.00  0.00     0.218 C 
HETATM    2  C6  UNL     1      21.283   4.896  48.238  1.00  0.00     0.168 C 
HETATM    3  N3  UNL     1      22.511   4.722  48.934  1.00  0.00    -0.373 N 
HETATM    4  C7  UNL     1      22.952   3.367  48.749  1.00  0.00     0.099 C 
HETATM    5  C8  UNL     1      23.568   3.087  49.961  1.00  0.00     0.002 C 
HETATM    6  C9  UNL     1      24.464   4.187  50.033  1.00  0.00     0.028 A 
HETATM    7  C10 UNL     1      25.690   4.552  50.243  1.00  0.00     0.130 A 
HETATM    8  N5  UNL     1      25.589   5.967  49.971  1.00  0.00    -0.245 NA
HETATM    9  C11 UNL     1      24.394   6.360  49.679  1.00  0.00     0.122 A 
HETATM   10  C12 UNL     1      23.460   5.324  49.738  1.00  0.00     0.162 A 
HETATM   11  C13 UNL     1      23.273   1.961  50.833  1.00  0.00    -0.021 A 
HETATM   12  C14 UNL     1      24.072   1.566  51.853  1.00  0.00     0.012 A 
HETATM   13  C15 UNL     1      23.272   0.648  52.516  1.00  0.00     0.004 A 
HETATM   14  C16 UNL     1      21.985   0.282  52.161  1.00  0.00     0.037 A 
HETATM   15  C17 UNL     1      21.168   0.669  51.142  1.00  0.00     0.069 A 
HETATM   16  C18 UNL     1      22.006   1.562  50.524  1.00  0.00     0.049 A 
HETATM   17  O1  UNL     1      20.183   0.835  50.303  1.00  0.00    -0.350 OA
HETATM   18  C19 UNL     1      19.817   1.592  49.239  1.00  0.00     0.195 C 
HETATM   19  C20 UNL     1      19.646   3.095  49.247  1.00  0.00     0.081 C 
HETATM   20  C21 UNL     1      18.086   3.243  49.253  1.00  0.00     0.022 C 
HETATM   21  C22 UNL     1      17.609   4.336  50.176  1.00  0.00     0.002 C 
HETATM   22  C23 UNL     1      17.611   3.794  51.565  1.00  0.00     0.007 C 
HETATM   23  C24 UNL     1      18.888   2.969  51.610  1.00  0.00     0.079 C 
HETATM   24  C25 UNL     1      19.902   3.560  50.640  1.00  0.00     0.140 C 
HETATM   25  O2  UNL     1      20.649   4.266  51.303  1.00  0.00    -0.297 OA
ENDROOT
BRANCH   1  26
HETATM   26  C4  UNL     1      19.322   4.420  47.068  1.00  0.00     0.266 C 
HETATM   27  C2  UNL     1      19.067   3.952  45.750  1.00  0.00     0.045 C 
HETATM   28  C1  UNL     1      17.860   2.994  45.563  1.00  0.00     0.014 C 
HETATM   29  C3  UNL     1      18.467   5.377  45.592  1.00  0.00     0.276 C 
HETATM   30  N1  UNL     1      19.309   5.799  46.744  1.00  0.00     0.091 N 
HETATM   31  H7  UNL     1      18.807   6.485  47.348  1.00  0.00     0.316 HD
ENDBRANCH   1  26
BRANCH   1  32
HETATM   32  N2  UNL     1      20.845   2.804  47.240  1.00  0.00     0.093 N 
HETATM   33  H9  UNL     1      20.204   2.031  47.031  1.00  0.00     0.314 HD
HETATM   34  H10 UNL     1      21.000   3.279  46.298  1.00  0.00     0.314 HD
ENDBRANCH   1  32
BRANCH   7  35
HETATM   35  N4  UNL     1      26.724   3.634  50.555  1.00  0.00    -0.383 N 
HETATM   36  H14 UNL     1      26.790   2.811  49.896  1.00  0.00     0.157 HD
HETATM   37  H15 UNL     1      27.123   4.089  51.395  1.00  0.00     0.157 HD
ENDBRANCH   7  35
TORSDOF 3
ENDMDL
MODEL 8
REMARK VINA RESULT:      -7.8      9.694     11.886
REMARK  3 active torsions:
REMARK  status: ('A' for Active; 'I' for Inactive)
REMARK    1  A    between atoms: C4_5  and  C5_6 
REMARK    2  A    between atoms: C5_6  and  N2_7 
REMARK    3  A    between atoms: C10_13  and  N4_14 
ROOT
HETATM    1  C5  UNL     1      20.321   2.931  51.258  1.00  0.00     0.218 C 
HETATM    2  C6  UNL     1      19.847   1.703  51.944  1.00  0.00     0.168 C 
HETATM    3  N3  UNL     1      20.692   0.846  52.700  1.00  0.00    -0.373 N 
HETATM    4  C7  UNL     1      21.674   1.653  53.372  1.00  0.00     0.099 C 
HETATM    5  C8  UNL     1      22.790   0.826  53.368  1.00  0.00     0.002 C 
HETATM    6  C9  UNL     1      22.224  -0.341  53.947  1.00  0.00     0.028 A 
HETATM    7  C10 UNL     1      22.362  -1.256  54.855  1.00  0.00     0.130 A 
HETATM    8  N5  UNL     1      21.121  -1.976  54.688  1.00  0.00    -0.245 NA
HETATM    9  C11 UNL     1      20.377  -1.523  53.734  1.00  0.00     0.122 A 
HETATM   10  C12 UNL     1      20.971  -0.460  53.050  1.00  0.00     0.162 A 
HETATM   11  C13 UNL     1      24.110   1.169  52.864  1.00  0.00    -0.021 A 
HETATM   12  C14 UNL     1      25.229   0.453  53.128  1.00  0.00     0.012 A 
HETATM   13  C15 UNL     1      26.150   1.011  52.255  1.00  0.00     0.004 A 
HETATM   14  C16 UNL     1      25.906   2.042  51.363  1.00  0.00     0.037 A 
HETATM   15  C17 UNL     1      24.790   2.771  51.084  1.00  0.00     0.069 A 
HETATM   16  C18 UNL     1      23.925   2.185  51.973  1.00  0.00     0.049 A 
HETATM   17  O1  UNL     1      23.913   3.611  50.607  1.00  0.00    -0.350 OA
HETATM   18  C19 UNL     1      22.596   3.923  50.686  1.00  0.00     0.195 C 
HETATM   19  C20 UNL     1      21.452   3.007  50.311  1.00  0.00     0.081 C 
HETATM   20  C21 UNL     1      20.997   3.602  48.934  1.00  0.00     0.022 C 
HETATM   21  C22 UNL     1      20.670   2.537  47.919  1.00  0.00     0.002 C 
HETATM   22  C23 UNL     1      21.954   2.049  47.338  1.00  0.00     0.007 C 
HETATM   23  C24 UNL     1      22.878   1.994  48.545  1.00  0.00     0.079 C 
HETATM   24  C25 UNL     1      22.052   1.741  49.799  1.00  0.00     0.140 C 
HETATM   25  O2  UNL     1      22.118   0.540  50.025  1.00  0.00    -0.297 OA
ENDROOT
BRANCH   1  26
HETATM   26  C4  UNL     1      19.016   3.602  50.874  1.00  0.00     0.266 C 
HETATM   27  C2  UNL     1      18.663   4.977  50.950  1.00  0.00     0.045 C 
HETATM   28  C1  UNL     1      18.900   5.838  49.681  1.00  0.00     0.014 C 
HETATM   29  C3  UNL     1      17.232   4.399  50.774  1.00  0.00     0.276 C 
HETATM   30  N1  UNL     1      17.755   3.100  51.278  1.00  0.00     0.091 N 
HETATM   31  H7  UNL     1      17.315   2.296  50.781  1.00  0.00     0.316 HD
ENDBRANCH   1  26
BRANCH   1  32
HETATM   32  N2  UNL     1      20.660   3.880  52.350  1.00  0.00     0.093 N 
HETATM   33  H9  UNL     1      21.109   4.739  52.015  1.00  0.00     0.314 HD
HETATM   34  H10 UNL     1      19.727   4.209  52.748  1.00  0.00     0.314 HD
ENDBRANCH   1  32
BRANCH   7  35
HETATM   35  N4  UNL     1      23.470  -1.304  55.738  1.00  0.00    -0.383 N 
HETATM   36  H14 UNL     1      24.387  -1.547  55.273  1.00  0.00     0.157 HD
HETATM   37  H15 UNL     1      23.000  -1.070  56.630  1.00  0.00     0.157 HD
ENDBRANCH   7  35
TORSDOF 3
ENDMDL
MODEL 9
REMARK VINA RESULT:      -7.8      3.421      5.724
REMARK  3 active torsions:
REMARK  status: ('A' for Active; 'I' for Inactive)
REMARK    1  A    between atoms: C4_5  and  C5_6 
REMARK    2  A    between atoms: C5_6  and  N2_7 
REMARK    3  A    between atoms: C10_13  and  N4_14 
ROOT
HETATM    1  C5  UNL     1      32.910   5.595  46.258  1.00  0.00     0.218 C 
HETATM    2  C6  UNL     1      32.789   5.496  44.782  1.00  0.00     0.168 C 
HETATM    3  N3  UNL     1      32.960   6.599  43.902  1.00  0.00    -0.373 N 
HETATM    4  C7  UNL     1      33.986   7.453  44.435  1.00  0.00     0.099 C 
HETATM    5  C8  UNL     1      33.546   8.716  44.058  1.00  0.00     0.002 C 
HETATM    6  C9  UNL     1      33.368   8.500  42.665  1.00  0.00     0.028 A 
HETATM    7  C10 UNL     1      33.617   8.952  41.475  1.00  0.00     0.130 A 
HETATM    8  N5  UNL     1      33.053   7.891  40.673  1.00  0.00    -0.245 NA
HETATM    9  C11 UNL     1      32.497   6.951  41.363  1.00  0.00     0.122 A 
HETATM   10  C12 UNL     1      32.530   7.203  42.736  1.00  0.00     0.162 A 
HETATM   11  C13 UNL     1      33.344   9.852  44.942  1.00  0.00    -0.021 A 
HETATM   12  C14 UNL     1      33.188  11.126  44.510  1.00  0.00     0.012 A 
HETATM   13  C15 UNL     1      32.791  11.783  45.664  1.00  0.00     0.004 A 
HETATM   14  C16 UNL     1      32.617  11.206  46.912  1.00  0.00     0.037 A 
HETATM   15  C17 UNL     1      32.767   9.930  47.362  1.00  0.00     0.069 A 
HETATM   16  C18 UNL     1      33.163   9.335  46.191  1.00  0.00     0.049 A 
HETATM   17  O1  UNL     1      32.819   8.835  48.070  1.00  0.00    -0.350 OA
HETATM   18  C19 UNL     1      33.031   7.503  47.942  1.00  0.00     0.195 C 
HETATM   19  C20 UNL     1      32.188   6.554  47.119  1.00  0.00     0.081 C 
HETATM   20  C21 UNL     1      31.365   5.809  48.226  1.00  0.00     0.022 C 
HETATM   21  C22 UNL     1      29.923   5.603  47.839  1.00  0.00     0.002 C 
HETATM   22  C23 UNL     1      29.195   6.880  48.090  1.00  0.00     0.007 C 
HETATM   23  C24 UNL     1      30.186   7.937  47.627  1.00  0.00     0.079 C 
HETATM   24  C25 UNL     1      31.071   7.351  46.535  1.00  0.00     0.140 C 
HETATM   25  O2  UNL     1      30.594   7.711  45.468  1.00  0.00    -0.297 OA
ENDROOT
BRANCH   1  26
HETATM   26  C4  UNL     1      32.937   4.136  46.671  1.00  0.00     0.266 C 
HETATM   27  C2  UNL     1      34.057   3.274  46.831  1.00  0.00     0.045 C 
HETATM   28  C1  UNL     1      34.670   3.169  48.253  1.00  0.00     0.014 C 
HETATM   29  C3  UNL     1      32.950   2.184  46.797  1.00  0.00     0.276 C 
HETATM   30  N1  UNL     1      32.081   3.166  46.094  1.00  0.00     0.091 N 
HETATM   31  H7  UNL     1      31.088   3.080  46.400  1.00  0.00     0.316 HD
ENDBRANCH   1  26
BRANCH   1  32
HETATM   32  N2  UNL     1      34.352   5.848  46.514  1.00  0.00     0.093 N 
HETATM   33  H9  UNL     1      34.584   5.898  47.511  1.00  0.00     0.314 HD
HETATM   34  H10 UNL     1      34.865   4.980  46.168  1.00  0.00     0.314 HD
ENDBRANCH   1  32
BRANCH   7  35
HETATM   35  N4  UNL     1      34.347  10.144  41.241  1.00  0.00    -0.383 N 
HETATM   36  H14 UNL     1      34.929  10.467  42.061  1.00  0.00     0.157 HD
HETATM   37  H15 UNL     1      34.061  10.342  40.266  1.00  0.00     0.157 HD
ENDBRANCH   7  35
TORSDOF 3
ENDMDL
