MODEL 1
REMARK VINA RESULT:      -6.7      0.000      0.000
REMARK  6 active torsions:
REMARK  status: ('A' for Active; 'I' for Inactive)
REMARK    1  A    between atoms: O1_2  and  C2_3 
REMARK    2  A    between atoms: C5_6  and  C6_7 
REMARK    3  A    between atoms: C6_7  and  C7_8 
REMARK    4  A    between atoms: C7_8  and  N1_9 
REMARK    5  A    between atoms: N1_9  and  S1_10 
REMARK    6  A    between atoms: C8_12  and  O3_13 
ROOT
HETATM    1  N1  UNL     1      22.731   1.012  51.861  1.00  0.00    -0.250 NA
HETATM    2  H10 UNL     1      21.774   0.695  51.585  1.00  0.00     0.136 HD
ENDROOT
BRANCH   1   3
HETATM    3  C7  UNL     1      23.085   0.627  53.201  1.00  0.00     0.105 C 
BRANCH   3   4
HETATM    4  C6  UNL     1      23.641  -0.786  53.199  1.00  0.00     0.054 C 
BRANCH   4   5
HETATM    5  C5  UNL     1      25.117  -0.628  53.436  1.00  0.00    -0.057 A 
HETATM    6  C4  UNL     1      25.506   0.134  54.542  1.00  0.00     0.010 A 
HETATM    7  C3  UNL     1      26.824   0.363  54.881  1.00  0.00     0.037 A 
HETATM    8  C2  UNL     1      27.815  -0.177  54.102  1.00  0.00     0.068 A 
HETATM    9  C15 UNL     1      27.442  -0.936  53.000  1.00  0.00     0.037 A 
HETATM   10  C14 UNL     1      26.126  -1.170  52.655  1.00  0.00     0.010 A 
BRANCH   8  11
HETATM   11  O1  UNL     1      29.171  -0.030  54.322  1.00  0.00    -0.356 OA
HETATM   12  C1  UNL     1      30.143  -0.727  53.580  1.00  0.00     0.210 C 
ENDBRANCH   8  11
ENDBRANCH   4   5
ENDBRANCH   3   4
ENDBRANCH   1   3
BRANCH   1  13
HETATM   13  S1  UNL     1      22.964   2.696  51.549  1.00  0.00     0.045 S 
HETATM   14  O2  UNL     1      21.969   3.540  52.273  1.00  0.00    -0.252 OA
HETATM   15  C8  UNL     1      24.451   3.015  52.011  1.00  0.00     0.187 C 
HETATM   16  C9  UNL     1      25.485   2.464  51.077  1.00  0.00     0.056 C 
HETATM   17  C10 UNL     1      26.841   2.427  51.695  1.00  0.00     0.018 C 
HETATM   18  C11 UNL     1      25.423   3.337  49.868  1.00  0.00    -0.022 C 
HETATM   19  C12 UNL     1      24.229   3.564  49.329  1.00  0.00    -0.017 C 
HETATM   20  C13 UNL     1      22.920   3.036  49.805  1.00  0.00     0.142 C 
BRANCH  15  21
HETATM   21  O3  UNL     1      24.747   3.739  53.176  1.00  0.00    -0.372 OA
HETATM   22  H11 UNL     1      24.092   3.730  53.955  1.00  0.00     0.212 HD
ENDBRANCH  15  21
ENDBRANCH   1  13
TORSDOF 6
ENDMDL
MODEL 2
REMARK VINA RESULT:      -6.7      2.650      6.221
REMARK  6 active torsions:
REMARK  status: ('A' for Active; 'I' for Inactive)
REMARK    1  A    between atoms: O1_2  and  C2_3 
REMARK    2  A    between atoms: C5_6  and  C6_7 
REMARK    3  A    between atoms: C6_7  and  C7_8 
REMARK    4  A    between atoms: C7_8  and  N1_9 
REMARK    5  A    between atoms: N1_9  and  S1_10 
REMARK    6  A    between atoms: C8_12  and  O3_13 
ROOT
HETATM    1  N1  UNL     1      28.395   1.993  52.797  1.00  0.00    -0.250 NA
HETATM    2  H10 UNL     1      29.067   2.794  52.763  1.00  0.00     0.136 HD
ENDROOT
BRANCH   1   3
HETATM    3  C7  UNL     1      27.023   2.417  52.877  1.00  0.00     0.105 C 
BRANCH   3   4
HETATM    4  C6  UNL     1      26.371   2.307  51.510  1.00  0.00     0.054 C 
BRANCH   4   5
HETATM    5  C5  UNL     1      24.938   1.946  51.786  1.00  0.00    -0.057 A 
HETATM    6  C4  UNL     1      24.033   2.076  50.727  1.00  0.00     0.010 A 
HETATM    7  C3  UNL     1      22.689   1.781  50.836  1.00  0.00     0.037 A 
HETATM    8  C2  UNL     1      22.201   1.336  52.038  1.00  0.00     0.068 A 
HETATM    9  C15 UNL     1      23.090   1.202  53.097  1.00  0.00     0.037 A 
HETATM   10  C14 UNL     1      24.434   1.496  52.996  1.00  0.00     0.010 A 
BRANCH   8  11
HETATM   11  O1  UNL     1      20.884   1.005  52.289  1.00  0.00    -0.356 OA
HETATM   12  C1  UNL     1      20.512  -0.150  53.005  1.00  0.00     0.210 C 
ENDBRANCH   8  11
ENDBRANCH   4   5
ENDBRANCH   3   4
ENDBRANCH   1   3
BRANCH   1  13
HETATM   13  S1  UNL     1      28.828   0.841  54.011  1.00  0.00     0.045 S 
HETATM   14  O2  UNL     1      29.090   1.492  55.328  1.00  0.00    -0.252 OA
HETATM   15  C8  UNL     1      27.609  -0.175  54.090  1.00  0.00     0.187 C 
HETATM   16  C9  UNL     1      27.540  -1.099  52.912  1.00  0.00     0.056 C 
HETATM   17  C10 UNL     1      26.214  -1.770  52.799  1.00  0.00     0.018 C 
HETATM   18  C11 UNL     1      28.663  -2.063  53.107  1.00  0.00    -0.022 C 
HETATM   19  C12 UNL     1      29.867  -1.566  53.373  1.00  0.00    -0.017 C 
HETATM   20  C13 UNL     1      30.230  -0.127  53.503  1.00  0.00     0.142 C 
BRANCH  15  21
HETATM   21  O3  UNL     1      26.701  -0.192  55.159  1.00  0.00    -0.372 OA
HETATM   22  H11 UNL     1      25.771   0.200  55.037  1.00  0.00     0.212 HD
ENDBRANCH  15  21
ENDBRANCH   1  13
TORSDOF 6
ENDMDL
MODEL 3
REMARK VINA RESULT:      -6.6      3.373      7.017
REMARK  6 active torsions:
REMARK  status: ('A' for Active; 'I' for Inactive)
REMARK    1  A    between atoms: O1_2  and  C2_3 
REMARK    2  A    between atoms: C5_6  and  C6_7 
REMARK    3  A    between atoms: C6_7  and  C7_8 
REMARK    4  A    between atoms: C7_8  and  N1_9 
REMARK    5  A    between atoms: N1_9  and  S1_10 
REMARK    6  A    between atoms: C8_12  and  O3_13 
ROOT
HETATM    1  N1  UNL     1      26.657   1.486  51.551  1.00  0.00    -0.250 NA
HETATM    2  H10 UNL     1      27.322   0.997  50.907  1.00  0.00     0.136 HD
ENDROOT
BRANCH   1   3
HETATM    3  C7  UNL     1      26.421   2.855  51.179  1.00  0.00     0.105 C 
BRANCH   3   4
HETATM    4  C6  UNL     1      26.348   2.972  49.667  1.00  0.00     0.054 C 
BRANCH   4   5
HETATM    5  C5  UNL     1      26.572   4.429  49.375  1.00  0.00    -0.057 A 
HETATM    6  C4  UNL     1      27.717   4.762  48.644  1.00  0.00     0.010 A 
HETATM    7  C3  UNL     1      28.050   6.058  48.303  1.00  0.00     0.037 A 
HETATM    8  C2  UNL     1      27.226   7.082  48.694  1.00  0.00     0.068 A 
HETATM    9  C15 UNL     1      26.086   6.764  49.420  1.00  0.00     0.037 A 
HETATM   10  C14 UNL     1      25.746   5.472  49.765  1.00  0.00     0.010 A 
BRANCH   8  11
HETATM   11  O1  UNL     1      27.436   8.420  48.424  1.00  0.00    -0.356 OA
HETATM   12  C1  UNL     1      28.471   9.165  49.021  1.00  0.00     0.210 C 
ENDBRANCH   8  11
ENDBRANCH   4   5
ENDBRANCH   3   4
ENDBRANCH   1   3
BRANCH   1  13
HETATM   13  S1  UNL     1      27.110   1.294  53.208  1.00  0.00     0.045 S 
HETATM   14  O2  UNL     1      26.271   2.130  54.115  1.00  0.00    -0.252 OA
HETATM   15  C8  UNL     1      26.947  -0.256  53.519  1.00  0.00     0.187 C 
HETATM   16  C9  UNL     1      28.017  -1.095  52.890  1.00  0.00     0.056 C 
HETATM   17  C10 UNL     1      27.655  -2.541  52.859  1.00  0.00     0.018 C 
HETATM   18  C11 UNL     1      29.247  -0.823  53.693  1.00  0.00    -0.022 C 
HETATM   19  C12 UNL     1      29.573   0.447  53.914  1.00  0.00    -0.017 C 
HETATM   20  C13 UNL     1      28.835   1.653  53.446  1.00  0.00     0.142 C 
BRANCH  15  21
HETATM   21  O3  UNL     1      25.902  -0.768  54.303  1.00  0.00    -0.372 OA
HETATM   22  H11 UNL     1      25.069  -1.140  53.853  1.00  0.00     0.212 HD
ENDBRANCH  15  21
ENDBRANCH   1  13
TORSDOF 6
ENDMDL
MODEL 4
REMARK VINA RESULT:      -6.4      3.122      6.510
REMARK  6 active torsions:
REMARK  status: ('A' for Active; 'I' for Inactive)
REMARK    1  A    between atoms: O1_2  and  C2_3 
REMARK    2  A    between atoms: C5_6  and  C6_7 
REMARK    3  A    between atoms: C6_7  and  C7_8 
REMARK    4  A    between atoms: C7_8  and  N1_9 
REMARK    5  A    between atoms: N1_9  and  S1_10 
REMARK    6  A    between atoms: C8_12  and  O3_13 
ROOT
HETATM    1  N1  UNL     1      26.560   1.504  51.622  1.00  0.00    -0.250 NA
HETATM    2  H10 UNL     1      27.411   0.897  51.641  1.00  0.00     0.136 HD
ENDROOT
BRANCH   1   3
HETATM    3  C7  UNL     1      26.828   2.829  51.132  1.00  0.00     0.105 C 
BRANCH   3   4
HETATM    4  C6  UNL     1      26.403   2.935  49.678  1.00  0.00     0.054 C 
BRANCH   4   5
HETATM    5  C5  UNL     1      26.622   4.376  49.310  1.00  0.00    -0.057 A 
HETATM    6  C4  UNL     1      25.639   5.290  49.705  1.00  0.00     0.010 A 
HETATM    7  C3  UNL     1      25.707   6.642  49.436  1.00  0.00     0.037 A 
HETATM    8  C2  UNL     1      26.787   7.130  48.746  1.00  0.00     0.068 A 
HETATM    9  C15 UNL     1      27.770   6.233  48.349  1.00  0.00     0.037 A 
HETATM   10  C14 UNL     1      27.709   4.880  48.614  1.00  0.00     0.010 A 
BRANCH   8  11
HETATM   11  O1  UNL     1      26.985   8.455  48.410  1.00  0.00    -0.356 OA
HETATM   12  C1  UNL     1      26.327   9.513  49.065  1.00  0.00     0.210 C 
ENDBRANCH   8  11
ENDBRANCH   4   5
ENDBRANCH   3   4
ENDBRANCH   1   3
BRANCH   1  13
HETATM   13  S1  UNL     1      25.726   1.489  53.136  1.00  0.00     0.045 S 
HETATM   14  O2  UNL     1      26.608   1.911  54.263  1.00  0.00    -0.252 OA
HETATM   15  C8  UNL     1      24.493   2.476  52.954  1.00  0.00     0.187 C 
HETATM   16  C9  UNL     1      23.410   1.906  52.090  1.00  0.00     0.056 C 
HETATM   17  C10 UNL     1      22.459   2.952  51.616  1.00  0.00     0.018 C 
HETATM   18  C11 UNL     1      22.751   0.861  52.928  1.00  0.00    -0.022 C 
HETATM   19  C12 UNL     1      23.532  -0.032  53.529  1.00  0.00    -0.017 C 
HETATM   20  C13 UNL     1      25.018  -0.109  53.461  1.00  0.00     0.142 C 
BRANCH  15  21
HETATM   21  O3  UNL     1      24.442   3.746  53.549  1.00  0.00    -0.372 OA
HETATM   22  H11 UNL     1      25.077   4.476  53.235  1.00  0.00     0.212 HD
ENDBRANCH  15  21
ENDBRANCH   1  13
TORSDOF 6
ENDMDL
MODEL 5
REMARK VINA RESULT:      -6.3      6.892      9.570
REMARK  6 active torsions:
REMARK  status: ('A' for Active; 'I' for Inactive)
REMARK    1  A    between atoms: O1_2  and  C2_3 
REMARK    2  A    between atoms: C5_6  and  C6_7 
REMARK    3  A    between atoms: C6_7  and  C7_8 
REMARK    4  A    between atoms: C7_8  and  N1_9 
REMARK    5  A    between atoms: N1_9  and  S1_10 
REMARK    6  A    between atoms: C8_12  and  O3_13 
ROOT
HETATM    1  N1  UNL     1      31.689   5.202  49.254  1.00  0.00    -0.250 NA
HETATM    2  H10 UNL     1      31.353   4.222  49.398  1.00  0.00     0.136 HD
ENDROOT
BRANCH   1   3
HETATM    3  C7  UNL     1      30.652   6.089  48.799  1.00  0.00     0.105 C 
BRANCH   3   4
HETATM    4  C6  UNL     1      29.700   5.340  47.883  1.00  0.00     0.054 C 
BRANCH   4   5
HETATM    5  C5  UNL     1      28.324   5.682  48.383  1.00  0.00    -0.057 A 
HETATM    6  C4  UNL     1      27.518   4.619  48.803  1.00  0.00     0.010 A 
HETATM    7  C3  UNL     1      26.235   4.783  49.284  1.00  0.00     0.037 A 
HETATM    8  C2  UNL     1      25.709   6.048  49.361  1.00  0.00     0.068 A 
HETATM    9  C15 UNL     1      26.501   7.112  48.948  1.00  0.00     0.037 A 
HETATM   10  C14 UNL     1      27.784   6.955  48.465  1.00  0.00     0.010 A 
BRANCH   8  11
HETATM   11  O1  UNL     1      24.445   6.359  49.821  1.00  0.00    -0.356 OA
HETATM   12  C1  UNL     1      24.220   7.257  50.882  1.00  0.00     0.210 C 
ENDBRANCH   8  11
ENDBRANCH   4   5
ENDBRANCH   3   4
ENDBRANCH   1   3
BRANCH   1  13
HETATM   13  S1  UNL     1      33.113   5.256  48.276  1.00  0.00     0.045 S 
HETATM   14  O2  UNL     1      34.263   5.871  49.001  1.00  0.00    -0.252 OA
HETATM   15  C8  UNL     1      33.412   3.747  47.873  1.00  0.00     0.187 C 
HETATM   16  C9  UNL     1      32.454   3.214  46.852  1.00  0.00     0.056 C 
HETATM   17  C10 UNL     1      32.493   1.726  46.765  1.00  0.00     0.018 C 
HETATM   18  C11 UNL     1      32.838   3.880  45.572  1.00  0.00    -0.022 C 
HETATM   19  C12 UNL     1      32.985   5.201  45.581  1.00  0.00    -0.017 C 
HETATM   20  C13 UNL     1      32.809   6.111  46.747  1.00  0.00     0.142 C 
BRANCH  15  21
HETATM   21  O3  UNL     1      34.468   3.008  48.426  1.00  0.00    -0.372 OA
HETATM   22  H11 UNL     1      35.279   2.783  47.855  1.00  0.00     0.212 HD
ENDBRANCH  15  21
ENDBRANCH   1  13
TORSDOF 6
ENDMDL
MODEL 6
REMARK VINA RESULT:      -6.0      2.621      3.434
REMARK  6 active torsions:
REMARK  status: ('A' for Active; 'I' for Inactive)
REMARK    1  A    between atoms: O1_2  and  C2_3 
REMARK    2  A    between atoms: C5_6  and  C6_7 
REMARK    3  A    between atoms: C6_7  and  C7_8 
REMARK    4  A    between atoms: C7_8  and  N1_9 
REMARK    5  A    between atoms: N1_9  and  S1_10 
REMARK    6  A    between atoms: C8_12  and  O3_13 
ROOT
HETATM    1  N1  UNL     1      24.701   4.230  51.412  1.00  0.00    -0.250 NA
HETATM    2  H10 UNL     1      25.534   4.569  51.946  1.00  0.00     0.136 HD
ENDROOT
BRANCH   1   3
HETATM    3  C7  UNL     1      24.106   3.054  51.987  1.00  0.00     0.105 C 
BRANCH   3   4
HETATM    4  C6  UNL     1      24.596   2.876  53.414  1.00  0.00     0.054 C 
BRANCH   4   5
HETATM    5  C5  UNL     1      25.693   1.852  53.327  1.00  0.00    -0.057 A 
HETATM    6  C4  UNL     1      25.308   0.522  53.125  1.00  0.00     0.010 A 
HETATM    7  C3  UNL     1      26.206  -0.522  53.026  1.00  0.00     0.037 A 
HETATM    8  C2  UNL     1      27.548  -0.257  53.128  1.00  0.00     0.068 A 
HETATM    9  C15 UNL     1      27.943   1.059  53.328  1.00  0.00     0.037 A 
HETATM   10  C14 UNL     1      27.051   2.108  53.428  1.00  0.00     0.010 A 
BRANCH   8  11
HETATM   11  O1  UNL     1      28.553  -1.201  53.048  1.00  0.00    -0.356 OA
HETATM   12  C1  UNL     1      29.815  -1.022  53.647  1.00  0.00     0.210 C 
ENDBRANCH   8  11
ENDBRANCH   4   5
ENDBRANCH   3   4
ENDBRANCH   1   3
BRANCH   1  13
HETATM   13  S1  UNL     1      25.043   4.069  49.725  1.00  0.00     0.045 S 
HETATM   14  O2  UNL     1      24.157   3.062  49.071  1.00  0.00    -0.252 OA
HETATM   15  C8  UNL     1      24.841   5.519  49.107  1.00  0.00     0.187 C 
HETATM   16  C9  UNL     1      25.940   6.470  49.474  1.00  0.00     0.056 C 
HETATM   17  C10 UNL     1      25.562   7.890  49.226  1.00  0.00     0.018 C 
HETATM   18  C11 UNL     1      27.118   6.033  48.667  1.00  0.00    -0.022 C 
HETATM   19  C12 UNL     1      27.444   4.745  48.695  1.00  0.00    -0.017 C 
HETATM   20  C13 UNL     1      26.754   3.665  49.454  1.00  0.00     0.142 C 
BRANCH  15  21
HETATM   21  O3  UNL     1      23.741   5.857  48.304  1.00  0.00    -0.372 OA
HETATM   22  H11 UNL     1      23.761   6.713  47.755  1.00  0.00     0.212 HD
ENDBRANCH  15  21
ENDBRANCH   1  13
TORSDOF 6
ENDMDL
MODEL 7
REMARK VINA RESULT:      -6.0      2.950      3.694
REMARK  6 active torsions:
REMARK  status: ('A' for Active; 'I' for Inactive)
REMARK    1  A    between atoms: O1_2  and  C2_3 
REMARK    2  A    between atoms: C5_6  and  C6_7 
REMARK    3  A    between atoms: C6_7  and  C7_8 
REMARK    4  A    between atoms: C7_8  and  N1_9 
REMARK    5  A    between atoms: N1_9  and  S1_10 
REMARK    6  A    between atoms: C8_12  and  O3_13 
ROOT
HETATM    1  N1  UNL     1      25.608   4.427  50.727  1.00  0.00    -0.250 NA
HETATM    2  H10 UNL     1      26.646   4.507  50.629  1.00  0.00     0.136 HD
ENDROOT
BRANCH   1   3
HETATM    3  C7  UNL     1      25.055   3.337  49.970  1.00  0.00     0.105 C 
BRANCH   3   4
HETATM    4  C6  UNL     1      24.145   2.504  50.856  1.00  0.00     0.054 C 
BRANCH   4   5
HETATM    5  C5  UNL     1      25.072   1.709  51.733  1.00  0.00    -0.057 A 
HETATM    6  C4  UNL     1      24.590   1.335  52.992  1.00  0.00     0.010 A 
HETATM    7  C3  UNL     1      25.329   0.605  53.901  1.00  0.00     0.037 A 
HETATM    8  C2  UNL     1      26.603   0.220  53.567  1.00  0.00     0.068 A 
HETATM    9  C15 UNL     1      27.091   0.585  52.320  1.00  0.00     0.037 A 
HETATM   10  C14 UNL     1      26.359   1.314  51.406  1.00  0.00     0.010 A 
BRANCH   8  11
HETATM   11  O1  UNL     1      27.451  -0.511  54.376  1.00  0.00    -0.356 OA
HETATM   12  C1  UNL     1      28.780  -0.122  54.633  1.00  0.00     0.210 C 
ENDBRANCH   8  11
ENDBRANCH   4   5
ENDBRANCH   3   4
ENDBRANCH   1   3
BRANCH   1  13
HETATM   13  S1  UNL     1      24.817   5.936  50.434  1.00  0.00     0.045 S 
HETATM   14  O2  UNL     1      24.141   6.458  51.657  1.00  0.00    -0.252 OA
HETATM   15  C8  UNL     1      25.954   6.923  49.924  1.00  0.00     0.187 C 
HETATM   16  C9  UNL     1      26.404   6.624  48.526  1.00  0.00     0.056 C 
HETATM   17  C10 UNL     1      27.701   7.282  48.200  1.00  0.00     0.018 C 
HETATM   18  C11 UNL     1      25.285   7.082  47.650  1.00  0.00    -0.022 C 
HETATM   19  C12 UNL     1      24.056   6.677  47.953  1.00  0.00    -0.017 C 
HETATM   20  C13 UNL     1      23.659   5.801  49.090  1.00  0.00     0.142 C 
BRANCH  15  21
HETATM   21  O3  UNL     1      26.470   7.960  50.715  1.00  0.00    -0.372 OA
HETATM   22  H11 UNL     1      25.921   8.324  51.490  1.00  0.00     0.212 HD
ENDBRANCH  15  21
ENDBRANCH   1  13
TORSDOF 6
ENDMDL
MODEL 8
REMARK VINA RESULT:      -6.0      3.061      5.691
REMARK  6 active torsions:
REMARK  status: ('A' for Active; 'I' for Inactive)
REMARK    1  A    between atoms: O1_2  and  C2_3 
REMARK    2  A    between atoms: C5_6  and  C6_7 
REMARK    3  A    between atoms: C6_7  and  C7_8 
REMARK    4  A    between atoms: C7_8  and  N1_9 
REMARK    5  A    between atoms: N1_9  and  S1_10 
REMARK    6  A    between atoms: C8_12  and  O3_13 
ROOT
HETATM    1  N1  UNL     1      21.140   2.256  50.467  1.00  0.00    -0.250 NA
HETATM    2  H10 UNL     1      21.454   1.268  50.328  1.00  0.00     0.136 HD
ENDROOT
BRANCH   1   3
HETATM    3  C7  UNL     1      21.690   3.161  49.495  1.00  0.00     0.105 C 
BRANCH   3   4
HETATM    4  C6  UNL     1      22.968   2.580  48.917  1.00  0.00     0.054 C 
BRANCH   4   5
HETATM    5  C5  UNL     1      23.980   3.688  49.012  1.00  0.00    -0.057 A 
HETATM    6  C4  UNL     1      23.573   4.959  48.595  1.00  0.00     0.010 A 
HETATM    7  C3  UNL     1      24.395   6.068  48.626  1.00  0.00     0.037 A 
HETATM    8  C2  UNL     1      25.680   5.931  49.087  1.00  0.00     0.068 A 
HETATM    9  C15 UNL     1      26.095   4.674  49.505  1.00  0.00     0.037 A 
HETATM   10  C14 UNL     1      25.280   3.561  49.477  1.00  0.00     0.010 A 
BRANCH   8  11
HETATM   11  O1  UNL     1      26.607   6.951  49.174  1.00  0.00    -0.356 OA
HETATM   12  C1  UNL     1      26.433   8.070  50.011  1.00  0.00     0.210 C 
ENDBRANCH   8  11
ENDBRANCH   4   5
ENDBRANCH   3   4
ENDBRANCH   1   3
BRANCH   1  13
HETATM   13  S1  UNL     1      21.370   2.780  52.098  1.00  0.00     0.045 S 
HETATM   14  O2  UNL     1      20.074   2.925  52.825  1.00  0.00    -0.252 OA
HETATM   15  C8  UNL     1      22.302   1.683  52.772  1.00  0.00     0.187 C 
HETATM   16  C9  UNL     1      23.724   1.757  52.306  1.00  0.00     0.056 C 
HETATM   17  C10 UNL     1      24.489   0.520  52.633  1.00  0.00     0.018 C 
HETATM   18  C11 UNL     1      24.286   2.976  52.959  1.00  0.00    -0.022 C 
HETATM   19  C12 UNL     1      23.593   4.106  52.860  1.00  0.00    -0.017 C 
HETATM   20  C13 UNL     1      22.293   4.298  52.158  1.00  0.00     0.142 C 
BRANCH  15  21
HETATM   21  O3  UNL     1      21.825   0.750  53.706  1.00  0.00    -0.372 OA
HETATM   22  H11 UNL     1      20.945   0.922  54.186  1.00  0.00     0.212 HD
ENDBRANCH  15  21
ENDBRANCH   1  13
TORSDOF 6
ENDMDL
MODEL 9
REMARK VINA RESULT:      -5.8      4.438      5.903
REMARK  6 active torsions:
REMARK  status: ('A' for Active; 'I' for Inactive)
REMARK    1  A    between atoms: O1_2  and  C2_3 
REMARK    2  A    between atoms: C5_6  and  C6_7 
REMARK    3  A    between atoms: C6_7  and  C7_8 
REMARK    4  A    between atoms: C7_8  and  N1_9 
REMARK    5  A    between atoms: N1_9  and  S1_10 
REMARK    6  A    between atoms: C8_12  and  O3_13 
ROOT
HETATM    1  N1  UNL     1      26.119   6.281  50.297  1.00  0.00    -0.250 NA
HETATM    2  H10 UNL     1      27.137   6.162  50.503  1.00  0.00     0.136 HD
ENDROOT
BRANCH   1   3
HETATM    3  C7  UNL     1      25.587   5.228  49.475  1.00  0.00     0.105 C 
BRANCH   3   4
HETATM    4  C6  UNL     1      26.559   4.061  49.440  1.00  0.00     0.054 C 
BRANCH   4   5
HETATM    5  C5  UNL     1      25.979   3.039  50.378  1.00  0.00    -0.057 A 
HETATM    6  C4  UNL     1      24.584   2.974  50.464  1.00  0.00     0.010 A 
HETATM    7  C3  UNL     1      23.915   2.086  51.281  1.00  0.00     0.037 A 
HETATM    8  C2  UNL     1      24.640   1.216  52.055  1.00  0.00     0.068 A 
HETATM    9  C15 UNL     1      26.026   1.271  51.977  1.00  0.00     0.037 A 
HETATM   10  C14 UNL     1      26.702   2.156  51.163  1.00  0.00     0.010 A 
BRANCH   8  11
HETATM   11  O1  UNL     1      24.104   0.278  52.915  1.00  0.00    -0.356 OA
HETATM   12  C1  UNL     1      22.718   0.141  53.124  1.00  0.00     0.210 C 
ENDBRANCH   8  11
ENDBRANCH   4   5
ENDBRANCH   3   4
ENDBRANCH   1   3
BRANCH   1  13
HETATM   13  S1  UNL     1      25.766   7.863  49.696  1.00  0.00     0.045 S 
HETATM   14  O2  UNL     1      24.636   8.499  50.434  1.00  0.00    -0.252 OA
HETATM   15  C8  UNL     1      27.113   8.692  49.857  1.00  0.00     0.187 C 
HETATM   16  C9  UNL     1      28.163   8.299  48.863  1.00  0.00     0.056 C 
HETATM   17  C10 UNL     1      29.517   8.787  49.251  1.00  0.00     0.018 C 
HETATM   18  C11 UNL     1      27.696   8.859  47.560  1.00  0.00    -0.022 C 
HETATM   19  C12 UNL     1      26.443   8.612  47.194  1.00  0.00    -0.017 C 
HETATM   20  C13 UNL     1      25.430   7.825  47.951  1.00  0.00     0.142 C 
BRANCH  15  21
HETATM   21  O3  UNL     1      27.283   9.684  50.833  1.00  0.00    -0.372 OA
HETATM   22  H11 UNL     1      26.873   9.560  51.755  1.00  0.00     0.212 HD
ENDBRANCH  15  21
ENDBRANCH   1  13
TORSDOF 6
ENDMDL
