MODEL 1
REMARK VINA RESULT:      -7.2      0.000      0.000
REMARK  6 active torsions:
REMARK  status: ('A' for Active; 'I' for Inactive)
REMARK    1  A    between atoms: N1_2  and  C2_3 
REMARK    2  A    between atoms: C3_4  and  C4_5 
REMARK    3  A    between atoms: C4_5  and  C5_6 
REMARK    4  A    between atoms: C8_9  and  O1_10 
REMARK    5  A    between atoms: O1_10  and  C9_11 
REMARK    6  A    between atoms: C9_11  and  C10_12 
ROOT
HETATM    1  C5  UNL     1      26.085   5.161  49.394  1.00  0.00    -0.053 A 
HETATM    2  C6  UNL     1      26.830   3.999  49.385  1.00  0.00     0.010 A 
HETATM    3  C7  UNL     1      26.520   2.879  50.126  1.00  0.00     0.039 A 
HETATM    4  C8  UNL     1      25.396   2.901  50.936  1.00  0.00     0.090 A 
HETATM    5  C16 UNL     1      24.628   4.055  50.966  1.00  0.00     0.068 A 
HETATM    6 CL1  UNL     1      23.205   4.098  51.985  1.00  0.00    -0.081 Cl
HETATM    7  C17 UNL     1      24.970   5.172  50.203  1.00  0.00     0.034 A 
ENDROOT
BRANCH   4   8
HETATM    8  O1  UNL     1      25.047   1.789  51.703  1.00  0.00    -0.345 OA
BRANCH   8   9
HETATM    9  C9  UNL     1      25.522   1.684  53.008  1.00  0.00     0.214 C 
BRANCH   9  10
HETATM   10  C10 UNL     1      26.757   0.890  53.164  1.00  0.00    -0.034 A 
HETATM   11  C11 UNL     1      26.868  -0.460  52.890  1.00  0.00     0.012 A 
HETATM   12  C12 UNL     1      28.097  -1.050  53.090  1.00  0.00     0.043 A 
HETATM   13  C13 UNL     1      29.223  -0.393  53.544  1.00  0.00     0.116 A 
HETATM   14  F1  UNL     1      30.415  -1.009  53.729  1.00  0.00    -0.206 F 
HETATM   15  C14 UNL     1      29.109   0.964  53.820  1.00  0.00     0.043 A 
HETATM   16  C15 UNL     1      27.882   1.584  53.626  1.00  0.00     0.012 A 
ENDBRANCH   9  10
ENDBRANCH   8   9
ENDBRANCH   4   8
BRANCH   1  17
HETATM   17  C4  UNL     1      26.550   6.277  48.543  1.00  0.00     0.067 C 
BRANCH  17  18
HETATM   18  C3  UNL     1      27.973   6.064  48.188  1.00  0.00    -0.003 C 
HETATM   19  C2  UNL     1      28.864   7.057  48.343  1.00  0.00     0.111 C 
BRANCH  19  20
HETATM   20  N1  UNL     1      28.100   8.142  48.857  1.00  0.00    -0.284 NA
HETATM   21  C1  UNL     1      28.653   9.206  49.355  1.00  0.00     0.148 C 
ENDBRANCH  19  20
ENDBRANCH  17  18
ENDBRANCH   1  17
TORSDOF 6
ENDMDL
MODEL 2
REMARK VINA RESULT:      -7.1      6.424      8.701
REMARK  6 active torsions:
REMARK  status: ('A' for Active; 'I' for Inactive)
REMARK    1  A    between atoms: N1_2  and  C2_3 
REMARK    2  A    between atoms: C3_4  and  C4_5 
REMARK    3  A    between atoms: C4_5  and  C5_6 
REMARK    4  A    between atoms: C8_9  and  O1_10 
REMARK    5  A    between atoms: O1_10  and  C9_11 
REMARK    6  A    between atoms: C9_11  and  C10_12 
ROOT
HETATM    1  C5  UNL     1      25.209   0.270  52.962  1.00  0.00    -0.053 A 
HETATM    2  C6  UNL     1      24.574   1.208  52.174  1.00  0.00     0.010 A 
HETATM    3  C7  UNL     1      23.210   1.409  52.162  1.00  0.00     0.039 A 
HETATM    4  C8  UNL     1      22.411   0.630  52.985  1.00  0.00     0.090 A 
HETATM    5  C16 UNL     1      23.023  -0.321  53.787  1.00  0.00     0.068 A 
HETATM    6 CL1  UNL     1      22.026  -1.313  54.832  1.00  0.00    -0.081 Cl
HETATM    7  C17 UNL     1      24.406  -0.499  53.775  1.00  0.00     0.034 A 
ENDROOT
BRANCH   4   8
HETATM    8  O1  UNL     1      21.027   0.800  53.004  1.00  0.00    -0.345 OA
BRANCH   8   9
HETATM    9  C9  UNL     1      20.307   0.662  51.820  1.00  0.00     0.214 C 
BRANCH   9  10
HETATM   10  C10 UNL     1      19.008  -0.027  51.952  1.00  0.00    -0.034 A 
HETATM   11  C11 UNL     1      17.966   0.072  51.050  1.00  0.00     0.012 A 
HETATM   12  C12 UNL     1      16.818  -0.638  51.325  1.00  0.00     0.043 A 
HETATM   13  C13 UNL     1      16.632  -1.440  52.432  1.00  0.00     0.116 A 
HETATM   14  F1  UNL     1      15.486  -2.123  52.668  1.00  0.00    -0.206 F 
HETATM   15  C14 UNL     1      17.680  -1.538  53.339  1.00  0.00     0.043 A 
HETATM   16  C15 UNL     1      18.849  -0.833  53.086  1.00  0.00     0.012 A 
ENDBRANCH   9  10
ENDBRANCH   8   9
ENDBRANCH   4   8
BRANCH   1  17
HETATM   17  C4  UNL     1      26.682   0.176  52.859  1.00  0.00     0.067 C 
BRANCH  17  18
HETATM   18  C3  UNL     1      27.297   0.780  54.065  1.00  0.00    -0.003 C 
HETATM   19  C2  UNL     1      28.330   0.173  54.672  1.00  0.00     0.111 C 
BRANCH  19  20
HETATM   20  N1  UNL     1      28.559  -0.998  53.898  1.00  0.00    -0.284 NA
HETATM   21  C1  UNL     1      29.752  -1.400  53.583  1.00  0.00     0.148 C 
ENDBRANCH  19  20
ENDBRANCH  17  18
ENDBRANCH   1  17
TORSDOF 6
ENDMDL
MODEL 3
REMARK VINA RESULT:      -7.1      6.388      8.818
REMARK  6 active torsions:
REMARK  status: ('A' for Active; 'I' for Inactive)
REMARK    1  A    between atoms: N1_2  and  C2_3 
REMARK    2  A    between atoms: C3_4  and  C4_5 
REMARK    3  A    between atoms: C4_5  and  C5_6 
REMARK    4  A    between atoms: C8_9  and  O1_10 
REMARK    5  A    between atoms: O1_10  and  C9_11 
REMARK    6  A    between atoms: C9_11  and  C10_12 
ROOT
HETATM    1  C5  UNL     1      19.605  -0.881  53.200  1.00  0.00    -0.053 A 
HETATM    2  C6  UNL     1      20.455  -1.470  54.114  1.00  0.00     0.010 A 
HETATM    3  C7  UNL     1      21.821  -1.285  54.126  1.00  0.00     0.039 A 
HETATM    4  C8  UNL     1      22.394  -0.460  53.170  1.00  0.00     0.090 A 
HETATM    5  C16 UNL     1      21.564   0.144  52.239  1.00  0.00     0.068 A 
HETATM    6 CL1  UNL     1      22.274   1.187  51.024  1.00  0.00    -0.081 Cl
HETATM    7  C17 UNL     1      20.185  -0.065  52.254  1.00  0.00     0.034 A 
ENDROOT
BRANCH   4   8
HETATM    8  O1  UNL     1      23.773  -0.246  53.147  1.00  0.00    -0.345 OA
BRANCH   8   9
HETATM    9  C9  UNL     1      24.522  -0.502  54.292  1.00  0.00     0.214 C 
BRANCH   9  10
HETATM   10  C10 UNL     1      25.986  -0.497  54.099  1.00  0.00    -0.034 A 
HETATM   11  C11 UNL     1      26.884   0.202  54.883  1.00  0.00     0.012 A 
HETATM   12  C12 UNL     1      28.220   0.099  54.565  1.00  0.00     0.043 A 
HETATM   13  C13 UNL     1      28.727  -0.650  53.523  1.00  0.00     0.116 A 
HETATM   14  F1  UNL     1      30.050  -0.726  53.241  1.00  0.00    -0.206 F 
HETATM   15  C14 UNL     1      27.823  -1.351  52.734  1.00  0.00     0.043 A 
HETATM   16  C15 UNL     1      26.470  -1.265  53.033  1.00  0.00     0.012 A 
ENDBRANCH   9  10
ENDBRANCH   8   9
ENDBRANCH   4   8
BRANCH   1  17
HETATM   17  C4  UNL     1      18.161  -1.181  53.319  1.00  0.00     0.067 C 
BRANCH  17  18
HETATM   18  C3  UNL     1      17.985  -2.606  53.684  1.00  0.00    -0.003 C 
HETATM   19  C2  UNL     1      16.891  -3.276  53.282  1.00  0.00     0.111 C 
BRANCH  19  20
HETATM   20  N1  UNL     1      16.140  -2.319  52.545  1.00  0.00    -0.284 NA
HETATM   21  C1  UNL     1      14.888  -2.497  52.250  1.00  0.00     0.148 C 
ENDBRANCH  19  20
ENDBRANCH  17  18
ENDBRANCH   1  17
TORSDOF 6
ENDMDL
MODEL 4
REMARK VINA RESULT:      -6.9      3.092      3.796
REMARK  6 active torsions:
REMARK  status: ('A' for Active; 'I' for Inactive)
REMARK    1  A    between atoms: N1_2  and  C2_3 
REMARK    2  A    between atoms: C3_4  and  C4_5 
REMARK    3  A    between atoms: C4_5  and  C5_6 
REMARK    4  A    between atoms: C8_9  and  O1_10 
REMARK    5  A    between atoms: O1_10  and  C9_11 
REMARK    6  A    between atoms: C9_11  and  C10_12 
ROOT
HETATM    1  C5  UNL     1      27.167   5.742  48.770  1.00  0.00    -0.053 A 
HETATM    2  C6  UNL     1      27.147   4.371  48.935  1.00  0.00     0.010 A 
HETATM    3  C7  UNL     1      26.177   3.694  49.644  1.00  0.00     0.039 A 
HETATM    4  C8  UNL     1      25.151   4.416  50.233  1.00  0.00     0.090 A 
HETATM    5  C16 UNL     1      25.146   5.795  50.084  1.00  0.00     0.068 A 
HETATM    6 CL1  UNL     1      23.856   6.720  50.823  1.00  0.00    -0.081 Cl
HETATM    7  C17 UNL     1      26.143   6.449  49.360  1.00  0.00     0.034 A 
ENDROOT
BRANCH   4   8
HETATM    8  O1  UNL     1      24.150   3.771  50.959  1.00  0.00    -0.345 OA
BRANCH   8   9
HETATM    9  C9  UNL     1      23.610   2.584  50.468  1.00  0.00     0.214 C 
BRANCH   9  10
HETATM   10  C10 UNL     1      23.407   1.524  51.475  1.00  0.00    -0.034 A 
HETATM   11  C11 UNL     1      24.353   1.117  52.396  1.00  0.00     0.012 A 
HETATM   12  C12 UNL     1      24.001   0.111  53.268  1.00  0.00     0.043 A 
HETATM   13  C13 UNL     1      22.774  -0.521  53.290  1.00  0.00     0.116 A 
HETATM   14  F1  UNL     1      22.465  -1.508  54.163  1.00  0.00    -0.206 F 
HETATM   15  C14 UNL     1      21.824  -0.112  52.363  1.00  0.00     0.043 A 
HETATM   16  C15 UNL     1      22.152   0.902  51.472  1.00  0.00     0.012 A 
ENDBRANCH   9  10
ENDBRANCH   8   9
ENDBRANCH   4   8
BRANCH   1  17
HETATM   17  C4  UNL     1      28.278   6.318  47.982  1.00  0.00     0.067 C 
BRANCH  17  18
HETATM   18  C3  UNL     1      29.501   5.507  48.192  1.00  0.00    -0.003 C 
HETATM   19  C2  UNL     1      30.641   6.095  48.590  1.00  0.00     0.111 C 
BRANCH  19  20
HETATM   20  N1  UNL     1      30.308   7.473  48.707  1.00  0.00    -0.284 NA
HETATM   21  C1  UNL     1      31.170   8.365  49.092  1.00  0.00     0.148 C 
ENDBRANCH  19  20
ENDBRANCH  17  18
ENDBRANCH   1  17
TORSDOF 6
ENDMDL
MODEL 5
REMARK VINA RESULT:      -6.8      3.243      3.934
REMARK  6 active torsions:
REMARK  status: ('A' for Active; 'I' for Inactive)
REMARK    1  A    between atoms: N1_2  and  C2_3 
REMARK    2  A    between atoms: C3_4  and  C4_5 
REMARK    3  A    between atoms: C4_5  and  C5_6 
REMARK    4  A    between atoms: C8_9  and  O1_10 
REMARK    5  A    between atoms: O1_10  and  C9_11 
REMARK    6  A    between atoms: C9_11  and  C10_12 
ROOT
HETATM    1  C5  UNL     1      26.343   4.999  49.118  1.00  0.00    -0.053 A 
HETATM    2  C6  UNL     1      24.974   5.092  48.966  1.00  0.00     0.010 A 
HETATM    3  C7  UNL     1      24.077   4.179  49.478  1.00  0.00     0.039 A 
HETATM    4  C8  UNL     1      24.561   3.094  50.193  1.00  0.00     0.090 A 
HETATM    5  C16 UNL     1      25.932   2.974  50.361  1.00  0.00     0.068 A 
HETATM    6 CL1  UNL     1      26.557   1.608  51.260  1.00  0.00    -0.081 Cl
HETATM    7  C17 UNL     1      26.812   3.916  49.829  1.00  0.00     0.034 A 
ENDROOT
BRANCH   4   8
HETATM    8  O1  UNL     1      23.688   2.146  50.727  1.00  0.00    -0.345 OA
BRANCH   8   9
HETATM    9  C9  UNL     1      23.005   2.436  51.906  1.00  0.00     0.214 C 
BRANCH   9  10
HETATM   10  C10 UNL     1      22.684   1.267  52.749  1.00  0.00    -0.034 A 
HETATM   11  C11 UNL     1      21.414   0.918  53.165  1.00  0.00     0.012 A 
HETATM   12  C12 UNL     1      21.289  -0.206  53.951  1.00  0.00     0.043 A 
HETATM   13  C13 UNL     1      22.337  -1.007  54.354  1.00  0.00     0.116 A 
HETATM   14  F1  UNL     1      22.174  -2.106  55.129  1.00  0.00    -0.206 F 
HETATM   15  C14 UNL     1      23.614  -0.655  53.936  1.00  0.00     0.043 A 
HETATM   16  C15 UNL     1      23.769   0.474  53.142  1.00  0.00     0.012 A 
ENDBRANCH   9  10
ENDBRANCH   8   9
ENDBRANCH   4   8
BRANCH   1  17
HETATM   17  C4  UNL     1      27.171   6.061  48.507  1.00  0.00     0.067 C 
BRANCH  17  18
HETATM   18  C3  UNL     1      28.538   5.539  48.267  1.00  0.00    -0.003 C 
HETATM   19  C2  UNL     1      29.587   6.378  48.249  1.00  0.00     0.111 C 
BRANCH  19  20
HETATM   20  N1  UNL     1      29.021   7.660  48.490  1.00  0.00    -0.284 NA
HETATM   21  C1  UNL     1      29.532   8.748  47.998  1.00  0.00     0.148 C 
ENDBRANCH  19  20
ENDBRANCH  17  18
ENDBRANCH   1  17
TORSDOF 6
ENDMDL
MODEL 6
REMARK VINA RESULT:      -6.8      4.737      6.794
REMARK  6 active torsions:
REMARK  status: ('A' for Active; 'I' for Inactive)
REMARK    1  A    between atoms: N1_2  and  C2_3 
REMARK    2  A    between atoms: C3_4  and  C4_5 
REMARK    3  A    between atoms: C4_5  and  C5_6 
REMARK    4  A    between atoms: C8_9  and  O1_10 
REMARK    5  A    between atoms: O1_10  and  C9_11 
REMARK    6  A    between atoms: C9_11  and  C10_12 
ROOT
HETATM    1  C5  UNL     1      21.382   0.984  51.230  1.00  0.00    -0.053 A 
HETATM    2  C6  UNL     1      22.150   0.532  52.285  1.00  0.00     0.010 A 
HETATM    3  C7  UNL     1      23.480   0.850  52.462  1.00  0.00     0.039 A 
HETATM    4  C8  UNL     1      24.101   1.672  51.535  1.00  0.00     0.090 A 
HETATM    5  C16 UNL     1      23.355   2.140  50.465  1.00  0.00     0.068 A 
HETATM    6 CL1  UNL     1      24.126   3.179  49.285  1.00  0.00    -0.081 Cl
HETATM    7  C17 UNL     1      22.010   1.800  50.314  1.00  0.00     0.034 A 
ENDROOT
BRANCH   4   8
HETATM    8  O1  UNL     1      25.445   2.019  51.676  1.00  0.00    -0.345 OA
BRANCH   8   9
HETATM    9  C9  UNL     1      26.010   2.055  52.949  1.00  0.00     0.214 C 
BRANCH   9  10
HETATM   10  C10 UNL     1      27.118   1.105  53.171  1.00  0.00    -0.034 A 
HETATM   11  C11 UNL     1      27.062  -0.250  52.909  1.00  0.00     0.012 A 
HETATM   12  C12 UNL     1      28.189  -0.996  53.175  1.00  0.00     0.043 A 
HETATM   13  C13 UNL     1      29.368  -0.491  53.682  1.00  0.00     0.116 A 
HETATM   14  F1  UNL     1      30.456  -1.258  53.931  1.00  0.00    -0.206 F 
HETATM   15  C14 UNL     1      29.423   0.872  53.946  1.00  0.00     0.043 A 
HETATM   16  C15 UNL     1      28.301   1.648  53.687  1.00  0.00     0.012 A 
ENDBRANCH   9  10
ENDBRANCH   8   9
ENDBRANCH   4   8
BRANCH   1  17
HETATM   17  C4  UNL     1      19.969   0.552  51.180  1.00  0.00     0.067 C 
BRANCH  17  18
HETATM   18  C3  UNL     1      19.586  -0.025  52.491  1.00  0.00    -0.003 C 
HETATM   19  C2  UNL     1      18.397  -0.633  52.640  1.00  0.00     0.111 C 
BRANCH  19  20
HETATM   20  N1  UNL     1      17.785  -0.534  51.359  1.00  0.00    -0.284 NA
HETATM   21  C1  UNL     1      16.513  -0.317  51.212  1.00  0.00     0.148 C 
ENDBRANCH  19  20
ENDBRANCH  17  18
ENDBRANCH   1  17
TORSDOF 6
ENDMDL
MODEL 7
REMARK VINA RESULT:      -6.8      5.388      7.723
REMARK  6 active torsions:
REMARK  status: ('A' for Active; 'I' for Inactive)
REMARK    1  A    between atoms: N1_2  and  C2_3 
REMARK    2  A    between atoms: C3_4  and  C4_5 
REMARK    3  A    between atoms: C4_5  and  C5_6 
REMARK    4  A    between atoms: C8_9  and  O1_10 
REMARK    5  A    between atoms: O1_10  and  C9_11 
REMARK    6  A    between atoms: C9_11  and  C10_12 
ROOT
HETATM    1  C5  UNL     1      24.888   0.295  53.326  1.00  0.00    -0.053 A 
HETATM    2  C6  UNL     1      23.752  -0.485  53.412  1.00  0.00     0.010 A 
HETATM    3  C7  UNL     1      22.474  -0.011  53.208  1.00  0.00     0.039 A 
HETATM    4  C8  UNL     1      22.298   1.328  52.896  1.00  0.00     0.090 A 
HETATM    5  C16 UNL     1      23.421   2.136  52.803  1.00  0.00     0.068 A 
HETATM    6 CL1  UNL     1      23.215   3.830  52.411  1.00  0.00    -0.081 Cl
HETATM    7  C17 UNL     1      24.701   1.624  53.016  1.00  0.00     0.034 A 
ENDROOT
BRANCH   4   8
HETATM    8  O1  UNL     1      21.022   1.849  52.683  1.00  0.00    -0.345 OA
BRANCH   8   9
HETATM    9  C9  UNL     1      20.293   1.434  51.571  1.00  0.00     0.214 C 
BRANCH   9  10
HETATM   10  C10 UNL     1      20.785   1.939  50.274  1.00  0.00    -0.034 A 
HETATM   11  C11 UNL     1      20.698   3.253  49.854  1.00  0.00     0.012 A 
HETATM   12  C12 UNL     1      21.208   3.557  48.611  1.00  0.00     0.043 A 
HETATM   13  C13 UNL     1      21.796   2.649  47.755  1.00  0.00     0.116 A 
HETATM   14  F1  UNL     1      22.286   2.986  46.538  1.00  0.00    -0.206 F 
HETATM   15  C14 UNL     1      21.881   1.328  48.178  1.00  0.00     0.043 A 
HETATM   16  C15 UNL     1      21.376   0.993  49.428  1.00  0.00     0.012 A 
ENDBRANCH   9  10
ENDBRANCH   8   9
ENDBRANCH   4   8
BRANCH   1  17
HETATM   17  C4  UNL     1      26.189  -0.364  53.573  1.00  0.00     0.067 C 
BRANCH  17  18
HETATM   18  C3  UNL     1      26.901   0.350  54.659  1.00  0.00    -0.003 C 
HETATM   19  C2  UNL     1      28.206   0.117  54.879  1.00  0.00     0.111 C 
BRANCH  19  20
HETATM   20  N1  UNL     1      28.562  -0.853  53.901  1.00  0.00    -0.284 NA
HETATM   21  C1  UNL     1      29.798  -1.113  53.599  1.00  0.00     0.148 C 
ENDBRANCH  19  20
ENDBRANCH  17  18
ENDBRANCH   1  17
TORSDOF 6
ENDMDL
MODEL 8
REMARK VINA RESULT:      -6.8      3.686      4.587
REMARK  6 active torsions:
REMARK  status: ('A' for Active; 'I' for Inactive)
REMARK    1  A    between atoms: N1_2  and  C2_3 
REMARK    2  A    between atoms: C3_4  and  C4_5 
REMARK    3  A    between atoms: C4_5  and  C5_6 
REMARK    4  A    between atoms: C8_9  and  O1_10 
REMARK    5  A    between atoms: O1_10  and  C9_11 
REMARK    6  A    between atoms: C9_11  and  C10_12 
ROOT
HETATM    1  C5  UNL     1      25.712   4.507  50.019  1.00  0.00    -0.053 A 
HETATM    2  C6  UNL     1      26.328   3.353  50.458  1.00  0.00     0.010 A 
HETATM    3  C7  UNL     1      25.835   2.550  51.464  1.00  0.00     0.039 A 
HETATM    4  C8  UNL     1      24.649   2.908  52.086  1.00  0.00     0.090 A 
HETATM    5  C16 UNL     1      24.008   4.064  51.666  1.00  0.00     0.068 A 
HETATM    6 CL1  UNL     1      22.509   4.529  52.442  1.00  0.00    -0.081 Cl
HETATM    7  C17 UNL     1      24.534   4.854  50.644  1.00  0.00     0.034 A 
ENDROOT
BRANCH   4   8
HETATM    8  O1  UNL     1      24.115   2.125  53.109  1.00  0.00    -0.345 OA
BRANCH   8   9
HETATM    9  C9  UNL     1      24.086   0.740  52.963  1.00  0.00     0.214 C 
BRANCH   9  10
HETATM   10  C10 UNL     1      22.784   0.106  53.250  1.00  0.00    -0.034 A 
HETATM   11  C11 UNL     1      22.571  -0.860  54.215  1.00  0.00     0.012 A 
HETATM   12  C12 UNL     1      21.290  -1.348  54.353  1.00  0.00     0.043 A 
HETATM   13  C13 UNL     1      20.207  -0.946  53.600  1.00  0.00     0.116 A 
HETATM   14  F1  UNL     1      18.961  -1.452  53.765  1.00  0.00    -0.206 F 
HETATM   15  C14 UNL     1      20.422   0.023  52.629  1.00  0.00     0.043 A 
HETATM   16  C15 UNL     1      21.704   0.535  52.469  1.00  0.00     0.012 A 
ENDBRANCH   9  10
ENDBRANCH   8   9
ENDBRANCH   4   8
BRANCH   1  17
HETATM   17  C4  UNL     1      26.369   5.260  48.928  1.00  0.00     0.067 C 
BRANCH  17  18
HETATM   18  C3  UNL     1      27.730   4.715  48.707  1.00  0.00    -0.003 C 
HETATM   19  C2  UNL     1      28.732   5.530  48.341  1.00  0.00     0.111 C 
BRANCH  19  20
HETATM   20  N1  UNL     1      28.133   6.818  48.263  1.00  0.00    -0.284 NA
HETATM   21  C1  UNL     1      28.829   7.913  48.315  1.00  0.00     0.148 C 
ENDBRANCH  19  20
ENDBRANCH  17  18
ENDBRANCH   1  17
TORSDOF 6
ENDMDL
MODEL 9
REMARK VINA RESULT:      -6.6      6.249      8.331
REMARK  6 active torsions:
REMARK  status: ('A' for Active; 'I' for Inactive)
REMARK    1  A    between atoms: N1_2  and  C2_3 
REMARK    2  A    between atoms: C3_4  and  C4_5 
REMARK    3  A    between atoms: C4_5  and  C5_6 
REMARK    4  A    between atoms: C8_9  and  O1_10 
REMARK    5  A    between atoms: O1_10  and  C9_11 
REMARK    6  A    between atoms: C9_11  and  C10_12 
ROOT
HETATM    1  C5  UNL     1      19.179   0.090  51.990  1.00  0.00    -0.053 A 
HETATM    2  C6  UNL     1      20.105   0.511  51.057  1.00  0.00     0.010 A 
HETATM    3  C7  UNL     1      21.468   0.492  51.261  1.00  0.00     0.039 A 
HETATM    4  C8  UNL     1      21.958   0.025  52.471  1.00  0.00     0.090 A 
HETATM    5  C16 UNL     1      21.051  -0.405  53.427  1.00  0.00     0.068 A 
HETATM    6 CL1  UNL     1      21.655  -0.997  54.960  1.00  0.00    -0.081 Cl
HETATM    7  C17 UNL     1      19.677  -0.372  53.189  1.00  0.00     0.034 A 
ENDROOT
BRANCH   4   8
HETATM    8  O1  UNL     1      23.331  -0.011  52.719  1.00  0.00    -0.345 OA
BRANCH   8   9
HETATM    9  C9  UNL     1      23.972   1.138  53.173  1.00  0.00     0.214 C 
BRANCH   9  10
HETATM   10  C10 UNL     1      25.444   1.052  53.237  1.00  0.00    -0.034 A 
HETATM   11  C11 UNL     1      26.283   2.096  53.576  1.00  0.00     0.012 A 
HETATM   12  C12 UNL     1      27.637   1.846  53.588  1.00  0.00     0.043 A 
HETATM   13  C13 UNL     1      28.218   0.632  53.285  1.00  0.00     0.116 A 
HETATM   14  F1  UNL     1      29.556   0.424  53.307  1.00  0.00    -0.206 F 
HETATM   15  C14 UNL     1      27.373  -0.418  52.943  1.00  0.00     0.043 A 
HETATM   16  C15 UNL     1      26.003  -0.193  52.925  1.00  0.00     0.012 A 
ENDBRANCH   9  10
ENDBRANCH   8   9
ENDBRANCH   4   8
BRANCH   1  17
HETATM   17  C4  UNL     1      17.749   0.175  51.620  1.00  0.00     0.067 C 
BRANCH  17  18
HETATM   18  C3  UNL     1      17.033  -1.007  52.157  1.00  0.00    -0.003 C 
HETATM   19  C2  UNL     1      15.836  -0.859  52.748  1.00  0.00     0.111 C 
BRANCH  19  20
HETATM   20  N1  UNL     1      15.576   0.538  52.680  1.00  0.00    -0.284 NA
HETATM   21  C1  UNL     1      14.437   1.050  53.036  1.00  0.00     0.148 C 
ENDBRANCH  19  20
ENDBRANCH  17  18
ENDBRANCH   1  17
TORSDOF 6
ENDMDL
