MODEL 1
REMARK VINA RESULT:      -6.6      0.000      0.000
REMARK  8 active torsions:
REMARK  status: ('A' for Active; 'I' for Inactive)
REMARK    1  A    between atoms: O1_2  and  C2_3 
REMARK    2  A    between atoms: C2_3  and  C3_5 
REMARK    3  A    between atoms: C3_5  and  C4_6 
REMARK    4  A    between atoms: C4_6  and  S1_7 
REMARK    5  A    between atoms: S1_7  and  C5_8 
REMARK    6  A    between atoms: C5_8  and  C6_9 
REMARK    7  A    between atoms: C6_9  and  C7_10 
REMARK    8  A    between atoms: C7_10  and  O4_12 
ROOT
HETATM    1  S1  UNL     1      25.635   0.364  53.421  1.00  0.00    -0.206 SA
HETATM    2  C9  UNL     1      26.198   1.765  54.534  1.00  0.00     0.180 C 
HETATM    3  N1  UNL     1      27.530   1.898  53.982  1.00  0.00    -0.381 N 
HETATM    4  C10 UNL     1      28.165   0.668  53.721  1.00  0.00     0.044 A 
HETATM    5  C11 UNL     1      29.529   0.453  53.785  1.00  0.00     0.030 A 
HETATM    6  C12 UNL     1      30.045  -0.794  53.507  1.00  0.00     0.002 A 
HETATM    7  C13 UNL     1      29.166  -1.805  53.169  1.00  0.00     0.001 A 
HETATM    8  C14 UNL     1      27.800  -1.626  53.096  1.00  0.00     0.019 A 
HETATM    9  C15 UNL     1      27.344  -0.383  53.377  1.00  0.00     0.011 A 
HETATM   10  H17 UNL     1      27.919   2.869  53.820  1.00  0.00     0.160 HD
ENDROOT
BRANCH   1  11
HETATM   11  C4  UNL     1      24.419  -0.713  54.220  1.00  0.00     0.070 C 
BRANCH  11  12
HETATM   12  C3  UNL     1      23.048  -0.343  53.781  1.00  0.00     0.120 C 
BRANCH  12  13
HETATM   13  C2  UNL     1      22.099  -1.161  54.599  1.00  0.00     0.259 C 
HETATM   14  O2  UNL     1      22.759  -1.610  55.594  1.00  0.00    -0.265 OA
BRANCH  13  15
HETATM   15  O1  UNL     1      20.762  -1.343  54.257  1.00  0.00    -0.326 OA
HETATM   16  C1  UNL     1      20.089  -0.355  53.474  1.00  0.00     0.213 C 
ENDBRANCH  13  15
ENDBRANCH  12  13
ENDBRANCH  11  12
ENDBRANCH   1  11
BRANCH   1  17
HETATM   17  C5  UNL     1      25.147   0.949  51.790  1.00  0.00     0.070 C 
BRANCH  17  18
HETATM   18  C6  UNL     1      24.865   2.407  51.815  1.00  0.00     0.120 C 
BRANCH  18  19
HETATM   19  C7  UNL     1      25.895   3.160  51.039  1.00  0.00     0.259 C 
HETATM   20  O3  UNL     1      27.084   2.726  51.088  1.00  0.00    -0.265 OA
BRANCH  19  21
HETATM   21  O4  UNL     1      25.584   4.278  50.295  1.00  0.00    -0.326 OA
HETATM   22  C8  UNL     1      26.368   4.727  49.199  1.00  0.00     0.213 C 
ENDBRANCH  19  21
ENDBRANCH  18  19
ENDBRANCH  17  18
ENDBRANCH   1  17
TORSDOF 8
ENDMDL
MODEL 2
REMARK VINA RESULT:      -6.4      1.340      1.812
REMARK  8 active torsions:
REMARK  status: ('A' for Active; 'I' for Inactive)
REMARK    1  A    between atoms: O1_2  and  C2_3 
REMARK    2  A    between atoms: C2_3  and  C3_5 
REMARK    3  A    between atoms: C3_5  and  C4_6 
REMARK    4  A    between atoms: C4_6  and  S1_7 
REMARK    5  A    between atoms: S1_7  and  C5_8 
REMARK    6  A    between atoms: C5_8  and  C6_9 
REMARK    7  A    between atoms: C6_9  and  C7_10 
REMARK    8  A    between atoms: C7_10  and  O4_12 
ROOT
HETATM    1  S1  UNL     1      26.642   1.450  52.742  1.00  0.00    -0.206 SA
HETATM    2  C9  UNL     1      27.893   2.300  53.851  1.00  0.00     0.180 C 
HETATM    3  N1  UNL     1      29.048   1.542  53.418  1.00  0.00    -0.381 N 
HETATM    4  C10 UNL     1      28.801   0.164  53.261  1.00  0.00     0.044 A 
HETATM    5  C11 UNL     1      29.736  -0.834  53.456  1.00  0.00     0.030 A 
HETATM    6  C12 UNL     1      29.385  -2.154  53.272  1.00  0.00     0.002 A 
HETATM    7  C13 UNL     1      28.088  -2.439  52.892  1.00  0.00     0.001 A 
HETATM    8  C14 UNL     1      27.129  -1.468  52.688  1.00  0.00     0.019 A 
HETATM    9  C15 UNL     1      27.524  -0.188  52.882  1.00  0.00     0.011 A 
HETATM   10  H17 UNL     1      29.961   2.053  53.257  1.00  0.00     0.160 HD
ENDROOT
BRANCH   1  11
HETATM   11  C4  UNL     1      24.981   1.415  53.466  1.00  0.00     0.070 C 
BRANCH  11  12
HETATM   12  C3  UNL     1      24.080   0.585  52.625  1.00  0.00     0.120 C 
BRANCH  12  13
HETATM   13  C2  UNL     1      23.471  -0.439  53.531  1.00  0.00     0.259 C 
HETATM   14  O2  UNL     1      24.294  -0.625  54.488  1.00  0.00    -0.265 OA
BRANCH  13  15
HETATM   15  O1  UNL     1      22.232  -1.025  53.291  1.00  0.00    -0.326 OA
HETATM   16  C1  UNL     1      21.409  -1.421  54.389  1.00  0.00     0.213 C 
ENDBRANCH  13  15
ENDBRANCH  12  13
ENDBRANCH  11  12
ENDBRANCH   1  11
BRANCH   1  17
HETATM   17  C5  UNL     1      26.700   2.070  51.054  1.00  0.00     0.070 C 
BRANCH  17  18
HETATM   18  C6  UNL     1      25.815   3.252  50.895  1.00  0.00     0.120 C 
BRANCH  18  19
HETATM   19  C7  UNL     1      26.126   3.981  49.630  1.00  0.00     0.259 C 
HETATM   20  O3  UNL     1      25.167   4.583  49.062  1.00  0.00    -0.265 OA
BRANCH  19  21
HETATM   21  O4  UNL     1      27.394   4.011  49.090  1.00  0.00    -0.326 OA
HETATM   22  C8  UNL     1      27.966   5.173  48.507  1.00  0.00     0.213 C 
ENDBRANCH  19  21
ENDBRANCH  18  19
ENDBRANCH  17  18
ENDBRANCH   1  17
TORSDOF 8
ENDMDL
MODEL 3
REMARK VINA RESULT:      -6.3      2.550      5.635
REMARK  8 active torsions:
REMARK  status: ('A' for Active; 'I' for Inactive)
REMARK    1  A    between atoms: O1_2  and  C2_3 
REMARK    2  A    between atoms: C2_3  and  C3_5 
REMARK    3  A    between atoms: C3_5  and  C4_6 
REMARK    4  A    between atoms: C4_6  and  S1_7 
REMARK    5  A    between atoms: S1_7  and  C5_8 
REMARK    6  A    between atoms: C5_8  and  C6_9 
REMARK    7  A    between atoms: C6_9  and  C7_10 
REMARK    8  A    between atoms: C7_10  and  O4_12 
ROOT
HETATM    1  S1  UNL     1      25.495  -0.014  53.710  1.00  0.00    -0.206 SA
HETATM    2  C9  UNL     1      25.691  -0.291  55.554  1.00  0.00     0.180 C 
HETATM    3  N1  UNL     1      24.741  -1.378  55.666  1.00  0.00    -0.381 N 
HETATM    4  C10 UNL     1      23.560  -1.184  54.924  1.00  0.00     0.044 A 
HETATM    5  C11 UNL     1      22.316  -1.673  55.274  1.00  0.00     0.030 A 
HETATM    6  C12 UNL     1      21.225  -1.423  54.470  1.00  0.00     0.002 A 
HETATM    7  C13 UNL     1      21.415  -0.679  53.322  1.00  0.00     0.001 A 
HETATM    8  C14 UNL     1      22.642  -0.175  52.942  1.00  0.00     0.019 A 
HETATM    9  C15 UNL     1      23.682  -0.449  53.765  1.00  0.00     0.011 A 
HETATM   10  H17 UNL     1      24.989  -2.210  56.273  1.00  0.00     0.160 HD
ENDROOT
BRANCH   1  11
HETATM   11  C4  UNL     1      25.789   1.708  53.231  1.00  0.00     0.070 C 
BRANCH  11  12
HETATM   12  C3  UNL     1      25.512   1.884  51.781  1.00  0.00     0.120 C 
BRANCH  12  13
HETATM   13  C2  UNL     1      24.297   2.751  51.678  1.00  0.00     0.259 C 
HETATM   14  O2  UNL     1      23.924   2.725  50.458  1.00  0.00    -0.265 OA
BRANCH  13  15
HETATM   15  O1  UNL     1      23.748   3.422  52.767  1.00  0.00    -0.326 OA
HETATM   16  C1  UNL     1      23.358   4.789  52.634  1.00  0.00     0.213 C 
ENDBRANCH  13  15
ENDBRANCH  12  13
ENDBRANCH  11  12
ENDBRANCH   1  11
BRANCH   1  17
HETATM   17  C5  UNL     1      26.416  -1.220  52.742  1.00  0.00     0.070 C 
BRANCH  17  18
HETATM   18  C6  UNL     1      27.794  -0.738  52.472  1.00  0.00     0.120 C 
BRANCH  18  19
HETATM   19  C7  UNL     1      28.754  -1.287  53.475  1.00  0.00     0.259 C 
HETATM   20  O3  UNL     1      28.975  -2.534  53.438  1.00  0.00    -0.265 OA
BRANCH  19  21
HETATM   21  O4  UNL     1      29.384  -0.489  54.406  1.00  0.00    -0.326 OA
HETATM   22  C8  UNL     1      29.145   0.906  54.526  1.00  0.00     0.213 C 
ENDBRANCH  19  21
ENDBRANCH  18  19
ENDBRANCH  17  18
ENDBRANCH   1  17
TORSDOF 8
ENDMDL
MODEL 4
REMARK VINA RESULT:      -6.2      2.636      6.033
REMARK  8 active torsions:
REMARK  status: ('A' for Active; 'I' for Inactive)
REMARK    1  A    between atoms: O1_2  and  C2_3 
REMARK    2  A    between atoms: C2_3  and  C3_5 
REMARK    3  A    between atoms: C3_5  and  C4_6 
REMARK    4  A    between atoms: C4_6  and  S1_7 
REMARK    5  A    between atoms: S1_7  and  C5_8 
REMARK    6  A    between atoms: C5_8  and  C6_9 
REMARK    7  A    between atoms: C6_9  and  C7_10 
REMARK    8  A    between atoms: C7_10  and  O4_12 
ROOT
HETATM    1  S1  UNL     1      24.559   2.704  52.315  1.00  0.00    -0.206 SA
HETATM    2  C9  UNL     1      23.626   4.270  52.753  1.00  0.00     0.180 C 
HETATM    3  N1  UNL     1      23.485   4.770  51.402  1.00  0.00    -0.381 N 
HETATM    4  C10 UNL     1      24.645   4.623  50.615  1.00  0.00     0.044 A 
HETATM    5  C11 UNL     1      25.021   5.476  49.594  1.00  0.00     0.030 A 
HETATM    6  C12 UNL     1      26.179   5.236  48.886  1.00  0.00     0.002 A 
HETATM    7  C13 UNL     1      26.937   4.133  49.227  1.00  0.00     0.001 A 
HETATM    8  C14 UNL     1      26.592   3.262  50.240  1.00  0.00     0.019 A 
HETATM    9  C15 UNL     1      25.446   3.541  50.904  1.00  0.00     0.011 A 
HETATM   10  H17 UNL     1      22.560   5.193  51.109  1.00  0.00     0.160 HD
ENDROOT
BRANCH   1  11
HETATM   11  C4  UNL     1      25.681   2.171  53.633  1.00  0.00     0.070 C 
BRANCH  11  12
HETATM   12  C3  UNL     1      26.100   0.763  53.403  1.00  0.00     0.120 C 
BRANCH  12  13
HETATM   13  C2  UNL     1      26.829   0.326  54.635  1.00  0.00     0.259 C 
HETATM   14  O2  UNL     1      26.085  -0.526  55.225  1.00  0.00    -0.265 OA
BRANCH  13  15
HETATM   15  O1  UNL     1      28.083   0.815  54.990  1.00  0.00    -0.326 OA
HETATM   16  C1  UNL     1      29.168   0.725  54.065  1.00  0.00     0.213 C 
ENDBRANCH  13  15
ENDBRANCH  12  13
ENDBRANCH  11  12
ENDBRANCH   1  11
BRANCH   1  17
HETATM   17  C5  UNL     1      23.463   1.410  51.709  1.00  0.00     0.070 C 
BRANCH  17  18
HETATM   18  C6  UNL     1      22.174   1.423  52.444  1.00  0.00     0.120 C 
BRANCH  18  19
HETATM   19  C7  UNL     1      21.867   0.072  53.001  1.00  0.00     0.259 C 
HETATM   20  O3  UNL     1      20.686  -0.360  52.847  1.00  0.00    -0.265 OA
BRANCH  19  21
HETATM   21  O4  UNL     1      22.814  -0.687  53.656  1.00  0.00    -0.326 OA
HETATM   22  C8  UNL     1      22.632  -1.195  54.970  1.00  0.00     0.213 C 
ENDBRANCH  19  21
ENDBRANCH  18  19
ENDBRANCH  17  18
ENDBRANCH   1  17
TORSDOF 8
ENDMDL
MODEL 5
REMARK VINA RESULT:      -6.1      2.936      5.587
REMARK  8 active torsions:
REMARK  status: ('A' for Active; 'I' for Inactive)
REMARK    1  A    between atoms: O1_2  and  C2_3 
REMARK    2  A    between atoms: C2_3  and  C3_5 
REMARK    3  A    between atoms: C3_5  and  C4_6 
REMARK    4  A    between atoms: C4_6  and  S1_7 
REMARK    5  A    between atoms: S1_7  and  C5_8 
REMARK    6  A    between atoms: C5_8  and  C6_9 
REMARK    7  A    between atoms: C6_9  and  C7_10 
REMARK    8  A    between atoms: C7_10  and  O4_12 
ROOT
HETATM    1  S1  UNL     1      24.110   1.405  52.337  1.00  0.00    -0.206 SA
HETATM    2  C9  UNL     1      22.926   1.265  50.890  1.00  0.00     0.180 C 
HETATM    3  N1  UNL     1      21.719   1.095  51.671  1.00  0.00    -0.381 N 
HETATM    4  C10 UNL     1      21.870   0.232  52.774  1.00  0.00     0.044 A 
HETATM    5  C11 UNL     1      20.869  -0.564  53.298  1.00  0.00     0.030 A 
HETATM    6  C12 UNL     1      21.127  -1.371  54.384  1.00  0.00     0.002 A 
HETATM    7  C13 UNL     1      22.399  -1.357  54.922  1.00  0.00     0.001 A 
HETATM    8  C14 UNL     1      23.422  -0.575  54.425  1.00  0.00     0.019 A 
HETATM    9  C15 UNL     1      23.117   0.200  53.358  1.00  0.00     0.011 A 
HETATM   10  H17 UNL     1      20.843   1.608  51.371  1.00  0.00     0.160 HD
ENDROOT
BRANCH   1  11
HETATM   11  C4  UNL     1      25.768   0.791  51.943  1.00  0.00     0.070 C 
BRANCH  11  12
HETATM   12  C3  UNL     1      26.770   1.428  52.836  1.00  0.00     0.120 C 
BRANCH  12  13
HETATM   13  C2  UNL     1      26.961   0.502  53.996  1.00  0.00     0.259 C 
HETATM   14  O2  UNL     1      26.602   1.138  55.042  1.00  0.00    -0.265 OA
BRANCH  13  15
HETATM   15  O1  UNL     1      27.448  -0.794  53.861  1.00  0.00    -0.326 OA
HETATM   16  C1  UNL     1      28.778  -1.007  53.385  1.00  0.00     0.213 C 
ENDBRANCH  13  15
ENDBRANCH  12  13
ENDBRANCH  11  12
ENDBRANCH   1  11
BRANCH   1  17
HETATM   17  C5  UNL     1      24.085   3.046  53.076  1.00  0.00     0.070 C 
BRANCH  17  18
HETATM   18  C6  UNL     1      23.974   4.094  52.030  1.00  0.00     0.120 C 
BRANCH  18  19
HETATM   19  C7  UNL     1      22.622   4.727  52.055  1.00  0.00     0.259 C 
HETATM   20  O3  UNL     1      21.680   4.053  52.567  1.00  0.00    -0.265 OA
BRANCH  19  21
HETATM   21  O4  UNL     1      22.390   5.988  51.549  1.00  0.00    -0.326 OA
HETATM   22  C8  UNL     1      21.362   6.275  50.612  1.00  0.00     0.213 C 
ENDBRANCH  19  21
ENDBRANCH  18  19
ENDBRANCH  17  18
ENDBRANCH   1  17
TORSDOF 8
ENDMDL
MODEL 6
REMARK VINA RESULT:      -5.8      2.764      5.773
REMARK  8 active torsions:
REMARK  status: ('A' for Active; 'I' for Inactive)
REMARK    1  A    between atoms: O1_2  and  C2_3 
REMARK    2  A    between atoms: C2_3  and  C3_5 
REMARK    3  A    between atoms: C3_5  and  C4_6 
REMARK    4  A    between atoms: C4_6  and  S1_7 
REMARK    5  A    between atoms: S1_7  and  C5_8 
REMARK    6  A    between atoms: C5_8  and  C6_9 
REMARK    7  A    between atoms: C6_9  and  C7_10 
REMARK    8  A    between atoms: C7_10  and  O4_12 
ROOT
HETATM    1  S1  UNL     1      24.436   2.691  51.905  1.00  0.00    -0.206 SA
HETATM    2  C9  UNL     1      23.646   4.262  52.556  1.00  0.00     0.180 C 
HETATM    3  N1  UNL     1      23.589   4.963  51.290  1.00  0.00    -0.381 N 
HETATM    4  C10 UNL     1      24.749   4.818  50.504  1.00  0.00     0.044 A 
HETATM    5  C11 UNL     1      25.230   5.768  49.623  1.00  0.00     0.030 A 
HETATM    6  C12 UNL     1      26.378   5.520  48.901  1.00  0.00     0.002 A 
HETATM    7  C13 UNL     1      27.019   4.310  49.086  1.00  0.00     0.001 A 
HETATM    8  C14 UNL     1      26.566   3.340  49.956  1.00  0.00     0.019 A 
HETATM    9  C15 UNL     1      25.435   3.632  50.642  1.00  0.00     0.011 A 
HETATM   10  H17 UNL     1      22.716   5.513  51.052  1.00  0.00     0.160 HD
ENDROOT
BRANCH   1  11
HETATM   11  C4  UNL     1      25.469   1.867  53.143  1.00  0.00     0.070 C 
BRANCH  11  12
HETATM   12  C3  UNL     1      26.127   0.677  52.543  1.00  0.00     0.120 C 
BRANCH  12  13
HETATM   13  C2  UNL     1      26.206  -0.360  53.620  1.00  0.00     0.259 C 
HETATM   14  O2  UNL     1      25.020  -0.794  53.803  1.00  0.00    -0.265 OA
BRANCH  13  15
HETATM   15  O1  UNL     1      27.395  -0.715  54.247  1.00  0.00    -0.326 OA
HETATM   16  C1  UNL     1      28.628  -0.631  53.531  1.00  0.00     0.213 C 
ENDBRANCH  13  15
ENDBRANCH  12  13
ENDBRANCH  11  12
ENDBRANCH   1  11
BRANCH   1  17
HETATM   17  C5  UNL     1      23.238   1.613  51.104  1.00  0.00     0.070 C 
BRANCH  17  18
HETATM   18  C6  UNL     1      22.436   0.875  52.111  1.00  0.00     0.120 C 
BRANCH  18  19
HETATM   19  C7  UNL     1      21.006   1.301  52.066  1.00  0.00     0.259 C 
HETATM   20  O3  UNL     1      20.189   0.518  51.496  1.00  0.00    -0.265 OA
BRANCH  19  21
HETATM   21  O4  UNL     1      20.574   2.489  52.616  1.00  0.00    -0.326 OA
HETATM   22  C8  UNL     1      20.018   3.547  51.849  1.00  0.00     0.213 C 
ENDBRANCH  19  21
ENDBRANCH  18  19
ENDBRANCH  17  18
ENDBRANCH   1  17
TORSDOF 8
ENDMDL
MODEL 7
REMARK VINA RESULT:      -5.8      2.710      6.367
REMARK  8 active torsions:
REMARK  status: ('A' for Active; 'I' for Inactive)
REMARK    1  A    between atoms: O1_2  and  C2_3 
REMARK    2  A    between atoms: C2_3  and  C3_5 
REMARK    3  A    between atoms: C3_5  and  C4_6 
REMARK    4  A    between atoms: C4_6  and  S1_7 
REMARK    5  A    between atoms: S1_7  and  C5_8 
REMARK    6  A    between atoms: C5_8  and  C6_9 
REMARK    7  A    between atoms: C6_9  and  C7_10 
REMARK    8  A    between atoms: C7_10  and  O4_12 
ROOT
HETATM    1  S1  UNL     1      24.372   3.171  51.575  1.00  0.00    -0.206 SA
HETATM    2  C9  UNL     1      23.558   4.790  52.056  1.00  0.00     0.180 C 
HETATM    3  N1  UNL     1      23.635   5.415  50.752  1.00  0.00    -0.381 N 
HETATM    4  C10 UNL     1      24.861   5.205  50.090  1.00  0.00     0.044 A 
HETATM    5  C11 UNL     1      25.443   6.093  49.205  1.00  0.00     0.030 A 
HETATM    6  C12 UNL     1      26.648   5.785  48.612  1.00  0.00     0.002 A 
HETATM    7  C13 UNL     1      27.243   4.578  48.927  1.00  0.00     0.001 A 
HETATM    8  C14 UNL     1      26.690   3.669  49.805  1.00  0.00     0.019 A 
HETATM    9  C15 UNL     1      25.506   4.019  50.361  1.00  0.00     0.011 A 
HETATM   10  H17 UNL     1      22.800   5.963  50.400  1.00  0.00     0.160 HD
ENDROOT
BRANCH   1  11
HETATM   11  C4  UNL     1      25.266   2.406  52.953  1.00  0.00     0.070 C 
BRANCH  11  12
HETATM   12  C3  UNL     1      26.317   1.494  52.430  1.00  0.00     0.120 C 
BRANCH  12  13
HETATM   13  C2  UNL     1      27.510   1.662  53.317  1.00  0.00     0.259 C 
HETATM   14  O2  UNL     1      28.341   2.397  52.687  1.00  0.00    -0.265 OA
BRANCH  13  15
HETATM   15  O1  UNL     1      27.606   1.084  54.579  1.00  0.00    -0.326 OA
HETATM   16  C1  UNL     1      28.639   0.135  54.848  1.00  0.00     0.213 C 
ENDBRANCH  13  15
ENDBRANCH  12  13
ENDBRANCH  11  12
ENDBRANCH   1  11
BRANCH   1  17
HETATM   17  C5  UNL     1      23.233   2.065  50.727  1.00  0.00     0.070 C 
BRANCH  17  18
HETATM   18  C6  UNL     1      21.861   2.197  51.279  1.00  0.00     0.120 C 
BRANCH  18  19
HETATM   19  C7  UNL     1      21.537   1.049  52.176  1.00  0.00     0.259 C 
HETATM   20  O3  UNL     1      22.451   0.193  52.369  1.00  0.00    -0.265 OA
BRANCH  19  21
HETATM   21  O4  UNL     1      20.305   0.910  52.779  1.00  0.00    -0.326 OA
HETATM   22  C8  UNL     1      19.834  -0.318  53.316  1.00  0.00     0.213 C 
ENDBRANCH  19  21
ENDBRANCH  18  19
ENDBRANCH  17  18
ENDBRANCH   1  17
TORSDOF 8
ENDMDL
MODEL 8
REMARK VINA RESULT:      -5.7      2.076      2.462
REMARK  8 active torsions:
REMARK  status: ('A' for Active; 'I' for Inactive)
REMARK    1  A    between atoms: O1_2  and  C2_3 
REMARK    2  A    between atoms: C2_3  and  C3_5 
REMARK    3  A    between atoms: C3_5  and  C4_6 
REMARK    4  A    between atoms: C4_6  and  S1_7 
REMARK    5  A    between atoms: S1_7  and  C5_8 
REMARK    6  A    between atoms: C5_8  and  C6_9 
REMARK    7  A    between atoms: C6_9  and  C7_10 
REMARK    8  A    between atoms: C7_10  and  O4_12 
ROOT
HETATM    1  S1  UNL     1      25.473   1.638  52.231  1.00  0.00    -0.206 SA
HETATM    2  C9  UNL     1      25.529   2.662  53.801  1.00  0.00     0.180 C 
HETATM    3  N1  UNL     1      26.959   2.579  54.009  1.00  0.00    -0.381 N 
HETATM    4  C10 UNL     1      27.497   1.299  53.771  1.00  0.00     0.044 A 
HETATM    5  C11 UNL     1      28.598   0.771  54.419  1.00  0.00     0.030 A 
HETATM    6  C12 UNL     1      29.041  -0.495  54.104  1.00  0.00     0.002 A 
HETATM    7  C13 UNL     1      28.360  -1.206  53.136  1.00  0.00     0.001 A 
HETATM    8  C14 UNL     1      27.258  -0.710  52.469  1.00  0.00     0.019 A 
HETATM    9  C15 UNL     1      26.862   0.539  52.814  1.00  0.00     0.011 A 
HETATM   10  H17 UNL     1      27.480   3.449  54.314  1.00  0.00     0.160 HD
ENDROOT
BRANCH   1  11
HETATM   11  C4  UNL     1      23.908   0.747  52.037  1.00  0.00     0.070 C 
BRANCH  11  12
HETATM   12  C3  UNL     1      22.950   1.170  53.092  1.00  0.00     0.120 C 
BRANCH  12  13
HETATM   13  C2  UNL     1      21.594   1.187  52.459  1.00  0.00     0.259 C 
HETATM   14  O2  UNL     1      21.644   0.405  51.452  1.00  0.00    -0.265 OA
BRANCH  13  15
HETATM   15  O1  UNL     1      20.537   1.948  52.948  1.00  0.00    -0.326 OA
HETATM   16  C1  UNL     1      19.659   2.611  52.037  1.00  0.00     0.213 C 
ENDBRANCH  13  15
ENDBRANCH  12  13
ENDBRANCH  11  12
ENDBRANCH   1  11
BRANCH   1  17
HETATM   17  C5  UNL     1      25.967   2.587  50.785  1.00  0.00     0.070 C 
BRANCH  17  18
HETATM   18  C6  UNL     1      24.802   3.289  50.190  1.00  0.00     0.120 C 
BRANCH  18  19
HETATM   19  C7  UNL     1      24.834   4.745  50.519  1.00  0.00     0.259 C 
HETATM   20  O3  UNL     1      25.654   5.463  49.873  1.00  0.00    -0.265 OA
BRANCH  19  21
HETATM   21  O4  UNL     1      24.016   5.302  51.479  1.00  0.00    -0.326 OA
HETATM   22  C8  UNL     1      22.815   4.691  51.929  1.00  0.00     0.213 C 
ENDBRANCH  19  21
ENDBRANCH  18  19
ENDBRANCH  17  18
ENDBRANCH   1  17
TORSDOF 8
ENDMDL
MODEL 9
REMARK VINA RESULT:      -5.7      2.418      5.329
REMARK  8 active torsions:
REMARK  status: ('A' for Active; 'I' for Inactive)
REMARK    1  A    between atoms: O1_2  and  C2_3 
REMARK    2  A    between atoms: C2_3  and  C3_5 
REMARK    3  A    between atoms: C3_5  and  C4_6 
REMARK    4  A    between atoms: C4_6  and  S1_7 
REMARK    5  A    between atoms: S1_7  and  C5_8 
REMARK    6  A    between atoms: C5_8  and  C6_9 
REMARK    7  A    between atoms: C6_9  and  C7_10 
REMARK    8  A    between atoms: C7_10  and  O4_12 
ROOT
HETATM    1  S1  UNL     1      25.408   1.941  52.323  1.00  0.00    -0.206 SA
HETATM    2  C9  UNL     1      26.458   2.231  50.797  1.00  0.00     0.180 C 
HETATM    3  N1  UNL     1      26.388   3.676  50.813  1.00  0.00    -0.381 N 
HETATM    4  C10 UNL     1      25.108   4.183  51.113  1.00  0.00     0.044 A 
HETATM    5  C11 UNL     1      24.598   5.376  50.636  1.00  0.00     0.030 A 
HETATM    6  C12 UNL     1      23.330   5.777  50.996  1.00  0.00     0.002 A 
HETATM    7  C13 UNL     1      22.599   4.959  51.836  1.00  0.00     0.001 A 
HETATM    8  C14 UNL     1      23.076   3.762  52.330  1.00  0.00     0.019 A 
HETATM    9  C15 UNL     1      24.328   3.414  51.947  1.00  0.00     0.011 A 
HETATM   10  H17 UNL     1      27.266   4.231  50.606  1.00  0.00     0.160 HD
ENDROOT
BRANCH   1  11
HETATM   11  C4  UNL     1      24.503   0.372  52.257  1.00  0.00     0.070 C 
BRANCH  11  12
HETATM   12  C3  UNL     1      23.689   0.205  53.489  1.00  0.00     0.120 C 
BRANCH  12  13
HETATM   13  C2  UNL     1      22.263   0.093  53.049  1.00  0.00     0.259 C 
HETATM   14  O2  UNL     1      22.231   0.402  51.812  1.00  0.00    -0.265 OA
BRANCH  13  15
HETATM   15  O1  UNL     1      21.231  -0.282  53.904  1.00  0.00    -0.326 OA
HETATM   16  C1  UNL     1      21.189  -1.612  54.423  1.00  0.00     0.213 C 
ENDBRANCH  13  15
ENDBRANCH  12  13
ENDBRANCH  11  12
ENDBRANCH   1  11
BRANCH   1  17
HETATM   17  C5  UNL     1      26.337   2.195  53.843  1.00  0.00     0.070 C 
BRANCH  17  18
HETATM   18  C6  UNL     1      27.730   1.703  53.699  1.00  0.00     0.120 C 
BRANCH  18  19
HETATM   19  C7  UNL     1      27.922   0.427  54.450  1.00  0.00     0.259 C 
HETATM   20  O3  UNL     1      26.897  -0.082  54.994  1.00  0.00    -0.265 OA
BRANCH  19  21
HETATM   21  O4  UNL     1      29.152  -0.186  54.559  1.00  0.00    -0.326 OA
HETATM   22  C8  UNL     1      29.662  -1.087  53.587  1.00  0.00     0.213 C 
ENDBRANCH  19  21
ENDBRANCH  18  19
ENDBRANCH  17  18
ENDBRANCH   1  17
TORSDOF 8
ENDMDL
