MODEL 1
REMARK VINA RESULT:      -6.7      0.000      0.000
REMARK  1 active torsions:
REMARK  status: ('A' for Active; 'I' for Inactive)
REMARK    1  A    between atoms: O1_2  and  C2_3 
ROOT
HETATM    1  C2  UNL     1      23.566   0.318  52.954  1.00  0.00     0.048 C 
HETATM    2  C3  UNL     1      22.865   0.939  51.997  1.00  0.00     0.010 C 
HETATM    3  C4  UNL     1      23.122   1.803  50.831  1.00  0.00     0.091 C 
HETATM    4  C5  UNL     1      23.459   3.230  51.134  1.00  0.00     0.165 C 
HETATM    5  C6  UNL     1      22.439   4.182  50.633  1.00  0.00     0.042 C 
HETATM    6  P1  UNL     1      22.602   5.828  50.626  1.00  0.00    -0.057 P 
HETATM    7  C7  UNL     1      23.896   7.050  51.143  1.00  0.00     0.070 C 
HETATM    8  C8  UNL     1      25.150   6.645  50.457  1.00  0.00    -0.024 C 
HETATM    9  C9  UNL     1      25.667   5.633  49.734  1.00  0.00    -0.009 C 
HETATM   10  C10 UNL     1      25.092   4.359  49.288  1.00  0.00     0.175 C 
HETATM   11  N1  UNL     1      24.721   3.492  50.402  1.00  0.00    -0.266 N 
HETATM   12  N2  UNL     1      26.091   3.102  50.369  1.00  0.00    -0.167 NA
HETATM   13  C11 UNL     1      26.761   2.262  51.144  1.00  0.00     0.255 C 
HETATM   14  N3  UNL     1      26.499   1.930  52.563  1.00  0.00    -0.243 NA
HETATM   15  C12 UNL     1      25.337   1.976  53.208  1.00  0.00     0.059 C 
HETATM   16  C13 UNL     1      24.543   3.209  53.458  1.00  0.00     0.141 C 
HETATM   17  N4  UNL     1      23.641   3.515  52.546  1.00  0.00    -0.262 NA
HETATM   18  C14 UNL     1      24.931   0.567  53.570  1.00  0.00     0.124 C 
ENDROOT
BRANCH   1  19
HETATM   19  O1  UNL     1      23.059  -0.789  53.594  1.00  0.00    -0.360 OA
HETATM   20  C1  UNL     1      22.064  -0.810  54.570  1.00  0.00     0.209 C 
ENDBRANCH   1  19
TORSDOF 1
ENDMDL
MODEL 2
REMARK VINA RESULT:      -6.4      2.580      4.589
REMARK  1 active torsions:
REMARK  status: ('A' for Active; 'I' for Inactive)
REMARK    1  A    between atoms: O1_2  and  C2_3 
ROOT
HETATM    1  C2  UNL     1      26.416   1.174  54.324  1.00  0.00     0.048 C 
HETATM    2  C3  UNL     1      25.876   2.257  53.752  1.00  0.00     0.010 C 
HETATM    3  C4  UNL     1      24.537   2.770  53.414  1.00  0.00     0.091 C 
HETATM    4  C5  UNL     1      23.877   2.146  52.224  1.00  0.00     0.165 C 
HETATM    5  C6  UNL     1      23.670   3.104  51.111  1.00  0.00     0.042 C 
HETATM    6  P1  UNL     1      22.797   2.791  49.742  1.00  0.00    -0.057 P 
HETATM    7  C7  UNL     1      21.834   1.361  49.062  1.00  0.00     0.070 C 
HETATM    8  C8  UNL     1      20.850   0.985  50.110  1.00  0.00    -0.024 C 
HETATM    9  C9  UNL     1      20.545   1.236  51.398  1.00  0.00    -0.009 C 
HETATM   10  C10 UNL     1      21.172   2.112  52.396  1.00  0.00     0.175 C 
HETATM   11  N1  UNL     1      22.542   1.716  52.704  1.00  0.00    -0.266 N 
HETATM   12  N2  UNL     1      21.925   0.807  53.611  1.00  0.00    -0.167 NA
HETATM   13  C11 UNL     1      22.463  -0.103  54.410  1.00  0.00     0.255 C 
HETATM   14  N3  UNL     1      23.726  -0.852  54.215  1.00  0.00    -0.243 NA
HETATM   15  C12 UNL     1      24.800  -0.470  53.529  1.00  0.00     0.059 C 
HETATM   16  C13 UNL     1      24.838  -0.225  52.062  1.00  0.00     0.141 C 
HETATM   17  N4  UNL     1      24.591   1.010  51.671  1.00  0.00    -0.262 NA
HETATM   18  C14 UNL     1      25.937  -0.257  54.498  1.00  0.00     0.124 C 
ENDROOT
BRANCH   1  19
HETATM   19  O1  UNL     1      27.657   1.231  54.914  1.00  0.00    -0.360 OA
HETATM   20  C1  UNL     1      28.643   0.246  54.887  1.00  0.00     0.209 C 
ENDBRANCH   1  19
TORSDOF 1
ENDMDL
MODEL 3
REMARK VINA RESULT:      -6.3      1.952      3.620
REMARK  1 active torsions:
REMARK  status: ('A' for Active; 'I' for Inactive)
REMARK    1  A    between atoms: O1_2  and  C2_3 
ROOT
HETATM    1  C2  UNL     1      23.598   0.499  53.050  1.00  0.00     0.048 C 
HETATM    2  C3  UNL     1      24.263   1.656  52.946  1.00  0.00     0.010 C 
HETATM    3  C4  UNL     1      23.959   3.088  52.777  1.00  0.00     0.091 C 
HETATM    4  C5  UNL     1      23.548   3.513  51.401  1.00  0.00     0.165 C 
HETATM    5  C6  UNL     1      24.517   4.443  50.772  1.00  0.00     0.042 C 
HETATM    6  P1  UNL     1      24.267   5.250  49.350  1.00  0.00    -0.057 P 
HETATM    7  C7  UNL     1      22.912   5.362  48.091  1.00  0.00     0.070 C 
HETATM    8  C8  UNL     1      21.680   5.727  48.835  1.00  0.00    -0.024 C 
HETATM    9  C9  UNL     1      21.215   5.848  50.093  1.00  0.00    -0.009 C 
HETATM   10  C10 UNL     1      21.855   5.630  51.396  1.00  0.00     0.175 C 
HETATM   11  N1  UNL     1      22.273   4.245  51.588  1.00  0.00    -0.266 N 
HETATM   12  N2  UNL     1      20.925   4.045  52.005  1.00  0.00    -0.167 NA
HETATM   13  C11 UNL     1      20.301   2.941  52.387  1.00  0.00     0.255 C 
HETATM   14  N3  UNL     1      20.583   1.548  51.969  1.00  0.00    -0.243 NA
HETATM   15  C12 UNL     1      21.743   1.040  51.561  1.00  0.00     0.059 C 
HETATM   16  C13 UNL     1      22.472   1.447  50.330  1.00  0.00     0.141 C 
HETATM   17  N4  UNL     1      23.355   2.416  50.469  1.00  0.00    -0.262 NA
HETATM   18  C14 UNL     1      22.222   0.047  52.592  1.00  0.00     0.124 C 
ENDROOT
BRANCH   1  19
HETATM   19  O1  UNL     1      24.162  -0.587  53.677  1.00  0.00    -0.360 OA
HETATM   20  C1  UNL     1      25.437  -0.661  54.238  1.00  0.00     0.209 C 
ENDBRANCH   1  19
TORSDOF 1
ENDMDL
MODEL 4
REMARK VINA RESULT:      -6.2      2.702      5.449
REMARK  1 active torsions:
REMARK  status: ('A' for Active; 'I' for Inactive)
REMARK    1  A    between atoms: O1_2  and  C2_3 
ROOT
HETATM    1  C2  UNL     1      24.758   6.332  50.371  1.00  0.00     0.048 C 
HETATM    2  C3  UNL     1      23.845   6.135  51.330  1.00  0.00     0.010 C 
HETATM    3  C4  UNL     1      23.452   5.074  52.274  1.00  0.00     0.091 C 
HETATM    4  C5  UNL     1      22.689   3.926  51.690  1.00  0.00     0.165 C 
HETATM    5  C6  UNL     1      21.306   3.827  52.215  1.00  0.00     0.042 C 
HETATM    6  P1  UNL     1      20.273   2.567  51.928  1.00  0.00    -0.057 P 
HETATM    7  C7  UNL     1      20.332   0.970  50.990  1.00  0.00     0.070 C 
HETATM    8  C8  UNL     1      21.527   0.240  51.483  1.00  0.00    -0.024 C 
HETATM    9  C9  UNL     1      22.622   0.420  52.249  1.00  0.00    -0.009 C 
HETATM   10  C10 UNL     1      23.111   1.587  52.993  1.00  0.00     0.175 C 
HETATM   11  N1  UNL     1      23.425   2.714  52.121  1.00  0.00    -0.266 N 
HETATM   12  N2  UNL     1      24.679   2.056  51.958  1.00  0.00    -0.167 NA
HETATM   13  C11 UNL     1      25.726   2.380  51.216  1.00  0.00     0.255 C 
HETATM   14  N3  UNL     1      25.738   3.136  49.942  1.00  0.00    -0.243 NA
HETATM   15  C12 UNL     1      24.860   4.045  49.528  1.00  0.00     0.059 C 
HETATM   16  C13 UNL     1      23.425   3.781  49.238  1.00  0.00     0.141 C 
HETATM   17  N4  UNL     1      22.587   3.951  50.242  1.00  0.00    -0.262 NA
HETATM   18  C14 UNL     1      25.546   5.389  49.478  1.00  0.00     0.124 C 
ENDROOT
BRANCH   1  19
HETATM   19  O1  UNL     1      25.154   7.601  50.022  1.00  0.00    -0.360 OA
HETATM   20  C1  UNL     1      26.453   8.108  50.041  1.00  0.00     0.209 C 
ENDBRANCH   1  19
TORSDOF 1
ENDMDL
MODEL 5
REMARK VINA RESULT:      -6.0      2.967      5.816
REMARK  1 active torsions:
REMARK  status: ('A' for Active; 'I' for Inactive)
REMARK    1  A    between atoms: O1_2  and  C2_3 
ROOT
HETATM    1  C2  UNL     1      24.777   5.881  50.445  1.00  0.00     0.048 C 
HETATM    2  C3  UNL     1      25.174   4.605  50.375  1.00  0.00     0.010 C 
HETATM    3  C4  UNL     1      24.585   3.283  50.100  1.00  0.00     0.091 C 
HETATM    4  C5  UNL     1      23.771   2.685  51.205  1.00  0.00     0.165 C 
HETATM    5  C6  UNL     1      24.365   1.441  51.750  1.00  0.00     0.042 C 
HETATM    6  P1  UNL     1      23.624   0.433  52.832  1.00  0.00    -0.057 P 
HETATM    7  C7  UNL     1      21.997   0.380  53.719  1.00  0.00     0.070 C 
HETATM    8  C8  UNL     1      20.948   0.482  52.673  1.00  0.00    -0.024 C 
HETATM    9  C9  UNL     1      20.801   0.744  51.360  1.00  0.00    -0.009 C 
HETATM   10  C10 UNL     1      21.779   1.076  50.316  1.00  0.00     0.175 C 
HETATM   11  N1  UNL     1      22.474   2.332  50.580  1.00  0.00    -0.266 N 
HETATM   12  N2  UNL     1      21.334   2.928  49.968  1.00  0.00    -0.167 NA
HETATM   13  C11 UNL     1      21.036   4.203  49.771  1.00  0.00     0.255 C 
HETATM   14  N3  UNL     1      21.449   5.369  50.585  1.00  0.00    -0.243 NA
HETATM   15  C12 UNL     1      22.540   5.491  51.337  1.00  0.00     0.059 C 
HETATM   16  C13 UNL     1      22.849   4.671  52.539  1.00  0.00     0.141 C 
HETATM   17  N4  UNL     1      23.549   3.573  52.332  1.00  0.00    -0.262 NA
HETATM   18  C14 UNL     1      23.435   6.538  50.719  1.00  0.00     0.124 C 
ENDROOT
BRANCH   1  19
HETATM   19  O1  UNL     1      25.668   6.911  50.250  1.00  0.00    -0.360 OA
HETATM   20  C1  UNL     1      25.362   8.258  50.059  1.00  0.00     0.209 C 
ENDBRANCH   1  19
TORSDOF 1
ENDMDL
MODEL 6
REMARK VINA RESULT:      -5.9      6.525      8.775
REMARK  1 active torsions:
REMARK  status: ('A' for Active; 'I' for Inactive)
REMARK    1  A    between atoms: O1_2  and  C2_3 
ROOT
HETATM    1  C2  UNL     1      28.187   5.433  48.449  1.00  0.00     0.048 C 
HETATM    2  C3  UNL     1      29.477   5.619  48.143  1.00  0.00     0.010 C 
HETATM    3  C4  UNL     1      30.496   6.676  48.270  1.00  0.00     0.091 C 
HETATM    4  C5  UNL     1      30.383   7.815  47.305  1.00  0.00     0.165 C 
HETATM    5  C6  UNL     1      31.535   7.899  46.375  1.00  0.00     0.042 C 
HETATM    6  P1  UNL     1      31.816   9.146  45.326  1.00  0.00    -0.057 P 
HETATM    7  C7  UNL     1      30.985  10.744  44.888  1.00  0.00     0.070 C 
HETATM    8  C8  UNL     1      30.812  11.488  46.162  1.00  0.00    -0.024 C 
HETATM    9  C9  UNL     1      30.919  11.320  47.494  1.00  0.00    -0.009 C 
HETATM   10  C10 UNL     1      31.308  10.159  48.304  1.00  0.00     0.175 C 
HETATM   11  N1  UNL     1      30.391   9.036  48.146  1.00  0.00    -0.266 N 
HETATM   12  N2  UNL     1      29.621   9.708  49.139  1.00  0.00    -0.167 NA
HETATM   13  C11 UNL     1      28.449   9.396  49.672  1.00  0.00     0.255 C 
HETATM   14  N3  UNL     1      27.340   8.639  49.047  1.00  0.00    -0.243 NA
HETATM   15  C12 UNL     1      27.420   7.721  48.088  1.00  0.00     0.059 C 
HETATM   16  C13 UNL     1      27.896   7.968  46.701  1.00  0.00     0.141 C 
HETATM   17  N4  UNL     1      29.184   7.789  46.486  1.00  0.00    -0.262 NA
HETATM   18  C14 UNL     1      27.024   6.385  48.669  1.00  0.00     0.124 C 
ENDROOT
BRANCH   1  19
HETATM   19  O1  UNL     1      27.679   4.168  48.628  1.00  0.00    -0.360 OA
HETATM   20  C1  UNL     1      26.615   3.801  49.451  1.00  0.00     0.209 C 
ENDBRANCH   1  19
TORSDOF 1
ENDMDL
MODEL 7
REMARK VINA RESULT:      -5.9      1.862      2.188
REMARK  1 active torsions:
REMARK  status: ('A' for Active; 'I' for Inactive)
REMARK    1  A    between atoms: O1_2  and  C2_3 
ROOT
HETATM    1  C2  UNL     1      23.848   0.774  52.873  1.00  0.00     0.048 C 
HETATM    2  C3  UNL     1      22.742   0.803  52.120  1.00  0.00     0.010 C 
HETATM    3  C4  UNL     1      22.313   1.338  50.815  1.00  0.00     0.091 C 
HETATM    4  C5  UNL     1      22.062   2.813  50.762  1.00  0.00     0.165 C 
HETATM    5  C6  UNL     1      20.644   3.147  50.488  1.00  0.00     0.042 C 
HETATM    6  P1  UNL     1      20.072   4.666  50.170  1.00  0.00    -0.057 P 
HETATM    7  C7  UNL     1      20.793   6.368  50.030  1.00  0.00     0.070 C 
HETATM    8  C8  UNL     1      21.895   6.275  49.038  1.00  0.00    -0.024 C 
HETATM    9  C9  UNL     1      22.609   5.362  48.351  1.00  0.00    -0.009 C 
HETATM   10  C10 UNL     1      22.553   3.895  48.326  1.00  0.00     0.175 C 
HETATM   11  N1  UNL     1      22.871   3.302  49.620  1.00  0.00    -0.266 N 
HETATM   12  N2  UNL     1      24.223   3.446  49.195  1.00  0.00    -0.167 NA
HETATM   13  C11 UNL     1      25.354   3.161  49.823  1.00  0.00     0.255 C 
HETATM   14  N3  UNL     1      25.609   3.166  51.282  1.00  0.00    -0.243 NA
HETATM   15  C12 UNL     1      24.732   2.963  52.261  1.00  0.00     0.059 C 
HETATM   16  C13 UNL     1      23.568   3.839  52.566  1.00  0.00     0.141 C 
HETATM   17  N4  UNL     1      22.434   3.527  51.970  1.00  0.00    -0.262 NA
HETATM   18  C14 UNL     1      25.075   1.665  52.952  1.00  0.00     0.124 C 
ENDROOT
BRANCH   1  19
HETATM   19  O1  UNL     1      24.039  -0.216  53.809  1.00  0.00    -0.360 OA
HETATM   20  C1  UNL     1      25.259  -0.695  54.284  1.00  0.00     0.209 C 
ENDBRANCH   1  19
TORSDOF 1
ENDMDL
MODEL 8
REMARK VINA RESULT:      -5.8      2.285      3.394
REMARK  1 active torsions:
REMARK  status: ('A' for Active; 'I' for Inactive)
REMARK    1  A    between atoms: O1_2  and  C2_3 
ROOT
HETATM    1  C2  UNL     1      20.821   1.144  52.704  1.00  0.00     0.048 C 
HETATM    2  C3  UNL     1      20.748   2.475  52.820  1.00  0.00     0.010 C 
HETATM    3  C4  UNL     1      20.686   3.654  51.938  1.00  0.00     0.091 C 
HETATM    4  C5  UNL     1      21.973   4.054  51.286  1.00  0.00     0.165 C 
HETATM    5  C6  UNL     1      22.457   5.383  51.732  1.00  0.00     0.042 C 
HETATM    6  P1  UNL     1      23.732   6.199  51.064  1.00  0.00    -0.057 P 
HETATM    7  C7  UNL     1      24.944   5.903  49.694  1.00  0.00     0.070 C 
HETATM    8  C8  UNL     1      24.140   5.608  48.481  1.00  0.00    -0.024 C 
HETATM    9  C9  UNL     1      22.873   5.346  48.104  1.00  0.00    -0.009 C 
HETATM   10  C10 UNL     1      21.628   5.239  48.873  1.00  0.00     0.175 C 
HETATM   11  N1  UNL     1      21.660   4.147  49.840  1.00  0.00    -0.266 N 
HETATM   12  N2  UNL     1      21.267   3.342  48.732  1.00  0.00    -0.167 NA
HETATM   13  C11 UNL     1      21.058   2.037  48.653  1.00  0.00     0.255 C 
HETATM   14  N3  UNL     1      21.693   0.965  49.454  1.00  0.00    -0.243 NA
HETATM   15  C12 UNL     1      22.188   1.055  50.686  1.00  0.00     0.059 C 
HETATM   16  C13 UNL     1      23.346   1.898  51.085  1.00  0.00     0.141 C 
HETATM   17  N4  UNL     1      23.064   3.119  51.495  1.00  0.00    -0.262 NA
HETATM   18  C14 UNL     1      21.330   0.223  51.609  1.00  0.00     0.124 C 
ENDROOT
BRANCH   1  19
HETATM   19  O1  UNL     1      20.378   0.321  53.713  1.00  0.00    -0.360 OA
HETATM   20  C1  UNL     1      20.977  -0.857  54.158  1.00  0.00     0.209 C 
ENDBRANCH   1  19
TORSDOF 1
ENDMDL
MODEL 9
REMARK VINA RESULT:      -5.7      8.975     10.093
REMARK  1 active torsions:
REMARK  status: ('A' for Active; 'I' for Inactive)
REMARK    1  A    between atoms: O1_2  and  C2_3 
ROOT
HETATM    1  C2  UNL     1      33.396   4.241  47.135  1.00  0.00     0.048 C 
HETATM    2  C3  UNL     1      32.382   4.834  46.495  1.00  0.00     0.010 C 
HETATM    3  C4  UNL     1      31.967   6.195  46.113  1.00  0.00     0.091 C 
HETATM    4  C5  UNL     1      31.412   7.044  47.213  1.00  0.00     0.165 C 
HETATM    5  C6  UNL     1      29.985   7.393  47.008  1.00  0.00     0.042 C 
HETATM    6  P1  UNL     1      29.132   8.472  47.927  1.00  0.00    -0.057 P 
HETATM    7  C7  UNL     1      29.481   9.563  49.384  1.00  0.00     0.070 C 
HETATM    8  C8  UNL     1      30.662  10.386  49.016  1.00  0.00    -0.024 C 
HETATM    9  C9  UNL     1      31.614  10.485  48.068  1.00  0.00    -0.009 C 
HETATM   10  C10 UNL     1      31.876   9.691  46.861  1.00  0.00     0.175 C 
HETATM   11  N1  UNL     1      32.196   8.301  47.165  1.00  0.00    -0.266 N 
HETATM   12  N2  UNL     1      33.519   8.796  47.356  1.00  0.00    -0.167 NA
HETATM   13  C11 UNL     1      34.624   8.167  47.728  1.00  0.00     0.255 C 
HETATM   14  N3  UNL     1      34.739   6.968  48.590  1.00  0.00    -0.243 NA
HETATM   15  C12 UNL     1      33.842   6.001  48.764  1.00  0.00     0.059 C 
HETATM   16  C13 UNL     1      32.495   6.180  49.370  1.00  0.00     0.141 C 
HETATM   17  N4  UNL     1      31.512   6.451  48.535  1.00  0.00    -0.262 NA
HETATM   18  C14 UNL     1      34.392   4.724  48.176  1.00  0.00     0.124 C 
ENDROOT
BRANCH   1  19
HETATM   19  O1  UNL     1      33.710   2.923  46.896  1.00  0.00    -0.360 OA
HETATM   20  C1  UNL     1      32.858   1.825  47.008  1.00  0.00     0.209 C 
ENDBRANCH   1  19
TORSDOF 1
ENDMDL
