MODEL 1
REMARK VINA RESULT:      -8.2      0.000      0.000
REMARK  11 active torsions:
REMARK  status: ('A' for Active; 'I' for Inactive)
REMARK    1  A    between atoms: C2_2  and  O1_3 
REMARK    2  A    between atoms: O1_3  and  C3_4 
REMARK    3  A    between atoms: C3_4  and  C4_6 
REMARK    4  A    between atoms: C4_6  and  N1_7 
REMARK    5  A    between atoms: N1_7  and  C5_8 
REMARK    6  A    between atoms: C5_8  and  C6_9 
REMARK    7  A    between atoms: C6_9  and  N2_10 
REMARK    8  A    between atoms: C8_14  and  C9_15 
REMARK    9  A    between atoms: C12_18  and  O3_19 
REMARK   10  A    between atoms: O3_19  and  C13_20 
REMARK   11  A    between atoms: C13_20  and  C14_21 
ROOT
HETATM    1  C5  UNL     1      18.384   1.639  50.456  1.00  0.00     0.224 A 
HETATM    2  C7  UNL     1      18.235   2.947  51.208  1.00  0.00     0.157 A 
HETATM    3  N3  UNL     1      18.895   3.584  52.139  1.00  0.00    -0.164 NA
HETATM    4  N4  UNL     1      20.054   2.900  52.571  1.00  0.00    -0.155 NA
HETATM    5  C8  UNL     1      20.349   1.748  52.025  1.00  0.00     0.070 A 
HETATM    6  C22 UNL     1      19.660   0.987  50.967  1.00  0.00     0.111 A 
ENDROOT
BRANCH   5   7
HETATM    7  C9  UNL     1      21.562   1.129  52.548  1.00  0.00    -0.008 A 
HETATM    8  C10 UNL     1      22.806   1.459  51.999  1.00  0.00     0.016 A 
HETATM    9  C11 UNL     1      23.997   0.903  52.458  1.00  0.00     0.039 A 
HETATM   10  C12 UNL     1      23.982  -0.005  53.481  1.00  0.00     0.090 A 
HETATM   11  C20 UNL     1      22.780  -0.332  54.021  1.00  0.00     0.068 A 
HETATM   12 CL1  UNL     1      22.736  -1.497  55.339  1.00  0.00    -0.081 Cl
HETATM   13  C21 UNL     1      21.600   0.210  53.577  1.00  0.00     0.040 A 
BRANCH  10  14
HETATM   14  O3  UNL     1      25.210  -0.525  53.893  1.00  0.00    -0.345 OA
BRANCH  14  15
HETATM   15  C13 UNL     1      26.137  -1.093  52.979  1.00  0.00     0.214 C 
BRANCH  15  16
HETATM   16  C14 UNL     1      27.502  -0.557  53.222  1.00  0.00    -0.031 A 
HETATM   17  C15 UNL     1      28.619  -1.360  53.283  1.00  0.00     0.009 A 
HETATM   18  C16 UNL     1      29.833  -0.736  53.512  1.00  0.00     0.004 A 
HETATM   19  C17 UNL     1      29.944   0.634  53.673  1.00  0.00     0.042 A 
HETATM   20  C18 UNL     1      28.791   1.405  53.602  1.00  0.00     0.117 A 
HETATM   21  F1  UNL     1      28.864   2.747  53.757  1.00  0.00    -0.206 F 
HETATM   22  C19 UNL     1      27.563   0.829  53.378  1.00  0.00     0.051 A 
ENDBRANCH  15  16
ENDBRANCH  14  15
ENDBRANCH  10  14
ENDBRANCH   5   7
BRANCH   1  23
HETATM   23  N1  UNL     1      17.241   0.847  50.769  1.00  0.00     0.109 NA
HETATM   24  H8  UNL     1      16.602   1.434  51.357  1.00  0.00     0.318 HD
BRANCH  23  25
HETATM   25  C4  UNL     1      17.526  -0.392  51.358  1.00  0.00     0.381 C 
BRANCH  25  26
HETATM   26  C3  UNL     1      16.691  -0.641  52.596  1.00  0.00     0.287 C 
HETATM   27  O2  UNL     1      15.465  -0.471  52.704  1.00  0.00    -0.263 OA
BRANCH  26  28
HETATM   28  O1  UNL     1      17.461  -1.104  53.667  1.00  0.00    -0.321 OA
BRANCH  28  29
HETATM   29  C2  UNL     1      18.096  -2.357  53.673  1.00  0.00     0.174 C 
HETATM   30  C1  UNL     1      17.114  -3.497  53.512  1.00  0.00     0.034 C 
ENDBRANCH  28  29
ENDBRANCH  26  28
ENDBRANCH  25  26
ENDBRANCH  23  25
ENDBRANCH   1  23
BRANCH   1  31
HETATM   31  C6  UNL     1      18.564   1.913  49.005  1.00  0.00     0.314 C 
BRANCH  31  32
HETATM   32  N2  UNL     1      17.302   1.890  48.323  1.00  0.00     0.081 N 
HETATM   33  H11 UNL     1      17.455   1.670  47.309  1.00  0.00     0.312 HD
HETATM   34  H12 UNL     1      16.626   1.244  48.766  1.00  0.00     0.312 HD
ENDBRANCH  31  32
ENDBRANCH   1  31
TORSDOF 11
ENDMDL
MODEL 2
REMARK VINA RESULT:      -8.1      1.785      2.473
REMARK  11 active torsions:
REMARK  status: ('A' for Active; 'I' for Inactive)
REMARK    1  A    between atoms: C2_2  and  O1_3 
REMARK    2  A    between atoms: O1_3  and  C3_4 
REMARK    3  A    between atoms: C3_4  and  C4_6 
REMARK    4  A    between atoms: C4_6  and  N1_7 
REMARK    5  A    between atoms: N1_7  and  C5_8 
REMARK    6  A    between atoms: C5_8  and  C6_9 
REMARK    7  A    between atoms: C6_9  and  N2_10 
REMARK    8  A    between atoms: C8_14  and  C9_15 
REMARK    9  A    between atoms: C12_18  and  O3_19 
REMARK   10  A    between atoms: O3_19  and  C13_20 
REMARK   11  A    between atoms: C13_20  and  C14_21 
ROOT
HETATM    1  C5  UNL     1      17.977   1.401  51.088  1.00  0.00     0.224 A 
HETATM    2  C7  UNL     1      18.101   2.889  51.348  1.00  0.00     0.157 A 
HETATM    3  N3  UNL     1      18.992   3.686  51.877  1.00  0.00    -0.164 NA
HETATM    4  N4  UNL     1      20.149   3.011  52.328  1.00  0.00    -0.155 NA
HETATM    5  C8  UNL     1      20.222   1.713  52.180  1.00  0.00     0.070 A 
HETATM    6  C22 UNL     1      19.267   0.764  51.582  1.00  0.00     0.111 A 
ENDROOT
BRANCH   5   7
HETATM    7  C9  UNL     1      21.457   1.121  52.683  1.00  0.00    -0.008 A 
HETATM    8  C10 UNL     1      22.689   1.515  52.148  1.00  0.00     0.016 A 
HETATM    9  C11 UNL     1      23.899   0.986  52.588  1.00  0.00     0.039 A 
HETATM   10  C12 UNL     1      23.916   0.043  53.579  1.00  0.00     0.090 A 
HETATM   11  C20 UNL     1      22.726  -0.346  54.105  1.00  0.00     0.068 A 
HETATM   12 CL1  UNL     1      22.724  -1.557  55.381  1.00  0.00    -0.081 Cl
HETATM   13  C21 UNL     1      21.528   0.168  53.679  1.00  0.00     0.040 A 
BRANCH  10  14
HETATM   14  O3  UNL     1      25.162  -0.446  53.974  1.00  0.00    -0.345 OA
BRANCH  14  15
HETATM   15  C13 UNL     1      26.028  -1.127  53.077  1.00  0.00     0.214 C 
BRANCH  15  16
HETATM   16  C14 UNL     1      27.432  -0.677  53.268  1.00  0.00    -0.031 A 
HETATM   17  C15 UNL     1      28.506  -1.536  53.197  1.00  0.00     0.009 A 
HETATM   18  C16 UNL     1      29.764  -0.991  53.390  1.00  0.00     0.004 A 
HETATM   19  C17 UNL     1      29.958   0.355  53.644  1.00  0.00     0.042 A 
HETATM   20  C18 UNL     1      28.845   1.184  53.705  1.00  0.00     0.117 A 
HETATM   21  F1  UNL     1      28.999   2.506  53.952  1.00  0.00    -0.206 F 
HETATM   22  C19 UNL     1      27.576   0.688  53.521  1.00  0.00     0.051 A 
ENDBRANCH  15  16
ENDBRANCH  14  15
ENDBRANCH  10  14
ENDBRANCH   5   7
BRANCH   1  23
HETATM   23  N1  UNL     1      16.856   0.940  51.839  1.00  0.00     0.109 NA
HETATM   24  H8  UNL     1      16.601  -0.009  51.476  1.00  0.00     0.318 HD
BRANCH  23  25
HETATM   25  C4  UNL     1      15.764   1.817  51.867  1.00  0.00     0.381 C 
BRANCH  25  26
HETATM   26  C3  UNL     1      14.686   1.355  52.825  1.00  0.00     0.287 C 
HETATM   27  O2  UNL     1      14.698   0.314  53.501  1.00  0.00    -0.263 OA
BRANCH  26  28
HETATM   28  O1  UNL     1      13.615   2.252  52.886  1.00  0.00    -0.321 OA
BRANCH  28  29
HETATM   29  C2  UNL     1      13.744   3.575  53.338  1.00  0.00     0.174 C 
HETATM   30  C1  UNL     1      12.482   4.380  53.121  1.00  0.00     0.034 C 
ENDBRANCH  28  29
ENDBRANCH  26  28
ENDBRANCH  25  26
ENDBRANCH  23  25
ENDBRANCH   1  23
BRANCH   1  31
HETATM   31  C6  UNL     1      17.879   1.154  49.625  1.00  0.00     0.314 C 
BRANCH  31  32
HETATM   32  N2  UNL     1      18.608   2.149  48.891  1.00  0.00     0.081 N 
HETATM   33  H11 UNL     1      19.512   2.356  49.382  1.00  0.00     0.312 HD
HETATM   34  H12 UNL     1      18.752   1.882  47.901  1.00  0.00     0.312 HD
ENDBRANCH  31  32
ENDBRANCH   1  31
TORSDOF 11
ENDMDL
MODEL 3
REMARK VINA RESULT:      -8.0      7.525     11.522
REMARK  11 active torsions:
REMARK  status: ('A' for Active; 'I' for Inactive)
REMARK    1  A    between atoms: C2_2  and  O1_3 
REMARK    2  A    between atoms: O1_3  and  C3_4 
REMARK    3  A    between atoms: C3_4  and  C4_6 
REMARK    4  A    between atoms: C4_6  and  N1_7 
REMARK    5  A    between atoms: N1_7  and  C5_8 
REMARK    6  A    between atoms: C5_8  and  C6_9 
REMARK    7  A    between atoms: C6_9  and  N2_10 
REMARK    8  A    between atoms: C8_14  and  C9_15 
REMARK    9  A    between atoms: C12_18  and  O3_19 
REMARK   10  A    between atoms: O3_19  and  C13_20 
REMARK   11  A    between atoms: C13_20  and  C14_21 
ROOT
HETATM    1  C5  UNL     1      30.662   6.563  48.010  1.00  0.00     0.224 A 
HETATM    2  C7  UNL     1      30.083   7.694  47.183  1.00  0.00     0.157 A 
HETATM    3  N3  UNL     1      28.888   8.107  46.849  1.00  0.00    -0.164 NA
HETATM    4  N4  UNL     1      27.850   7.311  47.387  1.00  0.00    -0.155 NA
HETATM    5  C8  UNL     1      28.164   6.286  48.136  1.00  0.00     0.070 A 
HETATM    6  C22 UNL     1      29.481   5.780  48.562  1.00  0.00     0.111 A 
ENDROOT
BRANCH   5   7
HETATM    7  C9  UNL     1      27.017   5.535  48.635  1.00  0.00    -0.008 A 
HETATM    8  C10 UNL     1      27.189   4.230  49.110  1.00  0.00     0.016 A 
HETATM    9  C11 UNL     1      26.132   3.466  49.598  1.00  0.00     0.039 A 
HETATM   10  C12 UNL     1      24.866   3.983  49.625  1.00  0.00     0.090 A 
HETATM   11  C20 UNL     1      24.688   5.248  49.166  1.00  0.00     0.068 A 
HETATM   12 CL1  UNL     1      23.068   5.934  49.192  1.00  0.00    -0.081 Cl
HETATM   13  C21 UNL     1      25.722   6.011  48.683  1.00  0.00     0.040 A 
BRANCH  10  14
HETATM   14  O3  UNL     1      23.852   3.165  50.126  1.00  0.00    -0.345 OA
BRANCH  14  15
HETATM   15  C13 UNL     1      23.408   3.247  51.473  1.00  0.00     0.214 C 
BRANCH  15  16
HETATM   16  C14 UNL     1      23.853   2.054  52.241  1.00  0.00    -0.031 A 
HETATM   17  C15 UNL     1      25.078   1.986  52.868  1.00  0.00     0.009 A 
HETATM   18  C16 UNL     1      25.370   0.819  53.554  1.00  0.00     0.004 A 
HETATM   19  C17 UNL     1      24.487  -0.244  53.620  1.00  0.00     0.042 A 
HETATM   20  C18 UNL     1      23.263  -0.129  52.973  1.00  0.00     0.117 A 
HETATM   21  F1  UNL     1      22.376  -1.151  53.018  1.00  0.00    -0.206 F 
HETATM   22  C19 UNL     1      22.929   1.009  52.279  1.00  0.00     0.051 A 
ENDBRANCH  15  16
ENDBRANCH  14  15
ENDBRANCH  10  14
ENDBRANCH   5   7
BRANCH   1  23
HETATM   23  N1  UNL     1      31.443   5.761  47.127  1.00  0.00     0.109 NA
HETATM   24  H8  UNL     1      30.779   5.195  46.546  1.00  0.00     0.318 HD
BRANCH  23  25
HETATM   25  C4  UNL     1      32.418   4.974  47.752  1.00  0.00     0.381 C 
BRANCH  25  26
HETATM   26  C3  UNL     1      32.453   3.565  47.201  1.00  0.00     0.287 C 
HETATM   27  O2  UNL     1      31.569   3.017  46.522  1.00  0.00    -0.263 OA
BRANCH  26  28
HETATM   28  O1  UNL     1      33.632   2.894  47.542  1.00  0.00    -0.321 OA
BRANCH  28  29
HETATM   29  C2  UNL     1      34.912   3.381  47.232  1.00  0.00     0.174 C 
HETATM   30  C1  UNL     1      35.124   3.524  45.740  1.00  0.00     0.034 C 
ENDBRANCH  28  29
ENDBRANCH  26  28
ENDBRANCH  25  26
ENDBRANCH  23  25
ENDBRANCH   1  23
BRANCH   1  31
HETATM   31  C6  UNL     1      31.416   7.121  49.164  1.00  0.00     0.314 C 
BRANCH  31  32
HETATM   32  N2  UNL     1      30.789   8.315  49.653  1.00  0.00     0.081 N 
HETATM   33  H11 UNL     1      31.482   9.102  49.651  1.00  0.00     0.312 HD
HETATM   34  H12 UNL     1      29.928   8.550  49.129  1.00  0.00     0.312 HD
ENDBRANCH  31  32
ENDBRANCH   1  31
TORSDOF 11
ENDMDL
MODEL 4
REMARK VINA RESULT:      -8.0      2.722      4.044
REMARK  11 active torsions:
REMARK  status: ('A' for Active; 'I' for Inactive)
REMARK    1  A    between atoms: C2_2  and  O1_3 
REMARK    2  A    between atoms: O1_3  and  C3_4 
REMARK    3  A    between atoms: C3_4  and  C4_6 
REMARK    4  A    between atoms: C4_6  and  N1_7 
REMARK    5  A    between atoms: N1_7  and  C5_8 
REMARK    6  A    between atoms: C5_8  and  C6_9 
REMARK    7  A    between atoms: C6_9  and  N2_10 
REMARK    8  A    between atoms: C8_14  and  C9_15 
REMARK    9  A    between atoms: C12_18  and  O3_19 
REMARK   10  A    between atoms: O3_19  and  C13_20 
REMARK   11  A    between atoms: C13_20  and  C14_21 
ROOT
HETATM    1  C5  UNL     1      16.191  -1.014  52.518  1.00  0.00     0.224 A 
HETATM    2  C7  UNL     1      16.041  -0.475  51.110  1.00  0.00     0.157 A 
HETATM    3  N3  UNL     1      16.823   0.078  50.219  1.00  0.00    -0.164 NA
HETATM    4  N4  UNL     1      18.159   0.218  50.659  1.00  0.00    -0.155 NA
HETATM    5  C8  UNL     1      18.479  -0.200  51.857  1.00  0.00     0.070 A 
HETATM    6  C22 UNL     1      17.654  -0.843  52.895  1.00  0.00     0.111 A 
ENDROOT
BRANCH   5   7
HETATM    7  C9  UNL     1      19.881  -0.003  52.206  1.00  0.00    -0.008 A 
HETATM    8  C10 UNL     1      20.373  -0.493  53.421  1.00  0.00     0.016 A 
HETATM    9  C11 UNL     1      21.702  -0.336  53.807  1.00  0.00     0.039 A 
HETATM   10  C12 UNL     1      22.582   0.319  52.990  1.00  0.00     0.090 A 
HETATM   11  C20 UNL     1      22.114   0.798  51.809  1.00  0.00     0.068 A 
HETATM   12 CL1  UNL     1      23.229   1.644  50.742  1.00  0.00    -0.081 Cl
HETATM   13  C21 UNL     1      20.807   0.649  51.418  1.00  0.00     0.040 A 
BRANCH  10  14
HETATM   14  O3  UNL     1      23.898   0.442  53.437  1.00  0.00    -0.345 OA
BRANCH  14  15
HETATM   15  C13 UNL     1      24.518  -0.544  54.249  1.00  0.00     0.214 C 
BRANCH  15  16
HETATM   16  C14 UNL     1      25.974  -0.620  53.955  1.00  0.00    -0.031 A 
HETATM   17  C15 UNL     1      26.490  -1.392  52.938  1.00  0.00     0.009 A 
HETATM   18  C16 UNL     1      27.864  -1.373  52.766  1.00  0.00     0.004 A 
HETATM   19  C17 UNL     1      28.701  -0.619  53.569  1.00  0.00     0.042 A 
HETATM   20  C18 UNL     1      28.136   0.145  54.582  1.00  0.00     0.117 A 
HETATM   21  F1  UNL     1      28.927   0.894  55.385  1.00  0.00    -0.206 F 
HETATM   22  C19 UNL     1      26.777   0.157  54.791  1.00  0.00     0.051 A 
ENDBRANCH  15  16
ENDBRANCH  14  15
ENDBRANCH  10  14
ENDBRANCH   5   7
BRANCH   1  23
HETATM   23  N1  UNL     1      15.349  -0.226  53.356  1.00  0.00     0.109 NA
HETATM   24  H8  UNL     1      15.154  -0.784  54.222  1.00  0.00     0.318 HD
BRANCH  23  25
HETATM   25  C4  UNL     1      14.180   0.242  52.743  1.00  0.00     0.381 C 
BRANCH  25  26
HETATM   26  C3  UNL     1      13.972   1.725  52.969  1.00  0.00     0.287 C 
HETATM   27  O2  UNL     1      14.855   2.598  52.988  1.00  0.00    -0.263 OA
BRANCH  26  28
HETATM   28  O1  UNL     1      12.625   2.046  53.164  1.00  0.00    -0.321 OA
BRANCH  28  29
HETATM   29  C2  UNL     1      12.120   2.542  54.377  1.00  0.00     0.174 C 
HETATM   30  C1  UNL     1      12.070   4.054  54.399  1.00  0.00     0.034 C 
ENDBRANCH  28  29
ENDBRANCH  26  28
ENDBRANCH  25  26
ENDBRANCH  23  25
ENDBRANCH   1  23
BRANCH   1  31
HETATM   31  C6  UNL     1      15.886  -2.469  52.533  1.00  0.00     0.314 C 
BRANCH  31  32
HETATM   32  N2  UNL     1      16.728  -3.157  53.470  1.00  0.00     0.081 N 
HETATM   33  H11 UNL     1      16.826  -4.160  53.183  1.00  0.00     0.312 HD
HETATM   34  H12 UNL     1      17.645  -2.692  53.590  1.00  0.00     0.312 HD
ENDBRANCH  31  32
ENDBRANCH   1  31
TORSDOF 11
ENDMDL
MODEL 5
REMARK VINA RESULT:      -7.9      2.545      3.765
REMARK  11 active torsions:
REMARK  status: ('A' for Active; 'I' for Inactive)
REMARK    1  A    between atoms: C2_2  and  O1_3 
REMARK    2  A    between atoms: O1_3  and  C3_4 
REMARK    3  A    between atoms: C3_4  and  C4_6 
REMARK    4  A    between atoms: C4_6  and  N1_7 
REMARK    5  A    between atoms: N1_7  and  C5_8 
REMARK    6  A    between atoms: C5_8  and  C6_9 
REMARK    7  A    between atoms: C6_9  and  N2_10 
REMARK    8  A    between atoms: C8_14  and  C9_15 
REMARK    9  A    between atoms: C12_18  and  O3_19 
REMARK   10  A    between atoms: O3_19  and  C13_20 
REMARK   11  A    between atoms: C13_20  and  C14_21 
ROOT
HETATM    1  C5  UNL     1      16.320  -0.988  52.569  1.00  0.00     0.224 A 
HETATM    2  C7  UNL     1      16.213  -0.434  51.162  1.00  0.00     0.157 A 
HETATM    3  N3  UNL     1      17.027   0.106  50.293  1.00  0.00    -0.164 NA
HETATM    4  N4  UNL     1      18.357   0.210  50.761  1.00  0.00    -0.155 NA
HETATM    5  C8  UNL     1      18.640  -0.226  51.962  1.00  0.00     0.070 A 
HETATM    6  C22 UNL     1      17.779  -0.856  52.978  1.00  0.00     0.111 A 
ENDROOT
BRANCH   5   7
HETATM    7  C9  UNL     1      20.039  -0.066  52.342  1.00  0.00    -0.008 A 
HETATM    8  C10 UNL     1      20.894   0.709  51.551  1.00  0.00     0.016 A 
HETATM    9  C11 UNL     1      22.238   0.898  51.865  1.00  0.00     0.039 A 
HETATM   10  C12 UNL     1      22.770   0.315  52.981  1.00  0.00     0.090 A 
HETATM   11  C20 UNL     1      21.949  -0.439  53.756  1.00  0.00     0.068 A 
HETATM   12 CL1  UNL     1      22.613  -1.199  55.198  1.00  0.00    -0.081 Cl
HETATM   13  C21 UNL     1      20.624  -0.632  53.457  1.00  0.00     0.040 A 
BRANCH  10  14
HETATM   14  O3  UNL     1      24.123   0.544  53.238  1.00  0.00    -0.345 OA
BRANCH  14  15
HETATM   15  C13 UNL     1      25.072   0.724  52.197  1.00  0.00     0.214 C 
BRANCH  15  16
HETATM   16  C14 UNL     1      26.443   0.415  52.683  1.00  0.00    -0.031 A 
HETATM   17  C15 UNL     1      27.291   1.377  53.183  1.00  0.00     0.009 A 
HETATM   18  C16 UNL     1      28.541   0.957  53.606  1.00  0.00     0.004 A 
HETATM   19  C17 UNL     1      28.942  -0.365  53.539  1.00  0.00     0.042 A 
HETATM   20  C18 UNL     1      28.052  -1.301  53.028  1.00  0.00     0.117 A 
HETATM   21  F1  UNL     1      28.412  -2.604  52.947  1.00  0.00    -0.206 F 
HETATM   22  C19 UNL     1      26.800  -0.932  52.595  1.00  0.00     0.051 A 
ENDBRANCH  15  16
ENDBRANCH  14  15
ENDBRANCH  10  14
ENDBRANCH   5   7
BRANCH   1  23
HETATM   23  N1  UNL     1      15.480  -0.186  53.396  1.00  0.00     0.109 NA
HETATM   24  H8  UNL     1      15.244  -0.750  54.247  1.00  0.00     0.318 HD
BRANCH  23  25
HETATM   25  C4  UNL     1      14.343   0.328  52.759  1.00  0.00     0.381 C 
BRANCH  25  26
HETATM   26  C3  UNL     1      14.167   1.810  53.014  1.00  0.00     0.287 C 
HETATM   27  O2  UNL     1      14.982   2.706  52.742  1.00  0.00    -0.263 OA
BRANCH  26  28
HETATM   28  O1  UNL     1      12.939   2.099  53.617  1.00  0.00    -0.321 OA
BRANCH  28  29
HETATM   29  C2  UNL     1      12.146   1.130  54.251  1.00  0.00     0.174 C 
HETATM   30  C1  UNL     1      11.786   1.521  55.668  1.00  0.00     0.034 C 
ENDBRANCH  28  29
ENDBRANCH  26  28
ENDBRANCH  25  26
ENDBRANCH  23  25
ENDBRANCH   1  23
BRANCH   1  31
HETATM   31  C6  UNL     1      15.978  -2.435  52.566  1.00  0.00     0.314 C 
BRANCH  31  32
HETATM   32  N2  UNL     1      16.795  -3.153  53.503  1.00  0.00     0.081 N 
HETATM   33  H11 UNL     1      17.701  -2.645  53.640  1.00  0.00     0.312 HD
HETATM   34  H12 UNL     1      16.304  -3.330  54.397  1.00  0.00     0.312 HD
ENDBRANCH  31  32
ENDBRANCH   1  31
TORSDOF 11
ENDMDL
MODEL 6
REMARK VINA RESULT:      -7.7      7.236     10.428
REMARK  11 active torsions:
REMARK  status: ('A' for Active; 'I' for Inactive)
REMARK    1  A    between atoms: C2_2  and  O1_3 
REMARK    2  A    between atoms: O1_3  and  C3_4 
REMARK    3  A    between atoms: C3_4  and  C4_6 
REMARK    4  A    between atoms: C4_6  and  N1_7 
REMARK    5  A    between atoms: N1_7  and  C5_8 
REMARK    6  A    between atoms: C5_8  and  C6_9 
REMARK    7  A    between atoms: C6_9  and  N2_10 
REMARK    8  A    between atoms: C8_14  and  C9_15 
REMARK    9  A    between atoms: C12_18  and  O3_19 
REMARK   10  A    between atoms: O3_19  and  C13_20 
REMARK   11  A    between atoms: C13_20  and  C14_21 
ROOT
HETATM    1  C5  UNL     1      28.396   8.694  47.890  1.00  0.00     0.224 A 
HETATM    2  C7  UNL     1      27.275   8.996  46.916  1.00  0.00     0.157 A 
HETATM    3  N3  UNL     1      26.103   8.489  46.633  1.00  0.00    -0.164 NA
HETATM    4  N4  UNL     1      25.772   7.369  47.430  1.00  0.00    -0.155 NA
HETATM    5  C8  UNL     1      26.625   6.963  48.336  1.00  0.00     0.070 A 
HETATM    6  C22 UNL     1      27.945   7.498  48.713  1.00  0.00     0.111 A 
ENDROOT
BRANCH   5   7
HETATM    7  C9  UNL     1      26.182   5.800  49.097  1.00  0.00    -0.008 A 
HETATM    8  C10 UNL     1      26.923   4.613  49.053  1.00  0.00     0.016 A 
HETATM    9  C11 UNL     1      26.550   3.472  49.758  1.00  0.00     0.039 A 
HETATM   10  C12 UNL     1      25.421   3.481  50.531  1.00  0.00     0.090 A 
HETATM   11  C20 UNL     1      24.695   4.627  50.580  1.00  0.00     0.068 A 
HETATM   12 CL1  UNL     1      23.239   4.661  51.568  1.00  0.00    -0.081 Cl
HETATM   13  C21 UNL     1      25.053   5.757  49.889  1.00  0.00     0.040 A 
BRANCH  10  14
HETATM   14  O3  UNL     1      25.104   2.304  51.211  1.00  0.00    -0.345 OA
BRANCH  14  15
HETATM   15  C13 UNL     1      25.302   2.161  52.610  1.00  0.00     0.214 C 
BRANCH  15  16
HETATM   16  C14 UNL     1      26.436   1.240  52.884  1.00  0.00    -0.031 A 
HETATM   17  C15 UNL     1      26.427  -0.085  52.508  1.00  0.00     0.009 A 
HETATM   18  C16 UNL     1      27.548  -0.837  52.820  1.00  0.00     0.004 A 
HETATM   19  C17 UNL     1      28.640  -0.301  53.478  1.00  0.00     0.042 A 
HETATM   20  C18 UNL     1      28.605   1.041  53.837  1.00  0.00     0.117 A 
HETATM   21  F1  UNL     1      29.657   1.596  54.483  1.00  0.00    -0.206 F 
HETATM   22  C19 UNL     1      27.514   1.826  53.550  1.00  0.00     0.051 A 
ENDBRANCH  15  16
ENDBRANCH  14  15
ENDBRANCH  10  14
ENDBRANCH   5   7
BRANCH   1  23
HETATM   23  N1  UNL     1      29.548   8.377  47.112  1.00  0.00     0.109 NA
HETATM   24  H8  UNL     1      29.329   8.613  46.114  1.00  0.00     0.318 HD
BRANCH  23  25
HETATM   25  C4  UNL     1      30.020   7.068  47.264  1.00  0.00     0.381 C 
BRANCH  25  26
HETATM   26  C3  UNL     1      31.339   7.020  48.005  1.00  0.00     0.287 C 
HETATM   27  O2  UNL     1      31.657   7.707  48.989  1.00  0.00    -0.263 OA
BRANCH  26  28
HETATM   28  O1  UNL     1      32.220   6.082  47.456  1.00  0.00    -0.321 OA
BRANCH  28  29
HETATM   29  C2  UNL     1      32.323   4.760  47.918  1.00  0.00     0.174 C 
HETATM   30  C1  UNL     1      31.879   3.754  46.879  1.00  0.00     0.034 C 
ENDBRANCH  28  29
ENDBRANCH  26  28
ENDBRANCH  25  26
ENDBRANCH  23  25
ENDBRANCH   1  23
BRANCH   1  31
HETATM   31  C6  UNL     1      28.577   9.842  48.818  1.00  0.00     0.314 C 
BRANCH  31  32
HETATM   32  N2  UNL     1      29.293   9.438  49.994  1.00  0.00     0.081 N 
HETATM   33  H11 UNL     1      30.215   9.021  49.718  1.00  0.00     0.312 HD
HETATM   34  H12 UNL     1      29.400  10.211  50.674  1.00  0.00     0.312 HD
ENDBRANCH  31  32
ENDBRANCH   1  31
TORSDOF 11
ENDMDL
MODEL 7
REMARK VINA RESULT:      -7.5      7.418     10.725
REMARK  11 active torsions:
REMARK  status: ('A' for Active; 'I' for Inactive)
REMARK    1  A    between atoms: C2_2  and  O1_3 
REMARK    2  A    between atoms: O1_3  and  C3_4 
REMARK    3  A    between atoms: C3_4  and  C4_6 
REMARK    4  A    between atoms: C4_6  and  N1_7 
REMARK    5  A    between atoms: N1_7  and  C5_8 
REMARK    6  A    between atoms: C5_8  and  C6_9 
REMARK    7  A    between atoms: C6_9  and  N2_10 
REMARK    8  A    between atoms: C8_14  and  C9_15 
REMARK    9  A    between atoms: C12_18  and  O3_19 
REMARK   10  A    between atoms: O3_19  and  C13_20 
REMARK   11  A    between atoms: C13_20  and  C14_21 
ROOT
HETATM    1  C5  UNL     1      27.652   7.517  48.325  1.00  0.00     0.224 A 
HETATM    2  C7  UNL     1      28.864   6.698  47.927  1.00  0.00     0.157 A 
HETATM    3  N3  UNL     1      29.222   5.442  47.992  1.00  0.00    -0.164 NA
HETATM    4  N4  UNL     1      28.241   4.611  48.581  1.00  0.00    -0.155 NA
HETATM    5  C8  UNL     1      27.118   5.147  48.985  1.00  0.00     0.070 A 
HETATM    6  C22 UNL     1      26.649   6.543  48.925  1.00  0.00     0.111 A 
ENDROOT
BRANCH   5   7
HETATM    7  C9  UNL     1      26.181   4.200  49.578  1.00  0.00    -0.008 A 
HETATM    8  C10 UNL     1      24.809   4.327  49.332  1.00  0.00     0.016 A 
HETATM    9  C11 UNL     1      23.868   3.452  49.870  1.00  0.00     0.039 A 
HETATM   10  C12 UNL     1      24.271   2.422  50.675  1.00  0.00     0.090 A 
HETATM   11  C20 UNL     1      25.599   2.290  50.920  1.00  0.00     0.068 A 
HETATM   12 CL1  UNL     1      26.140   0.971  51.953  1.00  0.00    -0.081 Cl
HETATM   13  C21 UNL     1      26.535   3.145  50.395  1.00  0.00     0.040 A 
BRANCH  10  14
HETATM   14  O3  UNL     1      23.278   1.582  51.182  1.00  0.00    -0.345 OA
BRANCH  14  15
HETATM   15  C13 UNL     1      22.423   1.975  52.246  1.00  0.00     0.214 C 
BRANCH  15  16
HETATM   16  C14 UNL     1      21.916   0.783  52.974  1.00  0.00    -0.031 A 
HETATM   17  C15 UNL     1      20.626   0.320  52.841  1.00  0.00     0.009 A 
HETATM   18  C16 UNL     1      20.279  -0.804  53.572  1.00  0.00     0.004 A 
HETATM   19  C17 UNL     1      21.174  -1.450  54.406  1.00  0.00     0.042 A 
HETATM   20  C18 UNL     1      22.466  -0.949  54.509  1.00  0.00     0.117 A 
HETATM   21  F1  UNL     1      23.365  -1.557  55.316  1.00  0.00    -0.206 F 
HETATM   22  C19 UNL     1      22.855   0.165  53.802  1.00  0.00     0.051 A 
ENDBRANCH  15  16
ENDBRANCH  14  15
ENDBRANCH  10  14
ENDBRANCH   5   7
BRANCH   1  23
HETATM   23  N1  UNL     1      28.093   8.464  49.296  1.00  0.00     0.109 NA
HETATM   24  H8  UNL     1      27.445   9.286  49.251  1.00  0.00     0.318 HD
BRANCH  23  25
HETATM   25  C4  UNL     1      29.440   8.833  49.191  1.00  0.00     0.381 C 
BRANCH  25  26
HETATM   26  C3  UNL     1      29.614  10.334  49.092  1.00  0.00     0.287 C 
HETATM   27  O2  UNL     1      30.690  10.953  49.107  1.00  0.00    -0.263 OA
BRANCH  26  28
HETATM   28  O1  UNL     1      28.390  11.000  48.978  1.00  0.00    -0.321 OA
BRANCH  28  29
HETATM   29  C2  UNL     1      28.277  12.334  48.554  1.00  0.00     0.174 C 
HETATM   30  C1  UNL     1      26.856  12.699  48.184  1.00  0.00     0.034 C 
ENDBRANCH  28  29
ENDBRANCH  26  28
ENDBRANCH  25  26
ENDBRANCH  23  25
ENDBRANCH   1  23
BRANCH   1  31
HETATM   31  C6  UNL     1      27.034   8.119  47.115  1.00  0.00     0.314 C 
BRANCH  31  32
HETATM   32  N2  UNL     1      25.621   7.867  47.086  1.00  0.00     0.081 N 
HETATM   33  H11 UNL     1      25.186   8.202  47.979  1.00  0.00     0.312 HD
HETATM   34  H12 UNL     1      25.166   8.274  46.251  1.00  0.00     0.312 HD
ENDBRANCH  31  32
ENDBRANCH   1  31
TORSDOF 11
ENDMDL
MODEL 8
REMARK VINA RESULT:      -7.5      7.855     11.533
REMARK  11 active torsions:
REMARK  status: ('A' for Active; 'I' for Inactive)
REMARK    1  A    between atoms: C2_2  and  O1_3 
REMARK    2  A    between atoms: O1_3  and  C3_4 
REMARK    3  A    between atoms: C3_4  and  C4_6 
REMARK    4  A    between atoms: C4_6  and  N1_7 
REMARK    5  A    between atoms: N1_7  and  C5_8 
REMARK    6  A    between atoms: C5_8  and  C6_9 
REMARK    7  A    between atoms: C6_9  and  N2_10 
REMARK    8  A    between atoms: C8_14  and  C9_15 
REMARK    9  A    between atoms: C12_18  and  O3_19 
REMARK   10  A    between atoms: O3_19  and  C13_20 
REMARK   11  A    between atoms: C13_20  and  C14_21 
ROOT
HETATM    1  C5  UNL     1      30.134   8.562  47.810  1.00  0.00     0.224 A 
HETATM    2  C7  UNL     1      29.287   9.021  46.640  1.00  0.00     0.157 A 
HETATM    3  N3  UNL     1      28.105   8.738  46.158  1.00  0.00    -0.164 NA
HETATM    4  N4  UNL     1      27.418   7.754  46.905  1.00  0.00    -0.155 NA
HETATM    5  C8  UNL     1      27.997   7.242  47.961  1.00  0.00     0.070 A 
HETATM    6  C22 UNL     1      29.311   7.528  48.563  1.00  0.00     0.111 A 
ENDROOT
BRANCH   5   7
HETATM    7  C9  UNL     1      27.200   6.235  48.653  1.00  0.00    -0.008 A 
HETATM    8  C10 UNL     1      27.592   4.892  48.623  1.00  0.00     0.016 A 
HETATM    9  C11 UNL     1      26.872   3.888  49.265  1.00  0.00     0.039 A 
HETATM   10  C12 UNL     1      25.733   4.196  49.958  1.00  0.00     0.090 A 
HETATM   11  C20 UNL     1      25.344   5.496  49.993  1.00  0.00     0.068 A 
HETATM   12 CL1  UNL     1      23.882   5.914  50.878  1.00  0.00    -0.081 Cl
HETATM   13  C21 UNL     1      26.045   6.494  49.364  1.00  0.00     0.040 A 
BRANCH  10  14
HETATM   14  O3  UNL     1      25.059   3.143  50.578  1.00  0.00    -0.345 OA
BRANCH  14  15
HETATM   15  C13 UNL     1      25.637   2.390  51.634  1.00  0.00     0.214 C 
BRANCH  15  16
HETATM   16  C14 UNL     1      24.657   1.410  52.172  1.00  0.00    -0.031 A 
HETATM   17  C15 UNL     1      24.966   0.522  53.179  1.00  0.00     0.009 A 
HETATM   18  C16 UNL     1      23.962  -0.337  53.592  1.00  0.00     0.004 A 
HETATM   19  C17 UNL     1      22.697  -0.323  53.033  1.00  0.00     0.042 A 
HETATM   20  C18 UNL     1      22.430   0.590  52.020  1.00  0.00     0.117 A 
HETATM   21  F1  UNL     1      21.203   0.630  51.451  1.00  0.00    -0.206 F 
HETATM   22  C19 UNL     1      23.396   1.463  51.576  1.00  0.00     0.051 A 
ENDBRANCH  15  16
ENDBRANCH  14  15
ENDBRANCH  10  14
ENDBRANCH   5   7
BRANCH   1  23
HETATM   23  N1  UNL     1      31.316   7.980  47.264  1.00  0.00     0.109 NA
HETATM   24  H8  UNL     1      31.024   7.146  46.699  1.00  0.00     0.318 HD
BRANCH  23  25
HETATM   25  C4  UNL     1      32.310   7.673  48.201  1.00  0.00     0.381 C 
BRANCH  25  26
HETATM   26  C3  UNL     1      32.796   6.245  48.072  1.00  0.00     0.287 C 
HETATM   27  O2  UNL     1      33.678   5.703  48.756  1.00  0.00    -0.263 OA
BRANCH  26  28
HETATM   28  O1  UNL     1      32.128   5.551  47.058  1.00  0.00    -0.321 OA
BRANCH  28  29
HETATM   29  C2  UNL     1      31.420   4.359  47.279  1.00  0.00     0.174 C 
HETATM   30  C1  UNL     1      32.119   3.158  46.681  1.00  0.00     0.034 C 
ENDBRANCH  28  29
ENDBRANCH  26  28
ENDBRANCH  25  26
ENDBRANCH  23  25
ENDBRANCH   1  23
BRANCH   1  31
HETATM   31  C6  UNL     1      30.380   9.704  48.730  1.00  0.00     0.314 C 
BRANCH  31  32
HETATM   32  N2  UNL     1      29.807   9.451  50.021  1.00  0.00     0.081 N 
HETATM   33  H11 UNL     1      28.832   9.080  49.906  1.00  0.00     0.312 HD
HETATM   34  H12 UNL     1      30.398   8.827  50.598  1.00  0.00     0.312 HD
ENDBRANCH  31  32
ENDBRANCH   1  31
TORSDOF 11
ENDMDL
MODEL 9
REMARK VINA RESULT:      -7.5      6.939     10.500
REMARK  11 active torsions:
REMARK  status: ('A' for Active; 'I' for Inactive)
REMARK    1  A    between atoms: C2_2  and  O1_3 
REMARK    2  A    between atoms: O1_3  and  C3_4 
REMARK    3  A    between atoms: C3_4  and  C4_6 
REMARK    4  A    between atoms: C4_6  and  N1_7 
REMARK    5  A    between atoms: N1_7  and  C5_8 
REMARK    6  A    between atoms: C5_8  and  C6_9 
REMARK    7  A    between atoms: C6_9  and  N2_10 
REMARK    8  A    between atoms: C8_14  and  C9_15 
REMARK    9  A    between atoms: C12_18  and  O3_19 
REMARK   10  A    between atoms: O3_19  and  C13_20 
REMARK   11  A    between atoms: C13_20  and  C14_21 
ROOT
HETATM    1  C5  UNL     1      27.679   8.619  48.406  1.00  0.00     0.224 A 
HETATM    2  C7  UNL     1      26.678   9.043  47.350  1.00  0.00     0.157 A 
HETATM    3  N3  UNL     1      25.551   8.582  46.874  1.00  0.00    -0.164 NA
HETATM    4  N4  UNL     1      25.136   7.377  47.487  1.00  0.00    -0.155 NA
HETATM    5  C8  UNL     1      25.879   6.860  48.432  1.00  0.00     0.070 A 
HETATM    6  C22 UNL     1      27.143   7.336  49.022  1.00  0.00     0.111 A 
ENDROOT
BRANCH   5   7
HETATM    7  C9  UNL     1      25.358   5.618  48.992  1.00  0.00    -0.008 A 
HETATM    8  C10 UNL     1      23.986   5.348  48.935  1.00  0.00     0.016 A 
HETATM    9  C11 UNL     1      23.432   4.179  49.451  1.00  0.00     0.039 A 
HETATM   10  C12 UNL     1      24.235   3.242  50.043  1.00  0.00     0.090 A 
HETATM   11  C20 UNL     1      25.567   3.495  50.103  1.00  0.00     0.068 A 
HETATM   12 CL1  UNL     1      26.618   2.303  50.859  1.00  0.00    -0.081 Cl
HETATM   13  C21 UNL     1      26.124   4.643  49.598  1.00  0.00     0.040 A 
BRANCH  10  14
HETATM   14  O3  UNL     1      23.616   2.094  50.540  1.00  0.00    -0.345 OA
BRANCH  14  15
HETATM   15  C13 UNL     1      22.504   2.153  51.421  1.00  0.00     0.214 C 
BRANCH  15  16
HETATM   16  C14 UNL     1      22.617   1.108  52.472  1.00  0.00    -0.031 A 
HETATM   17  C15 UNL     1      21.541   0.685  53.222  1.00  0.00     0.009 A 
HETATM   18  C16 UNL     1      21.779  -0.298  54.167  1.00  0.00     0.004 A 
HETATM   19  C17 UNL     1      23.033  -0.846  54.368  1.00  0.00     0.042 A 
HETATM   20  C18 UNL     1      24.088  -0.390  53.588  1.00  0.00     0.117 A 
HETATM   21  F1  UNL     1      25.328  -0.904  53.759  1.00  0.00    -0.206 F 
HETATM   22  C19 UNL     1      23.901   0.585  52.637  1.00  0.00     0.051 A 
ENDBRANCH  15  16
ENDBRANCH  14  15
ENDBRANCH  10  14
ENDBRANCH   5   7
BRANCH   1  23
HETATM   23  N1  UNL     1      28.916   8.389  47.735  1.00  0.00     0.109 NA
HETATM   24  H8  UNL     1      28.720   8.380  46.706  1.00  0.00     0.318 HD
BRANCH  23  25
HETATM   25  C4  UNL     1      29.614   7.251  48.160  1.00  0.00     0.381 C 
BRANCH  25  26
HETATM   26  C3  UNL     1      30.953   7.600  48.774  1.00  0.00     0.287 C 
HETATM   27  O2  UNL     1      31.180   8.526  49.570  1.00  0.00    -0.263 OA
BRANCH  26  28
HETATM   28  O1  UNL     1      31.971   6.742  48.343  1.00  0.00    -0.321 OA
BRANCH  28  29
HETATM   29  C2  UNL     1      32.074   5.404  48.755  1.00  0.00     0.174 C 
HETATM   30  C1  UNL     1      31.985   4.439  47.593  1.00  0.00     0.034 C 
ENDBRANCH  28  29
ENDBRANCH  26  28
ENDBRANCH  25  26
ENDBRANCH  23  25
ENDBRANCH   1  23
BRANCH   1  31
HETATM   31  C6  UNL     1      27.742   9.647  49.478  1.00  0.00     0.314 C 
BRANCH  31  32
HETATM   32  N2  UNL     1      27.644   9.038  50.774  1.00  0.00     0.081 N 
HETATM   33  H11 UNL     1      28.032   9.689  51.498  1.00  0.00     0.312 HD
HETATM   34  H12 UNL     1      26.678   8.736  50.994  1.00  0.00     0.312 HD
ENDBRANCH  31  32
ENDBRANCH   1  31
TORSDOF 11
ENDMDL
