MODEL 1
REMARK VINA RESULT:      -7.8      0.000      0.000
REMARK  1 active torsions:
REMARK  status: ('A' for Active; 'I' for Inactive)
REMARK    1  A    between atoms: O1_2  and  C2_3 
REMARK       I    between atoms: N3_17  and  C14_18 
ROOT
HETATM    1  C2  UNL     1      23.422   2.351  50.439  1.00  0.00     0.097 A 
HETATM    2  C3  UNL     1      24.716   2.430  50.867  1.00  0.00     0.068 A 
HETATM    3  C4  UNL     1      25.187   2.672  52.166  1.00  0.00     0.032 A 
HETATM    4  C5  UNL     1      24.184   2.851  53.080  1.00  0.00     0.031 A 
HETATM    5  C6  UNL     1      22.873   2.782  52.713  1.00  0.00     0.035 A 
HETATM    6  C7  UNL     1      22.428   2.531  51.407  1.00  0.00     0.067 A 
HETATM    7  N1  UNL     1      21.003   2.360  51.229  1.00  0.00    -0.349 N 
HETATM    8  C8  UNL     1      21.389   0.951  51.425  1.00  0.00     0.207 C 
HETATM    9  N2  UNL     1      21.512   0.523  52.631  1.00  0.00    -0.256 NA
HETATM   10  C9  UNL     1      21.895  -0.811  52.919  1.00  0.00     0.114 C 
HETATM   11  C10 UNL     1      22.876  -0.772  53.866  1.00  0.00    -0.007 C 
HETATM   12  C11 UNL     1      23.945  -1.078  54.875  1.00  0.00     0.030 C 
HETATM   13  C12 UNL     1      25.205  -0.281  54.607  1.00  0.00     0.024 C 
HETATM   14  C13 UNL     1      25.834  -0.696  53.329  1.00  0.00     0.128 C 
HETATM   15  N3  UNL     1      26.880   0.239  52.865  1.00  0.00    -0.336 N 
HETATM   16  C14 UNL     1      28.103   0.004  53.600  1.00  0.00     0.217 C 
HETATM   17  C15 UNL     1      29.371   0.760  53.405  1.00  0.00     0.117 C 
HETATM   18  O2  UNL     1      28.025  -0.909  54.441  1.00  0.00    -0.274 OA
HETATM   19  C16 UNL     1      26.988   1.266  51.855  1.00  0.00     0.249 C 
HETATM   20  N4  UNL     1      26.627   2.594  52.194  1.00  0.00    -0.373 N 
HETATM   21  H7  UNL     1      20.154   2.937  51.054  1.00  0.00     0.167 HD
HETATM   22  H22 UNL     1      27.330   3.348  52.417  1.00  0.00     0.161 HD
ENDROOT
BRANCH   1  23
HETATM   23  O1  UNL     1      22.875   2.124  49.217  1.00  0.00    -0.354 OA
HETATM   24  C1  UNL     1      22.654   3.032  48.181  1.00  0.00     0.210 C 
ENDBRANCH   1  23
TORSDOF 1
ENDMDL
MODEL 2
REMARK VINA RESULT:      -7.7      1.744      5.563
REMARK  1 active torsions:
REMARK  status: ('A' for Active; 'I' for Inactive)
REMARK    1  A    between atoms: O1_2  and  C2_3 
REMARK       I    between atoms: N3_17  and  C14_18 
ROOT
HETATM    1  C2  UNL     1      27.730   1.662  53.437  1.00  0.00     0.097 A 
HETATM    2  C3  UNL     1      27.102   2.359  52.444  1.00  0.00     0.068 A 
HETATM    3  C4  UNL     1      26.399   1.855  51.341  1.00  0.00     0.032 A 
HETATM    4  C5  UNL     1      26.373   0.487  51.296  1.00  0.00     0.031 A 
HETATM    5  C6  UNL     1      26.981  -0.264  52.259  1.00  0.00     0.035 A 
HETATM    6  C7  UNL     1      27.672   0.266  53.358  1.00  0.00     0.067 A 
HETATM    7  N1  UNL     1      28.136  -0.679  54.350  1.00  0.00    -0.349 N 
HETATM    8  C8  UNL     1      26.830  -0.336  54.939  1.00  0.00     0.207 C 
HETATM    9  N2  UNL     1      25.792  -0.963  54.509  1.00  0.00    -0.256 NA
HETATM   10  C9  UNL     1      24.492  -0.691  55.004  1.00  0.00     0.114 C 
HETATM   11  C10 UNL     1      23.654  -0.559  53.936  1.00  0.00    -0.007 C 
HETATM   12  C11 UNL     1      22.491  -0.356  53.009  1.00  0.00     0.030 C 
HETATM   13  C12 UNL     1      22.804   0.670  51.941  1.00  0.00     0.024 C 
HETATM   14  C13 UNL     1      22.985   2.018  52.537  1.00  0.00     0.128 C 
HETATM   15  N3  UNL     1      23.586   2.992  51.603  1.00  0.00    -0.336 N 
HETATM   16  C14 UNL     1      22.575   3.478  50.690  1.00  0.00     0.217 C 
HETATM   17  C15 UNL     1      22.815   4.470  49.606  1.00  0.00     0.117 C 
HETATM   18  O2  UNL     1      21.445   2.993  50.875  1.00  0.00    -0.274 OA
HETATM   19  C16 UNL     1      24.886   3.593  51.416  1.00  0.00     0.249 C 
HETATM   20  N4  UNL     1      25.825   2.938  50.581  1.00  0.00    -0.373 N 
HETATM   21  H7  UNL     1      28.964  -1.281  54.539  1.00  0.00     0.167 HD
HETATM   22  H22 UNL     1      26.026   3.235  49.589  1.00  0.00     0.161 HD
ENDROOT
BRANCH   1  23
HETATM   23  O1  UNL     1      28.429   2.058  54.531  1.00  0.00    -0.354 OA
HETATM   24  C1  UNL     1      29.809   2.203  54.678  1.00  0.00     0.210 C 
ENDBRANCH   1  23
TORSDOF 1
ENDMDL
MODEL 3
REMARK VINA RESULT:      -7.5      1.817      6.252
REMARK  1 active torsions:
REMARK  status: ('A' for Active; 'I' for Inactive)
REMARK    1  A    between atoms: O1_2  and  C2_3 
REMARK       I    between atoms: N3_17  and  C14_18 
ROOT
HETATM    1  C2  UNL     1      25.333   0.691  53.095  1.00  0.00     0.097 A 
HETATM    2  C3  UNL     1      23.980   0.530  53.001  1.00  0.00     0.068 A 
HETATM    3  C4  UNL     1      22.989   1.521  52.969  1.00  0.00     0.032 A 
HETATM    4  C5  UNL     1      23.492   2.791  53.052  1.00  0.00     0.031 A 
HETATM    5  C6  UNL     1      24.834   3.016  53.147  1.00  0.00     0.035 A 
HETATM    6  C7  UNL     1      25.806   2.006  53.169  1.00  0.00     0.067 A 
HETATM    7  N1  UNL     1      27.187   2.434  53.137  1.00  0.00    -0.349 N 
HETATM    8  C8  UNL     1      26.959   2.256  51.692  1.00  0.00     0.207 C 
HETATM    9  N2  UNL     1      26.415   3.225  51.044  1.00  0.00    -0.256 NA
HETATM   10  C9  UNL     1      26.142   3.140  49.656  1.00  0.00     0.114 C 
HETATM   11  C10 UNL     1      24.864   3.572  49.452  1.00  0.00    -0.007 C 
HETATM   12  C11 UNL     1      23.531   3.974  48.891  1.00  0.00     0.030 C 
HETATM   13  C12 UNL     1      22.393   3.302  49.629  1.00  0.00     0.024 C 
HETATM   14  C13 UNL     1      22.409   1.835  49.408  1.00  0.00     0.128 C 
HETATM   15  N3  UNL     1      21.524   1.097  50.333  1.00  0.00    -0.336 N 
HETATM   16  C14 UNL     1      20.155   1.199  49.881  1.00  0.00     0.217 C 
HETATM   17  C15 UNL     1      18.985   0.582  50.565  1.00  0.00     0.117 C 
HETATM   18  O2  UNL     1      20.010   1.862  48.839  1.00  0.00    -0.274 OA
HETATM   19  C16 UNL     1      21.695   0.285  51.515  1.00  0.00     0.249 C 
HETATM   20  N4  UNL     1      21.691   0.919  52.783  1.00  0.00    -0.373 N 
HETATM   21  H7  UNL     1      27.941   2.718  53.797  1.00  0.00     0.167 HD
HETATM   22  H22 UNL     1      20.860   0.918  53.431  1.00  0.00     0.161 HD
ENDROOT
BRANCH   1  23
HETATM   23  O1  UNL     1      26.360  -0.197  53.134  1.00  0.00    -0.354 OA
HETATM   24  C1  UNL     1      26.481  -1.417  52.468  1.00  0.00     0.210 C 
ENDBRANCH   1  23
TORSDOF 1
ENDMDL
MODEL 4
REMARK VINA RESULT:      -7.1      2.730      5.240
REMARK  1 active torsions:
REMARK  status: ('A' for Active; 'I' for Inactive)
REMARK    1  A    between atoms: O1_2  and  C2_3 
REMARK       I    between atoms: N3_17  and  C14_18 
ROOT
HETATM    1  C2  UNL     1      21.589   3.945  50.841  1.00  0.00     0.097 A 
HETATM    2  C3  UNL     1      20.694   2.931  51.034  1.00  0.00     0.068 A 
HETATM    3  C4  UNL     1      20.844   1.572  50.724  1.00  0.00     0.032 A 
HETATM    4  C5  UNL     1      22.053   1.277  50.154  1.00  0.00     0.031 A 
HETATM    5  C6  UNL     1      22.988   2.246  49.938  1.00  0.00     0.035 A 
HETATM    6  C7  UNL     1      22.816   3.599  50.264  1.00  0.00     0.067 A 
HETATM    7  N1  UNL     1      23.965   4.460  50.088  1.00  0.00    -0.349 N 
HETATM    8  C8  UNL     1      24.160   4.089  51.501  1.00  0.00     0.207 C 
HETATM    9  N2  UNL     1      24.756   2.977  51.754  1.00  0.00    -0.256 NA
HETATM   10  C9  UNL     1      24.974   2.529  53.081  1.00  0.00     0.114 C 
HETATM   11  C10 UNL     1      24.596   1.220  53.150  1.00  0.00    -0.007 C 
HETATM   12  C11 UNL     1      24.277  -0.188  53.563  1.00  0.00     0.030 C 
HETATM   13  C12 UNL     1      22.868  -0.576  53.168  1.00  0.00     0.024 C 
HETATM   14  C13 UNL     1      21.867   0.219  53.923  1.00  0.00     0.128 C 
HETATM   15  N3  UNL     1      20.501   0.109  53.372  1.00  0.00    -0.336 N 
HETATM   16  C14 UNL     1      19.904  -1.138  53.798  1.00  0.00     0.217 C 
HETATM   17  C15 UNL     1      18.534  -1.593  53.434  1.00  0.00     0.117 C 
HETATM   18  O2  UNL     1      20.640  -1.835  54.519  1.00  0.00    -0.274 OA
HETATM   19  C16 UNL     1      19.626   0.939  52.577  1.00  0.00     0.249 C 
HETATM   20  N4  UNL     1      19.687   0.832  51.164  1.00  0.00    -0.373 N 
HETATM   21  H7  UNL     1      24.413   5.037  49.345  1.00  0.00     0.167 HD
HETATM   22  H22 UNL     1      18.983   0.295  50.592  1.00  0.00     0.161 HD
ENDROOT
BRANCH   1  23
HETATM   23  O1  UNL     1      21.534   5.276  51.105  1.00  0.00    -0.354 OA
HETATM   24  C1  UNL     1      20.962   6.291  50.340  1.00  0.00     0.210 C 
ENDBRANCH   1  23
TORSDOF 1
ENDMDL
MODEL 5
REMARK VINA RESULT:      -6.9      9.768     12.468
REMARK  1 active torsions:
REMARK  status: ('A' for Active; 'I' for Inactive)
REMARK    1  A    between atoms: O1_2  and  C2_3 
REMARK       I    between atoms: N3_17  and  C14_18 
ROOT
HETATM    1  C2  UNL     1      32.410   6.767  46.507  1.00  0.00     0.097 A 
HETATM    2  C3  UNL     1      31.305   6.660  47.301  1.00  0.00     0.068 A 
HETATM    3  C4  UNL     1      31.132   7.121  48.614  1.00  0.00     0.032 A 
HETATM    4  C5  UNL     1      32.242   7.744  49.119  1.00  0.00     0.031 A 
HETATM    5  C6  UNL     1      33.375   7.883  48.372  1.00  0.00     0.035 A 
HETATM    6  C7  UNL     1      33.519   7.419  47.057  1.00  0.00     0.067 A 
HETATM    7  N1  UNL     1      34.744   7.774  46.374  1.00  0.00    -0.349 N 
HETATM    8  C8  UNL     1      33.894   8.898  45.941  1.00  0.00     0.207 C 
HETATM    9  N2  UNL     1      33.783   9.907  46.730  1.00  0.00    -0.256 NA
HETATM   10  C9  UNL     1      32.976  11.027  46.407  1.00  0.00     0.114 C 
HETATM   11  C10 UNL     1      32.214  11.325  47.498  1.00  0.00    -0.007 C 
HETATM   12  C11 UNL     1      31.250  11.908  48.491  1.00  0.00     0.030 C 
HETATM   13  C12 UNL     1      30.350  10.843  49.081  1.00  0.00     0.024 C 
HETATM   14  C13 UNL     1      29.449  10.276  48.046  1.00  0.00     0.128 C 
HETATM   15  N3  UNL     1      28.770   9.038  48.481  1.00  0.00    -0.336 N 
HETATM   16  C14 UNL     1      27.655   9.370  49.340  1.00  0.00     0.217 C 
HETATM   17  C15 UNL     1      26.741   8.378  49.970  1.00  0.00     0.117 C 
HETATM   18  O2  UNL     1      27.502  10.590  49.527  1.00  0.00    -0.274 OA
HETATM   19  C16 UNL     1      28.915   7.624  48.226  1.00  0.00     0.249 C 
HETATM   20  N4  UNL     1      29.782   6.869  49.056  1.00  0.00    -0.373 N 
HETATM   21  H7  UNL     1      35.714   7.416  46.257  1.00  0.00     0.167 HD
HETATM   22  H22 UNL     1      29.443   6.250  49.839  1.00  0.00     0.161 HD
ENDROOT
BRANCH   1  23
HETATM   23  O1  UNL     1      32.668   6.356  45.238  1.00  0.00    -0.354 OA
HETATM   24  C1  UNL     1      33.014   5.081  44.790  1.00  0.00     0.210 C 
ENDBRANCH   1  23
TORSDOF 1
ENDMDL
MODEL 6
REMARK VINA RESULT:      -6.7      2.118      2.983
REMARK  1 active torsions:
REMARK  status: ('A' for Active; 'I' for Inactive)
REMARK    1  A    between atoms: O1_2  and  C2_3 
REMARK       I    between atoms: N3_17  and  C14_18 
ROOT
HETATM    1  C2  UNL     1      21.351   3.002  49.532  1.00  0.00     0.097 A 
HETATM    2  C3  UNL     1      22.500   2.926  50.266  1.00  0.00     0.068 A 
HETATM    3  C4  UNL     1      22.663   3.116  51.646  1.00  0.00     0.032 A 
HETATM    4  C5  UNL     1      21.494   3.420  52.291  1.00  0.00     0.031 A 
HETATM    5  C6  UNL     1      20.315   3.510  51.612  1.00  0.00     0.035 A 
HETATM    6  C7  UNL     1      20.178   3.307  50.231  1.00  0.00     0.067 A 
HETATM    7  N1  UNL     1      18.831   3.309  49.705  1.00  0.00    -0.349 N 
HETATM    8  C8  UNL     1      18.987   1.865  49.955  1.00  0.00     0.207 C 
HETATM    9  N2  UNL     1      18.757   1.432  51.144  1.00  0.00    -0.256 NA
HETATM   10  C9  UNL     1      18.897   0.063  51.484  1.00  0.00     0.114 C 
HETATM   11  C10 UNL     1      19.611  -0.012  52.643  1.00  0.00    -0.007 C 
HETATM   12  C11 UNL     1      20.355  -0.441  53.875  1.00  0.00     0.030 C 
HETATM   13  C12 UNL     1      21.727   0.196  53.944  1.00  0.00     0.024 C 
HETATM   14  C13 UNL     1      22.598  -0.299  52.849  1.00  0.00     0.128 C 
HETATM   15  N3  UNL     1      23.829   0.500  52.679  1.00  0.00    -0.336 N 
HETATM   16  C14 UNL     1      24.797   0.122  53.685  1.00  0.00     0.217 C 
HETATM   17  C15 UNL     1      26.154   0.717  53.825  1.00  0.00     0.117 C 
HETATM   18  O2  UNL     1      24.406  -0.770  54.459  1.00  0.00    -0.274 OA
HETATM   19  C16 UNL     1      24.304   1.500  51.752  1.00  0.00     0.249 C 
HETATM   20  N4  UNL     1      24.031   2.864  52.024  1.00  0.00    -0.373 N 
HETATM   21  H7  UNL     1      18.126   3.984  49.341  1.00  0.00     0.167 HD
HETATM   22  H22 UNL     1      24.742   3.529  52.431  1.00  0.00     0.161 HD
ENDROOT
BRANCH   1  23
HETATM   23  O1  UNL     1      21.099   2.837  48.208  1.00  0.00    -0.354 OA
HETATM   24  C1  UNL     1      21.903   3.177  47.120  1.00  0.00     0.210 C 
ENDBRANCH   1  23
TORSDOF 1
ENDMDL
MODEL 7
REMARK VINA RESULT:      -6.7     10.439     12.515
REMARK  1 active torsions:
REMARK  status: ('A' for Active; 'I' for Inactive)
REMARK    1  A    between atoms: O1_2  and  C2_3 
REMARK       I    between atoms: N3_17  and  C14_18 
ROOT
HETATM    1  C2  UNL     1      32.212   8.863  47.916  1.00  0.00     0.097 A 
HETATM    2  C3  UNL     1      33.142   8.934  46.919  1.00  0.00     0.068 A 
HETATM    3  C4  UNL     1      34.305   8.166  46.762  1.00  0.00     0.032 A 
HETATM    4  C5  UNL     1      34.488   7.251  47.763  1.00  0.00     0.031 A 
HETATM    5  C6  UNL     1      33.593   7.133  48.785  1.00  0.00     0.035 A 
HETATM    6  C7  UNL     1      32.432   7.909  48.915  1.00  0.00     0.067 A 
HETATM    7  N1  UNL     1      31.530   7.553  49.988  1.00  0.00    -0.349 N 
HETATM    8  C8  UNL     1      30.937   6.751  48.903  1.00  0.00     0.207 C 
HETATM    9  N2  UNL     1      31.450   5.598  48.658  1.00  0.00    -0.256 NA
HETATM   10  C9  UNL     1      30.958   4.763  47.623  1.00  0.00     0.114 C 
HETATM   11  C10 UNL     1      32.025   4.310  46.904  1.00  0.00    -0.007 C 
HETATM   12  C11 UNL     1      32.952   3.648  45.925  1.00  0.00     0.030 C 
HETATM   13  C12 UNL     1      33.904   4.647  45.301  1.00  0.00     0.024 C 
HETATM   14  C13 UNL     1      33.171   5.619  44.451  1.00  0.00     0.128 C 
HETATM   15  N3  UNL     1      33.990   6.787  44.065  1.00  0.00    -0.336 N 
HETATM   16  C14 UNL     1      34.871   6.425  42.977  1.00  0.00     0.217 C 
HETATM   17  C15 UNL     1      35.845   7.346  42.328  1.00  0.00     0.117 C 
HETATM   18  O2  UNL     1      34.759   5.244  42.602  1.00  0.00    -0.274 OA
HETATM   19  C16 UNL     1      34.088   8.171  44.466  1.00  0.00     0.249 C 
HETATM   20  N4  UNL     1      34.965   8.512  45.526  1.00  0.00    -0.373 N 
HETATM   21  H7  UNL     1      31.385   7.760  50.998  1.00  0.00     0.167 HD
HETATM   22  H22 UNL     1      35.917   8.939  45.377  1.00  0.00     0.161 HD
ENDROOT
BRANCH   1  23
HETATM   23  O1  UNL     1      31.068   9.557  48.151  1.00  0.00    -0.354 OA
HETATM   24  C1  UNL     1      30.923  10.877  48.578  1.00  0.00     0.210 C 
ENDBRANCH   1  23
TORSDOF 1
ENDMDL
MODEL 8
REMARK VINA RESULT:      -6.6      3.578      6.210
REMARK  1 active torsions:
REMARK  status: ('A' for Active; 'I' for Inactive)
REMARK    1  A    between atoms: O1_2  and  C2_3 
REMARK       I    between atoms: N3_17  and  C14_18 
ROOT
HETATM    1  C2  UNL     1      21.985   4.757  49.186  1.00  0.00     0.097 A 
HETATM    2  C3  UNL     1      20.935   3.919  48.944  1.00  0.00     0.068 A 
HETATM    3  C4  UNL     1      20.967   2.540  48.691  1.00  0.00     0.032 A 
HETATM    4  C5  UNL     1      22.232   2.019  48.691  1.00  0.00     0.031 A 
HETATM    5  C6  UNL     1      23.321   2.806  48.928  1.00  0.00     0.035 A 
HETATM    6  C7  UNL     1      23.261   4.183  49.187  1.00  0.00     0.067 A 
HETATM    7  N1  UNL     1      24.503   4.830  49.549  1.00  0.00    -0.349 N 
HETATM    8  C8  UNL     1      24.003   4.502  50.896  1.00  0.00     0.207 C 
HETATM    9  N2  UNL     1      24.231   3.320  51.351  1.00  0.00    -0.256 NA
HETATM   10  C9  UNL     1      23.775   2.908  52.629  1.00  0.00     0.114 C 
HETATM   11  C10 UNL     1      23.186   1.686  52.490  1.00  0.00    -0.007 C 
HETATM   12  C11 UNL     1      22.483   0.373  52.684  1.00  0.00     0.030 C 
HETATM   13  C12 UNL     1      21.337   0.208  51.708  1.00  0.00     0.024 C 
HETATM   14  C13 UNL     1      20.263   1.196  51.978  1.00  0.00     0.128 C 
HETATM   15  N3  UNL     1      19.270   1.288  50.888  1.00  0.00    -0.336 N 
HETATM   16  C14 UNL     1      18.343   0.182  50.978  1.00  0.00     0.217 C 
HETATM   17  C15 UNL     1      17.208  -0.055  50.045  1.00  0.00     0.117 C 
HETATM   18  O2  UNL     1      18.565  -0.592  51.926  1.00  0.00    -0.274 OA
HETATM   19  C16 UNL     1      18.981   2.212  49.816  1.00  0.00     0.249 C 
HETATM   20  N4  UNL     1      19.624   2.027  48.566  1.00  0.00    -0.373 N 
HETATM   21  H7  UNL     1      25.319   5.286  49.090  1.00  0.00     0.167 HD
HETATM   22  H22 UNL     1      19.154   1.588  47.731  1.00  0.00     0.161 HD
ENDROOT
BRANCH   1  23
HETATM   23  O1  UNL     1      22.052   6.090  49.438  1.00  0.00    -0.354 OA
HETATM   24  C1  UNL     1      21.116   6.903  50.077  1.00  0.00     0.210 C 
ENDBRANCH   1  23
TORSDOF 1
ENDMDL
MODEL 9
REMARK VINA RESULT:      -6.6      3.175      5.463
REMARK  1 active torsions:
REMARK  status: ('A' for Active; 'I' for Inactive)
REMARK    1  A    between atoms: O1_2  and  C2_3 
REMARK       I    between atoms: N3_17  and  C14_18 
ROOT
HETATM    1  C2  UNL     1      18.464   2.948  51.420  1.00  0.00     0.097 A 
HETATM    2  C3  UNL     1      18.832   1.793  52.048  1.00  0.00     0.068 A 
HETATM    3  C4  UNL     1      19.628   0.751  51.551  1.00  0.00     0.032 A 
HETATM    4  C5  UNL     1      20.061   0.965  50.270  1.00  0.00     0.031 A 
HETATM    5  C6  UNL     1      19.728   2.101  49.592  1.00  0.00     0.035 A 
HETATM    6  C7  UNL     1      18.935   3.132  50.115  1.00  0.00     0.067 A 
HETATM    7  N1  UNL     1      18.797   4.321  49.303  1.00  0.00    -0.349 N 
HETATM    8  C8  UNL     1      19.955   4.724  50.121  1.00  0.00     0.207 C 
HETATM    9  N2  UNL     1      21.122   4.336  49.745  1.00  0.00    -0.256 NA
HETATM   10  C9  UNL     1      22.292   4.660  50.476  1.00  0.00     0.114 C 
HETATM   11  C10 UNL     1      23.027   3.521  50.620  1.00  0.00    -0.007 C 
HETATM   12  C11 UNL     1      24.056   2.479  50.954  1.00  0.00     0.030 C 
HETATM   13  C12 UNL     1      23.425   1.265  51.603  1.00  0.00     0.024 C 
HETATM   14  C13 UNL     1      22.863   1.607  52.934  1.00  0.00     0.128 C 
HETATM   15  N3  UNL     1      21.977   0.557  53.479  1.00  0.00    -0.336 N 
HETATM   16  C14 UNL     1      22.776  -0.513  54.036  1.00  0.00     0.217 C 
HETATM   17  C15 UNL     1      22.226  -1.742  54.671  1.00  0.00     0.117 C 
HETATM   18  O2  UNL     1      24.003  -0.333  53.946  1.00  0.00    -0.274 OA
HETATM   19  C16 UNL     1      20.553   0.368  53.628  1.00  0.00     0.249 C 
HETATM   20  N4  UNL     1      19.834  -0.247  52.572  1.00  0.00    -0.373 N 
HETATM   21  H7  UNL     1      18.192   4.689  48.539  1.00  0.00     0.167 HD
HETATM   22  H22 UNL     1      19.531  -1.256  52.587  1.00  0.00     0.161 HD
ENDROOT
BRANCH   1  23
HETATM   23  O1  UNL     1      17.704   4.002  51.815  1.00  0.00    -0.354 OA
HETATM   24  C1  UNL     1      16.316   4.075  51.940  1.00  0.00     0.210 C 
ENDBRANCH   1  23
TORSDOF 1
ENDMDL
