MODEL 1
REMARK VINA RESULT:      -8.5      0.000      0.000
REMARK  5 active torsions:
REMARK  status: ('A' for Active; 'I' for Inactive)
REMARK    1  A    between atoms: C2_2  and  N1_3 
REMARK    2  A    between atoms: C2_2  and  C14_19 
REMARK    3  A    between atoms: N1_3  and  C3_4 
REMARK    4  A    between atoms: C6_9  and  C7_10 
REMARK    5  A    between atoms: C8_11  and  N4_12 
ROOT
HETATM    1  C7  UNL     1      26.470   1.318  52.269  1.00  0.00    -0.015 C 
HETATM    2  C8  UNL     1      27.111   1.437  53.431  1.00  0.00     0.032 C 
HETATM    3  C9  UNL     1      27.666   0.283  54.181  1.00  0.00     0.165 C 
HETATM    4  C10 UNL     1      29.057   0.098  53.821  1.00  0.00     0.074 C 
HETATM    5  N5  UNL     1      30.162  -0.028  53.533  1.00  0.00    -0.196 NA
HETATM    6  C11 UNL     1      26.808  -0.909  53.844  1.00  0.00    -0.005 C 
HETATM    7  C12 UNL     1      26.203  -1.064  52.673  1.00  0.00    -0.024 C 
HETATM    8  C13 UNL     1      26.358  -0.034  51.623  1.00  0.00     0.068 C 
ENDROOT
BRANCH   2   9
HETATM    9  N4  UNL     1      27.282   2.736  54.040  1.00  0.00    -0.401 N 
HETATM   10  H8  UNL     1      26.905   3.709  53.878  1.00  0.00     0.156 HD
HETATM   11  H9  UNL     1      27.965   2.514  54.807  1.00  0.00     0.156 HD
ENDBRANCH   2   9
BRANCH   1  12
HETATM   12  C6  UNL     1      25.930   2.490  51.594  1.00  0.00     0.036 A 
HETATM   13  C3  UNL     1      24.675   3.007  51.754  1.00  0.00     0.137 A 
HETATM   14  N2  UNL     1      24.320   4.054  50.991  1.00  0.00    -0.224 NA
HETATM   15  C4  UNL     1      25.171   4.595  50.087  1.00  0.00     0.234 A 
HETATM   16  N3  UNL     1      26.424   4.086  49.925  1.00  0.00    -0.253 NA
HETATM   17  C5  UNL     1      26.827   3.024  50.675  1.00  0.00     0.134 A 
BRANCH  13  18
HETATM   18  N1  UNL     1      23.825   2.483  52.735  1.00  0.00    -0.366 N 
HETATM   19  H5  UNL     1      23.873   2.493  53.759  1.00  0.00     0.161 HD
BRANCH  18  20
HETATM   20  C2  UNL     1      22.627   1.797  52.268  1.00  0.00     0.112 C 
HETATM   21  C1  UNL     1      22.740   1.472  50.800  1.00  0.00     0.037 C 
BRANCH  20  22
HETATM   22  C14 UNL     1      22.253   0.627  53.087  1.00  0.00    -0.036 A 
HETATM   23  C15 UNL     1      20.934   0.158  53.090  1.00  0.00     0.009 A 
HETATM   24  C16 UNL     1      20.426  -0.909  53.799  1.00  0.00     0.001 A 
HETATM   25  C17 UNL     1      21.321  -1.592  54.597  1.00  0.00     0.000 A 
HETATM   26  C18 UNL     1      22.637  -1.186  54.646  1.00  0.00     0.001 A 
HETATM   27  C19 UNL     1      23.092  -0.100  53.907  1.00  0.00     0.009 A 
ENDBRANCH  20  22
ENDBRANCH  18  20
ENDBRANCH  13  18
ENDBRANCH   1  12
TORSDOF 5
ENDMDL
MODEL 2
REMARK VINA RESULT:      -8.3      2.034      4.562
REMARK  5 active torsions:
REMARK  status: ('A' for Active; 'I' for Inactive)
REMARK    1  A    between atoms: C2_2  and  N1_3 
REMARK    2  A    between atoms: C2_2  and  C14_19 
REMARK    3  A    between atoms: N1_3  and  C3_4 
REMARK    4  A    between atoms: C6_9  and  C7_10 
REMARK    5  A    between atoms: C8_11  and  N4_12 
ROOT
HETATM    1  C7  UNL     1      26.030  -0.534  53.805  1.00  0.00    -0.015 C 
HETATM    2  C8  UNL     1      26.799   0.256  54.554  1.00  0.00     0.032 C 
HETATM    3  C9  UNL     1      28.261   0.407  54.346  1.00  0.00     0.165 C 
HETATM    4  C10 UNL     1      28.510   1.548  53.488  1.00  0.00     0.074 C 
HETATM    5  N5  UNL     1      28.691   2.462  52.817  1.00  0.00    -0.196 NA
HETATM    6  C11 UNL     1      28.754  -0.890  53.758  1.00  0.00    -0.005 C 
HETATM    7  C12 UNL     1      28.015  -1.661  52.972  1.00  0.00    -0.024 C 
HETATM    8  C13 UNL     1      26.632  -1.258  52.635  1.00  0.00     0.068 C 
ENDROOT
BRANCH   2   9
HETATM    9  N4  UNL     1      26.228   1.008  55.646  1.00  0.00    -0.401 N 
HETATM   10  H8  UNL     1      25.396   1.645  55.780  1.00  0.00     0.156 HD
HETATM   11  H9  UNL     1      26.894   0.777  56.425  1.00  0.00     0.156 HD
ENDBRANCH   2   9
BRANCH   1  12
HETATM   12  C6  UNL     1      24.604  -0.654  54.076  1.00  0.00     0.036 A 
HETATM   13  C3  UNL     1      23.595  -0.059  53.372  1.00  0.00     0.137 A 
HETATM   14  N2  UNL     1      22.336  -0.221  53.811  1.00  0.00    -0.224 NA
HETATM   15  C4  UNL     1      22.057  -0.954  54.914  1.00  0.00     0.234 A 
HETATM   16  N3  UNL     1      23.057  -1.554  55.618  1.00  0.00    -0.253 NA
HETATM   17  C5  UNL     1      24.349  -1.415  55.213  1.00  0.00     0.134 A 
BRANCH  13  18
HETATM   18  N1  UNL     1      23.885   0.644  52.197  1.00  0.00    -0.366 N 
HETATM   19  H5  UNL     1      24.552   0.465  51.439  1.00  0.00     0.161 HD
BRANCH  18  20
HETATM   20  C2  UNL     1      23.118   1.859  51.951  1.00  0.00     0.112 C 
HETATM   21  C1  UNL     1      23.776   3.044  52.609  1.00  0.00     0.037 C 
BRANCH  20  22
HETATM   22  C14 UNL     1      22.811   2.091  50.526  1.00  0.00    -0.036 A 
HETATM   23  C15 UNL     1      21.904   1.263  49.853  1.00  0.00     0.009 A 
HETATM   24  C16 UNL     1      21.517   1.343  48.533  1.00  0.00     0.001 A 
HETATM   25  C17 UNL     1      22.091   2.355  47.790  1.00  0.00     0.000 A 
HETATM   26  C18 UNL     1      22.993   3.209  48.386  1.00  0.00     0.001 A 
HETATM   27  C19 UNL     1      23.345   3.079  49.725  1.00  0.00     0.009 A 
ENDBRANCH  20  22
ENDBRANCH  18  20
ENDBRANCH  13  18
ENDBRANCH   1  12
TORSDOF 5
ENDMDL
MODEL 3
REMARK VINA RESULT:      -7.9      1.323      2.107
REMARK  5 active torsions:
REMARK  status: ('A' for Active; 'I' for Inactive)
REMARK    1  A    between atoms: C2_2  and  N1_3 
REMARK    2  A    between atoms: C2_2  and  C14_19 
REMARK    3  A    between atoms: N1_3  and  C3_4 
REMARK    4  A    between atoms: C6_9  and  C7_10 
REMARK    5  A    between atoms: C8_11  and  N4_12 
ROOT
HETATM    1  C7  UNL     1      25.913   1.498  52.519  1.00  0.00    -0.015 C 
HETATM    2  C8  UNL     1      26.706   1.582  53.587  1.00  0.00     0.032 C 
HETATM    3  C9  UNL     1      26.845   0.495  54.588  1.00  0.00     0.165 C 
HETATM    4  C10 UNL     1      27.974  -0.341  54.237  1.00  0.00     0.074 C 
HETATM    5  N5  UNL     1      28.880  -0.988  53.951  1.00  0.00    -0.196 NA
HETATM    6  C11 UNL     1      25.539  -0.256  54.601  1.00  0.00    -0.005 C 
HETATM    7  C12 UNL     1      24.764  -0.388  53.532  1.00  0.00    -0.024 C 
HETATM    8  C13 UNL     1      25.172   0.220  52.248  1.00  0.00     0.068 C 
ENDROOT
BRANCH   2   9
HETATM    9  N4  UNL     1      27.474   2.779  53.834  1.00  0.00    -0.401 N 
HETATM   10  H8  UNL     1      27.267   3.810  53.936  1.00  0.00     0.156 HD
HETATM   11  H9  UNL     1      28.446   2.388  53.909  1.00  0.00     0.156 HD
ENDBRANCH   2   9
BRANCH   1  12
HETATM   12  C6  UNL     1      25.805   2.611  51.586  1.00  0.00     0.036 A 
HETATM   13  C3  UNL     1      24.932   3.658  51.675  1.00  0.00     0.137 A 
HETATM   14  N2  UNL     1      24.921   4.560  50.680  1.00  0.00    -0.224 NA
HETATM   15  C4  UNL     1      25.746   4.450  49.612  1.00  0.00     0.234 A 
HETATM   16  N3  UNL     1      26.621   3.410  49.518  1.00  0.00    -0.253 NA
HETATM   17  C5  UNL     1      26.667   2.471  50.502  1.00  0.00     0.134 A 
BRANCH  13  18
HETATM   18  N1  UNL     1      24.127   3.800  52.812  1.00  0.00    -0.366 N 
HETATM   19  H5  UNL     1      24.357   3.926  53.803  1.00  0.00     0.161 HD
BRANCH  18  20
HETATM   20  C2  UNL     1      22.685   3.783  52.601  1.00  0.00     0.112 C 
HETATM   21  C1  UNL     1      22.242   5.016  51.856  1.00  0.00     0.037 C 
BRANCH  20  22
HETATM   22  C14 UNL     1      22.187   2.534  51.990  1.00  0.00    -0.036 A 
HETATM   23  C15 UNL     1      21.763   1.472  52.797  1.00  0.00     0.009 A 
HETATM   24  C16 UNL     1      21.281   0.248  52.386  1.00  0.00     0.001 A 
HETATM   25  C17 UNL     1      21.210   0.048  51.022  1.00  0.00     0.000 A 
HETATM   26  C18 UNL     1      21.611   1.050  50.165  1.00  0.00     0.001 A 
HETATM   27  C19 UNL     1      22.089   2.266  50.640  1.00  0.00     0.009 A 
ENDBRANCH  20  22
ENDBRANCH  18  20
ENDBRANCH  13  18
ENDBRANCH   1  12
TORSDOF 5
ENDMDL
MODEL 4
REMARK VINA RESULT:      -7.9      1.975      6.176
REMARK  5 active torsions:
REMARK  status: ('A' for Active; 'I' for Inactive)
REMARK    1  A    between atoms: C2_2  and  N1_3 
REMARK    2  A    between atoms: C2_2  and  C14_19 
REMARK    3  A    between atoms: N1_3  and  C3_4 
REMARK    4  A    between atoms: C6_9  and  C7_10 
REMARK    5  A    between atoms: C8_11  and  N4_12 
ROOT
HETATM    1  C7  UNL     1      23.266   2.269  51.618  1.00  0.00    -0.015 C 
HETATM    2  C8  UNL     1      23.885   3.396  51.967  1.00  0.00     0.032 C 
HETATM    3  C9  UNL     1      24.170   4.500  51.018  1.00  0.00     0.165 C 
HETATM    4  C10 UNL     1      23.097   5.472  51.075  1.00  0.00     0.074 C 
HETATM    5  N5  UNL     1      22.244   6.240  51.140  1.00  0.00    -0.196 NA
HETATM    6  C11 UNL     1      24.324   3.875  49.655  1.00  0.00    -0.005 C 
HETATM    7  C12 UNL     1      23.676   2.781  49.278  1.00  0.00    -0.024 C 
HETATM    8  C13 UNL     1      22.747   2.116  50.216  1.00  0.00     0.068 C 
ENDROOT
BRANCH   2   9
HETATM    9  N4  UNL     1      24.338   3.588  53.325  1.00  0.00    -0.401 N 
HETATM   10  H8  UNL     1      24.964   3.071  54.001  1.00  0.00     0.156 HD
HETATM   11  H9  UNL     1      23.857   4.488  53.576  1.00  0.00     0.156 HD
ENDBRANCH   2   9
BRANCH   1  12
HETATM   12  C6  UNL     1      23.037   1.213  52.595  1.00  0.00     0.036 A 
HETATM   13  C3  UNL     1      23.895   0.195  52.899  1.00  0.00     0.137 A 
HETATM   14  N2  UNL     1      23.486  -0.737  53.776  1.00  0.00    -0.224 NA
HETATM   15  C4  UNL     1      22.262  -0.681  54.352  1.00  0.00     0.234 A 
HETATM   16  N3  UNL     1      21.403   0.333  54.056  1.00  0.00    -0.253 NA
HETATM   17  C5  UNL     1      21.773   1.299  53.171  1.00  0.00     0.134 A 
BRANCH  13  18
HETATM   18  N1  UNL     1      25.181   0.179  52.347  1.00  0.00    -0.366 N 
HETATM   19  H5  UNL     1      25.572   0.619  51.508  1.00  0.00     0.161 HD
BRANCH  18  20
HETATM   20  C2  UNL     1      26.195  -0.581  53.067  1.00  0.00     0.112 C 
HETATM   21  C1  UNL     1      26.552  -1.837  52.314  1.00  0.00     0.037 C 
BRANCH  20  22
HETATM   22  C14 UNL     1      27.379   0.216  53.448  1.00  0.00    -0.036 A 
HETATM   23  C15 UNL     1      27.326   1.614  53.431  1.00  0.00     0.009 A 
HETATM   24  C16 UNL     1      28.337   2.495  53.750  1.00  0.00     0.001 A 
HETATM   25  C17 UNL     1      29.538   1.932  54.129  1.00  0.00     0.000 A 
HETATM   26  C18 UNL     1      29.665   0.560  54.168  1.00  0.00     0.001 A 
HETATM   27  C19 UNL     1      28.608  -0.279  53.834  1.00  0.00     0.009 A 
ENDBRANCH  20  22
ENDBRANCH  18  20
ENDBRANCH  13  18
ENDBRANCH   1  12
TORSDOF 5
ENDMDL
MODEL 5
REMARK VINA RESULT:      -7.8      2.788      6.832
REMARK  5 active torsions:
REMARK  status: ('A' for Active; 'I' for Inactive)
REMARK    1  A    between atoms: C2_2  and  N1_3 
REMARK    2  A    between atoms: C2_2  and  C14_19 
REMARK    3  A    between atoms: N1_3  and  C3_4 
REMARK    4  A    between atoms: C6_9  and  C7_10 
REMARK    5  A    between atoms: C8_11  and  N4_12 
ROOT
HETATM    1  C7  UNL     1      23.593   2.917  51.114  1.00  0.00    -0.015 C 
HETATM    2  C8  UNL     1      22.881   3.973  51.504  1.00  0.00     0.032 C 
HETATM    3  C9  UNL     1      21.531   4.289  50.975  1.00  0.00     0.165 C 
HETATM    4  C10 UNL     1      20.526   3.715  51.847  1.00  0.00     0.074 C 
HETATM    5  N5  UNL     1      19.741   3.265  52.554  1.00  0.00    -0.196 NA
HETATM    6  C11 UNL     1      21.473   3.742  49.572  1.00  0.00    -0.005 C 
HETATM    7  C12 UNL     1      22.140   2.663  49.183  1.00  0.00    -0.024 C 
HETATM    8  C13 UNL     1      22.991   1.935  50.149  1.00  0.00     0.068 C 
ENDROOT
BRANCH   2   9
HETATM    9  N4  UNL     1      23.418   4.896  52.477  1.00  0.00    -0.401 N 
HETATM   10  H8  UNL     1      24.373   5.272  52.724  1.00  0.00     0.156 HD
HETATM   11  H9  UNL     1      22.547   5.182  52.990  1.00  0.00     0.156 HD
ENDBRANCH   2   9
BRANCH   1  12
HETATM   12  C6  UNL     1      24.923   2.675  51.657  1.00  0.00     0.036 A 
HETATM   13  C3  UNL     1      26.108   2.852  51.000  1.00  0.00     0.137 A 
HETATM   14  N2  UNL     1      27.241   2.507  51.634  1.00  0.00    -0.224 NA
HETATM   15  C4  UNL     1      27.226   1.999  52.889  1.00  0.00     0.234 A 
HETATM   16  N3  UNL     1      26.049   1.823  53.551  1.00  0.00    -0.253 NA
HETATM   17  C5  UNL     1      24.875   2.157  52.947  1.00  0.00     0.134 A 
BRANCH  13  18
HETATM   18  N1  UNL     1      26.119   3.436  49.728  1.00  0.00    -0.366 N 
HETATM   19  H5  UNL     1      25.869   3.069  48.804  1.00  0.00     0.161 HD
BRANCH  18  20
HETATM   20  C2  UNL     1      26.548   4.826  49.647  1.00  0.00     0.112 C 
HETATM   21  C1  UNL     1      27.592   4.999  48.573  1.00  0.00     0.037 C 
BRANCH  20  22
HETATM   22  C14 UNL     1      25.433   5.787  49.523  1.00  0.00    -0.036 A 
HETATM   23  C15 UNL     1      25.343   6.882  50.391  1.00  0.00     0.009 A 
HETATM   24  C16 UNL     1      24.370   7.857  50.410  1.00  0.00     0.001 A 
HETATM   25  C17 UNL     1      23.371   7.740  49.465  1.00  0.00     0.000 A 
HETATM   26  C18 UNL     1      23.394   6.686  48.577  1.00  0.00     0.001 A 
HETATM   27  C19 UNL     1      24.404   5.731  48.606  1.00  0.00     0.009 A 
ENDBRANCH  20  22
ENDBRANCH  18  20
ENDBRANCH  13  18
ENDBRANCH   1  12
TORSDOF 5
ENDMDL
MODEL 6
REMARK VINA RESULT:      -7.7      1.931      6.255
REMARK  5 active torsions:
REMARK  status: ('A' for Active; 'I' for Inactive)
REMARK    1  A    between atoms: C2_2  and  N1_3 
REMARK    2  A    between atoms: C2_2  and  C14_19 
REMARK    3  A    between atoms: N1_3  and  C3_4 
REMARK    4  A    between atoms: C6_9  and  C7_10 
REMARK    5  A    between atoms: C8_11  and  N4_12 
ROOT
HETATM    1  C7  UNL     1      22.805   2.911  51.864  1.00  0.00    -0.015 C 
HETATM    2  C8  UNL     1      22.770   2.941  50.533  1.00  0.00     0.032 C 
HETATM    3  C9  UNL     1      22.750   4.198  49.744  1.00  0.00     0.165 C 
HETATM    4  C10 UNL     1      24.104   4.559  49.378  1.00  0.00     0.074 C 
HETATM    5  N5  UNL     1      25.183   4.826  49.087  1.00  0.00    -0.196 NA
HETATM    6  C11 UNL     1      22.074   5.238  50.599  1.00  0.00    -0.005 C 
HETATM    7  C12 UNL     1      22.141   5.248  51.924  1.00  0.00    -0.024 C 
HETATM    8  C13 UNL     1      22.910   4.199  52.630  1.00  0.00     0.068 C 
ENDROOT
BRANCH   2   9
HETATM    9  N4  UNL     1      22.731   1.711  49.776  1.00  0.00    -0.401 N 
HETATM   10  H8  UNL     1      22.364   1.407  48.834  1.00  0.00     0.156 HD
HETATM   11  H9  UNL     1      23.215   1.050  50.434  1.00  0.00     0.156 HD
ENDBRANCH   2   9
BRANCH   1  12
HETATM   12  C6  UNL     1      22.802   1.642  52.579  1.00  0.00     0.036 A 
HETATM   13  C3  UNL     1      23.897   0.990  53.072  1.00  0.00     0.137 A 
HETATM   14  N2  UNL     1      23.714  -0.213  53.642  1.00  0.00    -0.224 NA
HETATM   15  C4  UNL     1      22.486  -0.775  53.735  1.00  0.00     0.234 A 
HETATM   16  N3  UNL     1      21.390  -0.129  53.249  1.00  0.00    -0.253 NA
HETATM   17  C5  UNL     1      21.527   1.091  52.662  1.00  0.00     0.134 A 
BRANCH  13  18
HETATM   18  N1  UNL     1      25.153   1.605  53.028  1.00  0.00    -0.366 N 
HETATM   19  H5  UNL     1      25.564   2.363  53.584  1.00  0.00     0.161 HD
BRANCH  18  20
HETATM   20  C2  UNL     1      26.095   1.107  52.034  1.00  0.00     0.112 C 
HETATM   21  C1  UNL     1      26.515   2.213  51.100  1.00  0.00     0.037 C 
BRANCH  20  22
HETATM   22  C14 UNL     1      27.241   0.378  52.612  1.00  0.00    -0.036 A 
HETATM   23  C15 UNL     1      28.324   1.078  53.156  1.00  0.00     0.009 A 
HETATM   24  C16 UNL     1      29.463   0.550  53.724  1.00  0.00     0.001 A 
HETATM   25  C17 UNL     1      29.545  -0.828  53.758  1.00  0.00     0.000 A 
HETATM   26  C18 UNL     1      28.516  -1.584  53.239  1.00  0.00     0.001 A 
HETATM   27  C19 UNL     1      27.389  -0.993  52.678  1.00  0.00     0.009 A 
ENDBRANCH  20  22
ENDBRANCH  18  20
ENDBRANCH  13  18
ENDBRANCH   1  12
TORSDOF 5
ENDMDL
MODEL 7
REMARK VINA RESULT:      -7.6      2.107      5.867
REMARK  5 active torsions:
REMARK  status: ('A' for Active; 'I' for Inactive)
REMARK    1  A    between atoms: C2_2  and  N1_3 
REMARK    2  A    between atoms: C2_2  and  C14_19 
REMARK    3  A    between atoms: N1_3  and  C3_4 
REMARK    4  A    between atoms: C6_9  and  C7_10 
REMARK    5  A    between atoms: C8_11  and  N4_12 
ROOT
HETATM    1  C7  UNL     1      23.235   2.828  51.977  1.00  0.00    -0.015 C 
HETATM    2  C8  UNL     1      23.527   2.951  50.683  1.00  0.00     0.032 C 
HETATM    3  C9  UNL     1      24.289   4.094  50.121  1.00  0.00     0.165 C 
HETATM    4  C10 UNL     1      25.695   3.752  50.059  1.00  0.00     0.074 C 
HETATM    5  N5  UNL     1      26.805   3.461  50.005  1.00  0.00    -0.196 NA
HETATM    6  C11 UNL     1      24.011   5.280  51.008  1.00  0.00    -0.005 C 
HETATM    7  C12 UNL     1      23.767   5.176  52.308  1.00  0.00    -0.024 C 
HETATM    8  C13 UNL     1      23.758   3.845  52.951  1.00  0.00     0.068 C 
ENDROOT
BRANCH   2   9
HETATM    9  N4  UNL     1      23.085   1.952  49.737  1.00  0.00    -0.401 N 
HETATM   10  H8  UNL     1      22.747   1.947  48.737  1.00  0.00     0.156 HD
HETATM   11  H9  UNL     1      23.171   1.076  50.310  1.00  0.00     0.156 HD
ENDBRANCH   2   9
BRANCH   1  12
HETATM   12  C6  UNL     1      22.465   1.691  52.460  1.00  0.00     0.036 A 
HETATM   13  C3  UNL     1      22.961   0.463  52.794  1.00  0.00     0.137 A 
HETATM   14  N2  UNL     1      22.090  -0.496  53.152  1.00  0.00    -0.224 NA
HETATM   15  C4  UNL     1      20.757  -0.266  53.189  1.00  0.00     0.234 A 
HETATM   16  N3  UNL     1      20.255   0.957  52.861  1.00  0.00    -0.253 NA
HETATM   17  C5  UNL     1      21.099   1.958  52.490  1.00  0.00     0.134 A 
BRANCH  13  18
HETATM   18  N1  UNL     1      24.345   0.252  52.815  1.00  0.00    -0.366 N 
HETATM   19  H5  UNL     1      25.016   0.038  52.070  1.00  0.00     0.161 HD
BRANCH  18  20
HETATM   20  C2  UNL     1      25.006   0.356  54.109  1.00  0.00     0.112 C 
HETATM   21  C1  UNL     1      24.881  -0.936  54.875  1.00  0.00     0.037 C 
BRANCH  20  22
HETATM   22  C14 UNL     1      26.397   0.845  54.030  1.00  0.00    -0.036 A 
HETATM   23  C15 UNL     1      27.426   0.159  54.686  1.00  0.00     0.009 A 
HETATM   24  C16 UNL     1      28.765   0.486  54.714  1.00  0.00     0.001 A 
HETATM   25  C17 UNL     1      29.130   1.619  54.016  1.00  0.00     0.000 A 
HETATM   26  C18 UNL     1      28.170   2.345  53.346  1.00  0.00     0.001 A 
HETATM   27  C19 UNL     1      26.833   1.966  53.353  1.00  0.00     0.009 A 
ENDBRANCH  20  22
ENDBRANCH  18  20
ENDBRANCH  13  18
ENDBRANCH   1  12
TORSDOF 5
ENDMDL
MODEL 8
REMARK VINA RESULT:      -7.5      1.842      5.281
REMARK  5 active torsions:
REMARK  status: ('A' for Active; 'I' for Inactive)
REMARK    1  A    between atoms: C2_2  and  N1_3 
REMARK    2  A    between atoms: C2_2  and  C14_19 
REMARK    3  A    between atoms: N1_3  and  C3_4 
REMARK    4  A    between atoms: C6_9  and  C7_10 
REMARK    5  A    between atoms: C8_11  and  N4_12 
ROOT
HETATM    1  C7  UNL     1      23.175   2.343  50.907  1.00  0.00    -0.015 C 
HETATM    2  C8  UNL     1      22.675   2.651  52.103  1.00  0.00     0.032 C 
HETATM    3  C9  UNL     1      21.375   2.137  52.602  1.00  0.00     0.165 C 
HETATM    4  C10 UNL     1      21.599   0.936  53.381  1.00  0.00     0.074 C 
HETATM    5  N5  UNL     1      21.794  -0.008  54.006  1.00  0.00    -0.196 NA
HETATM    6  C11 UNL     1      20.507   1.901  51.394  1.00  0.00    -0.005 C 
HETATM    7  C12 UNL     1      20.988   1.546  50.209  1.00  0.00    -0.024 C 
HETATM    8  C13 UNL     1      22.445   1.365  50.030  1.00  0.00     0.068 C 
ENDROOT
BRANCH   2   9
HETATM    9  N4  UNL     1      23.392   3.541  52.986  1.00  0.00    -0.401 N 
HETATM   10  H8  UNL     1      24.331   4.025  52.983  1.00  0.00     0.156 HD
HETATM   11  H9  UNL     1      22.704   3.647  53.773  1.00  0.00     0.156 HD
ENDBRANCH   2   9
BRANCH   1  12
HETATM   12  C6  UNL     1      24.448   2.898  50.468  1.00  0.00     0.036 A 
HETATM   13  C3  UNL     1      25.689   2.477  50.853  1.00  0.00     0.137 A 
HETATM   14  N2  UNL     1      26.756   3.157  50.404  1.00  0.00    -0.224 NA
HETATM   15  C4  UNL     1      26.623   4.230  49.589  1.00  0.00     0.234 A 
HETATM   16  N3  UNL     1      25.389   4.654  49.198  1.00  0.00    -0.253 NA
HETATM   17  C5  UNL     1      24.278   3.997  49.630  1.00  0.00     0.134 A 
BRANCH  13  18
HETATM   18  N1  UNL     1      25.821   1.329  51.644  1.00  0.00    -0.366 N 
HETATM   19  H5  UNL     1      25.317   0.436  51.644  1.00  0.00     0.161 HD
BRANCH  18  20
HETATM   20  C2  UNL     1      26.862   1.351  52.664  1.00  0.00     0.112 C 
HETATM   21  C1  UNL     1      26.325   1.906  53.958  1.00  0.00     0.037 C 
BRANCH  20  22
HETATM   22  C14 UNL     1      27.553   0.057  52.838  1.00  0.00    -0.036 A 
HETATM   23  C15 UNL     1      26.911  -1.139  52.498  1.00  0.00     0.009 A 
HETATM   24  C16 UNL     1      27.412  -2.419  52.604  1.00  0.00     0.001 A 
HETATM   25  C17 UNL     1      28.693  -2.531  53.104  1.00  0.00     0.000 A 
HETATM   26  C18 UNL     1      29.387  -1.396  53.462  1.00  0.00     0.001 A 
HETATM   27  C19 UNL     1      28.828  -0.129  53.331  1.00  0.00     0.009 A 
ENDBRANCH  20  22
ENDBRANCH  18  20
ENDBRANCH  13  18
ENDBRANCH   1  12
TORSDOF 5
ENDMDL
MODEL 9
REMARK VINA RESULT:      -7.5      2.189      6.515
REMARK  5 active torsions:
REMARK  status: ('A' for Active; 'I' for Inactive)
REMARK    1  A    between atoms: C2_2  and  N1_3 
REMARK    2  A    between atoms: C2_2  and  C14_19 
REMARK    3  A    between atoms: N1_3  and  C3_4 
REMARK    4  A    between atoms: C6_9  and  C7_10 
REMARK    5  A    between atoms: C8_11  and  N4_12 
ROOT
HETATM    1  C7  UNL     1      22.512   2.491  50.751  1.00  0.00    -0.015 C 
HETATM    2  C8  UNL     1      22.137   3.737  51.036  1.00  0.00     0.032 C 
HETATM    3  C9  UNL     1      22.018   4.809  50.016  1.00  0.00     0.165 C 
HETATM    4  C10 UNL     1      20.652   4.868  49.538  1.00  0.00     0.074 C 
HETATM    5  N5  UNL     1      19.562   4.911  49.177  1.00  0.00    -0.196 NA
HETATM    6  C11 UNL     1      23.008   4.486  48.927  1.00  0.00    -0.005 C 
HETATM    7  C12 UNL     1      23.354   3.247  48.600  1.00  0.00    -0.024 C 
HETATM    8  C13 UNL     1      22.756   2.102  49.320  1.00  0.00     0.068 C 
ENDROOT
BRANCH   2   9
HETATM    9  N4  UNL     1      21.839   4.116  52.397  1.00  0.00    -0.401 N 
HETATM   10  H8  UNL     1      21.646   3.610  53.305  1.00  0.00     0.156 HD
HETATM   11  H9  UNL     1      21.845   5.164  52.325  1.00  0.00     0.156 HD
ENDBRANCH   2   9
BRANCH   1  12
HETATM   12  C6  UNL     1      22.630   1.491  51.803  1.00  0.00     0.036 A 
HETATM   13  C3  UNL     1      23.727   1.269  52.587  1.00  0.00     0.137 A 
HETATM   14  N2  UNL     1      23.685   0.251  53.462  1.00  0.00    -0.224 NA
HETATM   15  C4  UNL     1      22.593  -0.541  53.577  1.00  0.00     0.234 A 
HETATM   16  N3  UNL     1      21.495  -0.324  52.802  1.00  0.00    -0.253 NA
HETATM   17  C5  UNL     1      21.493   0.696  51.900  1.00  0.00     0.134 A 
BRANCH  13  18
HETATM   18  N1  UNL     1      24.827   2.131  52.506  1.00  0.00    -0.366 N 
HETATM   19  H5  UNL     1      25.020   3.038  52.944  1.00  0.00     0.161 HD
BRANCH  18  20
HETATM   20  C2  UNL     1      25.938   1.702  51.666  1.00  0.00     0.112 C 
HETATM   21  C1  UNL     1      26.394   2.828  50.773  1.00  0.00     0.037 C 
BRANCH  20  22
HETATM   22  C14 UNL     1      27.047   1.079  52.416  1.00  0.00    -0.036 A 
HETATM   23  C15 UNL     1      27.151  -0.314  52.499  1.00  0.00     0.009 A 
HETATM   24  C16 UNL     1      28.115  -1.044  53.160  1.00  0.00     0.001 A 
HETATM   25  C17 UNL     1      29.088  -0.316  53.815  1.00  0.00     0.000 A 
HETATM   26  C18 UNL     1      29.050   1.061  53.777  1.00  0.00     0.001 A 
HETATM   27  C19 UNL     1      28.050   1.743  53.093  1.00  0.00     0.009 A 
ENDBRANCH  20  22
ENDBRANCH  18  20
ENDBRANCH  13  18
ENDBRANCH   1  12
TORSDOF 5
ENDMDL
