MODEL 1
REMARK VINA RESULT:      -7.6      0.000      0.000
REMARK  3 active torsions:
REMARK  status: ('A' for Active; 'I' for Inactive)
REMARK    1  A    between atoms: O1_2  and  C2_3 
REMARK    2  A    between atoms: C2_3  and  C3_4 
REMARK    3  A    between atoms: C3_4  and  C4_5 
ROOT
HETATM    1  C4  UNL     1      25.925  -0.361  54.376  1.00  0.00     0.064 C 
HETATM    2  N1  UNL     1      27.036  -0.368  55.189  1.00  0.00    -0.248 NA
HETATM    3  C5  UNL     1      28.210   0.479  54.847  1.00  0.00     0.228 C 
HETATM    4  N2  UNL     1      28.491   1.145  53.729  1.00  0.00    -0.255 NA
HETATM    5  C6  UNL     1      27.809   1.844  52.685  1.00  0.00     0.390 C 
HETATM    6  N3  UNL     1      26.639   1.201  52.059  1.00  0.00    -0.007 N 
HETATM    7  C7  UNL     1      26.570  -0.285  51.784  1.00  0.00     0.277 A 
HETATM    8  C8  UNL     1      25.800  -0.004  52.866  1.00  0.00     0.230 A 
HETATM    9  C9  UNL     1      24.603   0.902  52.786  1.00  0.00     0.001 C 
HETATM   10  C10 UNL     1      23.440   1.425  52.938  1.00  0.00     0.020 C 
HETATM   11  C11 UNL     1      23.537   2.650  52.150  1.00  0.00    -0.027 A 
HETATM   12  C12 UNL     1      22.516   3.624  52.215  1.00  0.00     0.012 A 
HETATM   13  C13 UNL     1      22.825   4.841  51.595  1.00  0.00     0.001 A 
HETATM   14  C14 UNL     1      24.040   5.057  50.971  1.00  0.00     0.001 A 
HETATM   15  C15 UNL     1      25.025   4.062  50.927  1.00  0.00     0.010 A 
HETATM   16  C16 UNL     1      24.752   2.853  51.523  1.00  0.00    -0.013 A 
HETATM   17  C17 UNL     1      25.335   1.573  51.580  1.00  0.00     0.260 C 
ENDROOT
BRANCH   1  18
HETATM   18  C3  UNL     1      24.571  -0.696  54.827  1.00  0.00     0.080 C 
BRANCH  18  19
HETATM   19  C2  UNL     1      23.465  -1.311  55.112  1.00  0.00     0.161 C 
BRANCH  19  20
HETATM   20  O1  UNL     1      22.245  -1.897  55.310  1.00  0.00    -0.387 OA
HETATM   21  C1  UNL     1      21.136  -1.643  54.451  1.00  0.00     0.202 C 
ENDBRANCH  19  20
ENDBRANCH  18  19
ENDBRANCH   1  18
TORSDOF 3
ENDMDL
MODEL 2
REMARK VINA RESULT:      -7.4      4.045      7.124
REMARK  3 active torsions:
REMARK  status: ('A' for Active; 'I' for Inactive)
REMARK    1  A    between atoms: O1_2  and  C2_3 
REMARK    2  A    between atoms: C2_3  and  C3_4 
REMARK    3  A    between atoms: C3_4  and  C4_5 
ROOT
HETATM    1  C4  UNL     1      25.713   5.639  49.436  1.00  0.00     0.064 C 
HETATM    2  N1  UNL     1      25.469   6.933  49.838  1.00  0.00    -0.248 NA
HETATM    3  C5  UNL     1      24.382   7.215  50.814  1.00  0.00     0.228 C 
HETATM    4  N2  UNL     1      23.405   6.428  51.260  1.00  0.00    -0.255 NA
HETATM    5  C6  UNL     1      23.176   5.048  51.555  1.00  0.00     0.390 C 
HETATM    6  N3  UNL     1      23.592   4.040  50.562  1.00  0.00    -0.007 N 
HETATM    7  C7  UNL     1      23.456   4.255  49.071  1.00  0.00     0.277 A 
HETATM    8  C8  UNL     1      24.759   4.408  49.418  1.00  0.00     0.230 A 
HETATM    9  C9  UNL     1      25.568   3.291  50.016  1.00  0.00     0.001 C 
HETATM   10  C10 UNL     1      26.513   2.471  50.307  1.00  0.00     0.020 C 
HETATM   11  C11 UNL     1      25.896   1.622  51.321  1.00  0.00    -0.027 A 
HETATM   12  C12 UNL     1      26.677   0.700  52.052  1.00  0.00     0.012 A 
HETATM   13  C13 UNL     1      26.022   0.108  53.139  1.00  0.00     0.001 A 
HETATM   14  C14 UNL     1      24.712   0.413  53.460  1.00  0.00     0.001 A 
HETATM   15  C15 UNL     1      23.971   1.332  52.705  1.00  0.00     0.010 A 
HETATM   16  C16 UNL     1      24.583   1.929  51.628  1.00  0.00    -0.013 A 
HETATM   17  C17 UNL     1      24.204   2.739  50.541  1.00  0.00     0.260 C 
ENDROOT
BRANCH   1  18
HETATM   18  C3  UNL     1      27.004   5.159  48.936  1.00  0.00     0.080 C 
BRANCH  18  19
HETATM   19  C2  UNL     1      28.218   5.079  48.486  1.00  0.00     0.161 C 
BRANCH  19  20
HETATM   20  O1  UNL     1      29.534   5.069  48.114  1.00  0.00    -0.387 OA
HETATM   21  C1  UNL     1      30.437   6.102  48.500  1.00  0.00     0.202 C 
ENDBRANCH  19  20
ENDBRANCH  18  19
ENDBRANCH   1  18
TORSDOF 3
ENDMDL
MODEL 3
REMARK VINA RESULT:      -7.3      3.204      5.953
REMARK  3 active torsions:
REMARK  status: ('A' for Active; 'I' for Inactive)
REMARK    1  A    between atoms: O1_2  and  C2_3 
REMARK    2  A    between atoms: C2_3  and  C3_4 
REMARK    3  A    between atoms: C3_4  and  C4_5 
ROOT
HETATM    1  C4  UNL     1      24.369   3.480  51.111  1.00  0.00     0.064 C 
HETATM    2  N1  UNL     1      24.189   4.842  51.192  1.00  0.00    -0.248 NA
HETATM    3  C5  UNL     1      22.813   5.409  51.216  1.00  0.00     0.228 C 
HETATM    4  N2  UNL     1      21.642   4.827  50.965  1.00  0.00    -0.255 NA
HETATM    5  C6  UNL     1      21.012   3.552  51.114  1.00  0.00     0.390 C 
HETATM    6  N3  UNL     1      21.749   2.351  50.680  1.00  0.00    -0.007 N 
HETATM    7  C7  UNL     1      22.625   2.328  49.447  1.00  0.00     0.277 A 
HETATM    8  C8  UNL     1      23.419   2.384  50.545  1.00  0.00     0.230 A 
HETATM    9  C9  UNL     1      23.433   1.296  51.582  1.00  0.00     0.001 C 
HETATM   10  C10 UNL     1      23.801   0.431  52.458  1.00  0.00     0.020 C 
HETATM   11  C11 UNL     1      22.533  -0.159  52.875  1.00  0.00    -0.027 A 
HETATM   12  C12 UNL     1      22.481  -1.031  53.985  1.00  0.00     0.012 A 
HETATM   13  C13 UNL     1      21.189  -1.352  54.419  1.00  0.00     0.001 A 
HETATM   14  C14 UNL     1      20.061  -0.846  53.800  1.00  0.00     0.001 A 
HETATM   15  C15 UNL     1      20.158   0.014  52.698  1.00  0.00     0.010 A 
HETATM   16  C16 UNL     1      21.412   0.347  52.243  1.00  0.00    -0.013 A 
HETATM   17  C17 UNL     1      21.968   1.002  51.128  1.00  0.00     0.260 C 
ENDROOT
BRANCH   1  18
HETATM   18  C3  UNL     1      25.561   2.776  51.592  1.00  0.00     0.080 C 
BRANCH  18  19
HETATM   19  C2  UNL     1      26.773   2.453  51.924  1.00  0.00     0.161 C 
BRANCH  19  20
HETATM   20  O1  UNL     1      27.997   2.020  52.353  1.00  0.00    -0.387 OA
HETATM   21  C1  UNL     1      28.541   2.414  53.610  1.00  0.00     0.202 C 
ENDBRANCH  19  20
ENDBRANCH  18  19
ENDBRANCH   1  18
TORSDOF 3
ENDMDL
MODEL 4
REMARK VINA RESULT:      -7.3      3.606      6.629
REMARK  3 active torsions:
REMARK  status: ('A' for Active; 'I' for Inactive)
REMARK    1  A    between atoms: O1_2  and  C2_3 
REMARK    2  A    between atoms: C2_3  and  C3_4 
REMARK    3  A    between atoms: C3_4  and  C4_5 
ROOT
HETATM    1  C4  UNL     1      22.450   2.999  50.834  1.00  0.00     0.064 C 
HETATM    2  N1  UNL     1      21.613   4.084  50.966  1.00  0.00    -0.248 NA
HETATM    3  C5  UNL     1      20.371   3.970  51.777  1.00  0.00     0.228 C 
HETATM    4  N2  UNL     1      19.770   2.892  52.277  1.00  0.00    -0.255 NA
HETATM    5  C6  UNL     1      20.114   1.608  52.804  1.00  0.00     0.390 C 
HETATM    6  N3  UNL     1      21.074   0.777  52.055  1.00  0.00    -0.007 N 
HETATM    7  C7  UNL     1      21.098   0.713  50.544  1.00  0.00     0.277 A 
HETATM    8  C8  UNL     1      22.135   1.480  50.965  1.00  0.00     0.230 A 
HETATM    9  C9  UNL     1      23.239   0.935  51.827  1.00  0.00     0.001 C 
HETATM   10  C10 UNL     1      24.385   0.674  52.345  1.00  0.00     0.020 C 
HETATM   11  C11 UNL     1      24.041  -0.223  53.443  1.00  0.00    -0.027 A 
HETATM   12  C12 UNL     1      25.016  -0.591  54.397  1.00  0.00     0.012 A 
HETATM   13  C13 UNL     1      24.516  -1.269  55.516  1.00  0.00     0.001 A 
HETATM   14  C14 UNL     1      23.170  -1.548  55.662  1.00  0.00     0.001 A 
HETATM   15  C15 UNL     1      22.236  -1.167  54.689  1.00  0.00     0.010 A 
HETATM   16  C16 UNL     1      22.694  -0.504  53.575  1.00  0.00    -0.013 A 
HETATM   17  C17 UNL     1      22.181  -0.100  52.328  1.00  0.00     0.260 C 
ENDROOT
BRANCH   1  18
HETATM   18  C3  UNL     1      23.883   3.093  50.544  1.00  0.00     0.080 C 
BRANCH  18  19
HETATM   19  C2  UNL     1      25.034   3.342  50.000  1.00  0.00     0.161 C 
BRANCH  19  20
HETATM   20  O1  UNL     1      26.254   3.475  49.396  1.00  0.00    -0.387 OA
HETATM   21  C1  UNL     1      26.769   4.745  49.004  1.00  0.00     0.202 C 
ENDBRANCH  19  20
ENDBRANCH  18  19
ENDBRANCH   1  18
TORSDOF 3
ENDMDL
MODEL 5
REMARK VINA RESULT:      -7.0      6.746      9.230
REMARK  3 active torsions:
REMARK  status: ('A' for Active; 'I' for Inactive)
REMARK    1  A    between atoms: O1_2  and  C2_3 
REMARK    2  A    between atoms: C2_3  and  C3_4 
REMARK    3  A    between atoms: C3_4  and  C4_5 
ROOT
HETATM    1  C4  UNL     1      30.860   7.440  48.316  1.00  0.00     0.064 C 
HETATM    2  N1  UNL     1      31.493   8.456  48.996  1.00  0.00    -0.248 NA
HETATM    3  C5  UNL     1      30.694   9.568  49.579  1.00  0.00     0.228 C 
HETATM    4  N2  UNL     1      29.417   9.894  49.395  1.00  0.00    -0.255 NA
HETATM    5  C6  UNL     1      28.162   9.257  49.145  1.00  0.00     0.390 C 
HETATM    6  N3  UNL     1      28.095   8.230  48.090  1.00  0.00    -0.007 N 
HETATM    7  C7  UNL     1      28.860   8.339  46.790  1.00  0.00     0.277 A 
HETATM    8  C8  UNL     1      29.483   7.437  47.589  1.00  0.00     0.230 A 
HETATM    9  C9  UNL     1      28.816   6.170  48.043  1.00  0.00     0.001 C 
HETATM   10  C10 UNL     1      28.573   4.950  48.366  1.00  0.00     0.020 C 
HETATM   11  C11 UNL     1      27.177   5.004  48.788  1.00  0.00    -0.027 A 
HETATM   12  C12 UNL     1      26.576   3.889  49.412  1.00  0.00     0.012 A 
HETATM   13  C13 UNL     1      25.314   4.136  49.967  1.00  0.00     0.001 A 
HETATM   14  C14 UNL     1      24.716   5.381  49.901  1.00  0.00     0.001 A 
HETATM   15  C15 UNL     1      25.347   6.461  49.269  1.00  0.00     0.010 A 
HETATM   16  C16 UNL     1      26.585   6.251  48.709  1.00  0.00    -0.013 A 
HETATM   17  C17 UNL     1      27.474   6.951  47.871  1.00  0.00     0.260 C 
ENDROOT
BRANCH   1  18
HETATM   18  C3  UNL     1      31.403   6.087  48.162  1.00  0.00     0.080 C 
BRANCH  18  19
HETATM   19  C2  UNL     1      32.188   5.058  48.077  1.00  0.00     0.161 C 
BRANCH  19  20
HETATM   20  O1  UNL     1      32.911   3.905  47.942  1.00  0.00    -0.387 OA
HETATM   21  C1  UNL     1      32.527   2.873  47.038  1.00  0.00     0.202 C 
ENDBRANCH  19  20
ENDBRANCH  18  19
ENDBRANCH   1  18
TORSDOF 3
ENDMDL
MODEL 6
REMARK VINA RESULT:      -6.9      3.148      5.460
REMARK  3 active torsions:
REMARK  status: ('A' for Active; 'I' for Inactive)
REMARK    1  A    between atoms: O1_2  and  C2_3 
REMARK    2  A    between atoms: C2_3  and  C3_4 
REMARK    3  A    between atoms: C3_4  and  C4_5 
ROOT
HETATM    1  C4  UNL     1      20.560   1.365  50.765  1.00  0.00     0.064 C 
HETATM    2  N1  UNL     1      20.106   1.389  49.466  1.00  0.00    -0.248 NA
HETATM    3  C5  UNL     1      20.985   1.907  48.382  1.00  0.00     0.228 C 
HETATM    4  N2  UNL     1      22.135   2.574  48.456  1.00  0.00    -0.255 NA
HETATM    5  C6  UNL     1      23.291   2.649  49.294  1.00  0.00     0.390 C 
HETATM    6  N3  UNL     1      23.096   2.741  50.752  1.00  0.00    -0.007 N 
HETATM    7  C7  UNL     1      21.978   3.544  51.380  1.00  0.00     0.277 A 
HETATM    8  C8  UNL     1      21.661   2.227  51.449  1.00  0.00     0.230 A 
HETATM    9  C9  UNL     1      22.494   1.240  52.218  1.00  0.00     0.001 C 
HETATM   10  C10 UNL     1      22.880   0.271  52.968  1.00  0.00     0.020 C 
HETATM   11  C11 UNL     1      24.334   0.358  52.879  1.00  0.00    -0.027 A 
HETATM   12  C12 UNL     1      25.146  -0.666  53.413  1.00  0.00     0.012 A 
HETATM   13  C13 UNL     1      26.501  -0.580  53.072  1.00  0.00     0.001 A 
HETATM   14  C14 UNL     1      26.992   0.435  52.272  1.00  0.00     0.001 A 
HETATM   15  C15 UNL     1      26.151   1.435  51.764  1.00  0.00     0.010 A 
HETATM   16  C16 UNL     1      24.815   1.382  52.084  1.00  0.00    -0.013 A 
HETATM   17  C17 UNL     1      23.686   2.213  51.953  1.00  0.00     0.260 C 
ENDROOT
BRANCH   1  18
HETATM   18  C3  UNL     1      20.062   0.449  51.795  1.00  0.00     0.080 C 
BRANCH  18  19
HETATM   19  C2  UNL     1      19.314  -0.214  52.622  1.00  0.00     0.161 C 
BRANCH  19  20
HETATM   20  O1  UNL     1      18.540  -1.018  53.413  1.00  0.00    -0.387 OA
HETATM   21  C1  UNL     1      17.282  -1.524  52.975  1.00  0.00     0.202 C 
ENDBRANCH  19  20
ENDBRANCH  18  19
ENDBRANCH   1  18
TORSDOF 3
ENDMDL
MODEL 7
REMARK VINA RESULT:      -6.8      3.257      5.199
REMARK  3 active torsions:
REMARK  status: ('A' for Active; 'I' for Inactive)
REMARK    1  A    between atoms: O1_2  and  C2_3 
REMARK    2  A    between atoms: C2_3  and  C3_4 
REMARK    3  A    between atoms: C3_4  and  C4_5 
ROOT
HETATM    1  C4  UNL     1      26.491   2.102  51.625  1.00  0.00     0.064 C 
HETATM    2  N1  UNL     1      27.487   1.189  51.886  1.00  0.00    -0.248 NA
HETATM    3  C5  UNL     1      27.192  -0.017  52.707  1.00  0.00     0.228 C 
HETATM    4  N2  UNL     1      26.126  -0.308  53.449  1.00  0.00    -0.255 NA
HETATM    5  C6  UNL     1      24.714  -0.084  53.451  1.00  0.00     0.390 C 
HETATM    6  N3  UNL     1      24.221   1.284  53.206  1.00  0.00    -0.007 N 
HETATM    7  C7  UNL     1      24.917   2.514  53.744  1.00  0.00     0.277 A 
HETATM    8  C8  UNL     1      25.187   2.405  52.419  1.00  0.00     0.230 A 
HETATM    9  C9  UNL     1      24.109   2.464  51.373  1.00  0.00     0.001 C 
HETATM   10  C10 UNL     1      23.437   2.710  50.307  1.00  0.00     0.020 C 
HETATM   11  C11 UNL     1      22.183   2.004  50.549  1.00  0.00    -0.027 A 
HETATM   12  C12 UNL     1      21.232   1.862  49.516  1.00  0.00     0.012 A 
HETATM   13  C13 UNL     1      20.180   0.983  49.802  1.00  0.00     0.001 A 
HETATM   14  C14 UNL     1      20.094   0.312  51.008  1.00  0.00     0.001 A 
HETATM   15  C15 UNL     1      21.060   0.485  52.009  1.00  0.00     0.010 A 
HETATM   16  C16 UNL     1      22.104   1.345  51.762  1.00  0.00    -0.013 A 
HETATM   17  C17 UNL     1      23.155   1.932  52.490  1.00  0.00     0.260 C 
ENDROOT
BRANCH   1  18
HETATM   18  C3  UNL     1      26.477   2.998  50.465  1.00  0.00     0.080 C 
BRANCH  18  19
HETATM   19  C2  UNL     1      26.792   3.856  49.544  1.00  0.00     0.161 C 
BRANCH  19  20
HETATM   20  O1  UNL     1      27.251   4.723  48.592  1.00  0.00    -0.387 OA
HETATM   21  C1  UNL     1      26.883   6.100  48.583  1.00  0.00     0.202 C 
ENDBRANCH  19  20
ENDBRANCH  18  19
ENDBRANCH   1  18
TORSDOF 3
ENDMDL
MODEL 8
REMARK VINA RESULT:      -6.4      3.236      5.893
REMARK  3 active torsions:
REMARK  status: ('A' for Active; 'I' for Inactive)
REMARK    1  A    between atoms: O1_2  and  C2_3 
REMARK    2  A    between atoms: C2_3  and  C3_4 
REMARK    3  A    between atoms: C3_4  and  C4_5 
ROOT
HETATM    1  C4  UNL     1      21.627   4.463  50.398  1.00  0.00     0.064 C 
HETATM    2  N1  UNL     1      21.622   4.872  49.084  1.00  0.00    -0.248 NA
HETATM    3  C5  UNL     1      22.896   4.919  48.317  1.00  0.00     0.228 C 
HETATM    4  N2  UNL     1      24.155   4.819  48.739  1.00  0.00    -0.255 NA
HETATM    5  C6  UNL     1      24.906   4.148  49.753  1.00  0.00     0.390 C 
HETATM    6  N3  UNL     1      24.401   4.181  51.138  1.00  0.00    -0.007 N 
HETATM    7  C7  UNL     1      23.739   5.401  51.739  1.00  0.00     0.277 A 
HETATM    8  C8  UNL     1      22.782   4.487  51.442  1.00  0.00     0.230 A 
HETATM    9  C9  UNL     1      22.740   3.130  52.087  1.00  0.00     0.001 C 
HETATM   10  C10 UNL     1      22.350   2.039  52.642  1.00  0.00     0.020 C 
HETATM   11  C11 UNL     1      23.601   1.308  52.822  1.00  0.00    -0.027 A 
HETATM   12  C12 UNL     1      23.585  -0.044  53.231  1.00  0.00     0.012 A 
HETATM   13  C13 UNL     1      24.823  -0.694  53.153  1.00  0.00     0.001 A 
HETATM   14  C14 UNL     1      25.963  -0.050  52.708  1.00  0.00     0.001 A 
HETATM   15  C15 UNL     1      25.934   1.295  52.316  1.00  0.00     0.010 A 
HETATM   16  C16 UNL     1      24.735   1.965  52.384  1.00  0.00    -0.013 A 
HETATM   17  C17 UNL     1      24.284   3.293  52.263  1.00  0.00     0.260 C 
ENDROOT
BRANCH   1  18
HETATM   18  C3  UNL     1      20.471   3.881  51.085  1.00  0.00     0.080 C 
BRANCH  18  19
HETATM   19  C2  UNL     1      19.291   3.658  51.578  1.00  0.00     0.161 C 
BRANCH  19  20
HETATM   20  O1  UNL     1      17.999   3.457  51.978  1.00  0.00    -0.387 OA
HETATM   21  C1  UNL     1      17.161   2.481  51.366  1.00  0.00     0.202 C 
ENDBRANCH  19  20
ENDBRANCH  18  19
ENDBRANCH   1  18
TORSDOF 3
ENDMDL
MODEL 9
REMARK VINA RESULT:      -6.4      8.270     10.801
REMARK  3 active torsions:
REMARK  status: ('A' for Active; 'I' for Inactive)
REMARK    1  A    between atoms: O1_2  and  C2_3 
REMARK    2  A    between atoms: C2_3  and  C3_4 
REMARK    3  A    between atoms: C3_4  and  C4_5 
ROOT
HETATM    1  C4  UNL     1      29.917   8.168  47.919  1.00  0.00     0.064 C 
HETATM    2  N1  UNL     1      29.852   9.384  47.278  1.00  0.00    -0.248 NA
HETATM    3  C5  UNL     1      31.105  10.076  46.870  1.00  0.00     0.228 C 
HETATM    4  N2  UNL     1      32.370   9.821  47.197  1.00  0.00    -0.255 NA
HETATM    5  C6  UNL     1      33.205   8.702  47.500  1.00  0.00     0.390 C 
HETATM    6  N3  UNL     1      32.712   7.699  48.462  1.00  0.00    -0.007 N 
HETATM    7  C7  UNL     1      31.914   8.068  49.693  1.00  0.00     0.277 A 
HETATM    8  C8  UNL     1      31.070   7.551  48.764  1.00  0.00     0.230 A 
HETATM    9  C9  UNL     1      31.197   6.140  48.261  1.00  0.00     0.001 C 
HETATM   10  C10 UNL     1      30.945   4.948  47.855  1.00  0.00     0.020 C 
HETATM   11  C11 UNL     1      32.276   4.421  47.567  1.00  0.00    -0.027 A 
HETATM   12  C12 UNL     1      32.426   3.184  46.903  1.00  0.00     0.012 A 
HETATM   13  C13 UNL     1      33.732   2.896  46.488  1.00  0.00     0.001 A 
HETATM   14  C14 UNL     1      34.783   3.765  46.717  1.00  0.00     0.001 A 
HETATM   15  C15 UNL     1      34.589   4.983  47.383  1.00  0.00     0.010 A 
HETATM   16  C16 UNL     1      33.319   5.295  47.808  1.00  0.00    -0.013 A 
HETATM   17  C17 UNL     1      32.712   6.269  48.622  1.00  0.00     0.260 C 
ENDROOT
BRANCH   1  18
HETATM   18  C3  UNL     1      28.845   7.169  47.904  1.00  0.00     0.080 C 
BRANCH  18  19
HETATM   19  C2  UNL     1      27.804   6.448  48.187  1.00  0.00     0.161 C 
BRANCH  19  20
HETATM   20  O1  UNL     1      26.787   5.583  48.481  1.00  0.00    -0.387 OA
HETATM   21  C1  UNL     1      27.021   4.329  49.115  1.00  0.00     0.202 C 
ENDBRANCH  19  20
ENDBRANCH  18  19
ENDBRANCH   1  18
TORSDOF 3
ENDMDL
