MODEL 1
REMARK VINA RESULT:      -7.8      0.000      0.000
REMARK  6 active torsions:
REMARK  status: ('A' for Active; 'I' for Inactive)
REMARK    1  A    between atoms: C2_2  and  C3_3 
REMARK       I    between atoms: C3_3  and  N1_5 
REMARK    2  A    between atoms: N1_5  and  C4_6 
REMARK    3  A    between atoms: C6_8  and  N2_9 
REMARK    4  A    between atoms: N2_9  and  C7_10 
REMARK    5  A    between atoms: C12_16  and  C13_17 
REMARK    6  A    between atoms: C16_22  and  O2_23 
ROOT
HETATM    1  C4  UNL     1      26.779   0.596  52.708  1.00  0.00     0.076 A 
HETATM    2  C5  UNL     1      25.569  -0.021  52.629  1.00  0.00     0.065 A 
HETATM    3  C6  UNL     1      24.377   0.660  52.699  1.00  0.00     0.085 A 
HETATM    4  C16 UNL     1      24.390   2.066  52.860  1.00  0.00     0.098 A 
HETATM    5  C18 UNL     1      25.620   2.744  52.945  1.00  0.00     0.083 A 
HETATM    6  C19 UNL     1      26.740   1.957  52.863  1.00  0.00     0.145 A 
HETATM    7  F1  UNL     1      27.935   2.571  52.950  1.00  0.00    -0.204 F 
ENDROOT
BRANCH   3   8
HETATM    8  N2  UNL     1      23.067   0.326  52.693  1.00  0.00    -0.184 N 
HETATM    9  H6  UNL     1      23.177  -0.449  52.008  1.00  0.00     0.184 HD
BRANCH   8  10
HETATM   10  C7  UNL     1      21.737  -0.012  52.687  1.00  0.00     0.744 A 
HETATM   11  N3  UNL     1      21.694  -0.807  53.801  1.00  0.00    -0.071 NA
HETATM   12  C8  UNL     1      20.569  -1.427  54.231  1.00  0.00     0.168 A 
HETATM   13  C9  UNL     1      19.464  -1.195  53.453  1.00  0.00     0.077 A 
HETATM   14  C10 UNL     1      18.159  -1.631  53.525  1.00  0.00     0.035 A 
HETATM   15  N4  UNL     1      19.474  -0.424  52.361  1.00  0.00    -0.221 N 
HETATM   16  C11 UNL     1      17.472  -1.081  52.459  1.00  0.00     0.030 A 
HETATM   17  C12 UNL     1      18.327  -0.304  51.714  1.00  0.00     0.041 A 
HETATM   18  N5  UNL     1      20.605   0.154  51.998  1.00  0.00     0.026 NA
BRANCH  17  19
HETATM   19  C13 UNL     1      17.949   0.447  50.497  1.00  0.00     0.038 A 
HETATM   20  C14 UNL     1      16.745  -0.008  49.702  1.00  0.00     0.011 A 
HETATM   21  C15 UNL     1      16.775   1.331  50.457  1.00  0.00     0.011 A 
ENDBRANCH  17  19
ENDBRANCH   8  10
ENDBRANCH   3   8
BRANCH   4  22
HETATM   22  O2  UNL     1      23.315   2.951  52.949  1.00  0.00    -0.354 OA
HETATM   23  C17 UNL     1      22.837   3.743  51.889  1.00  0.00     0.210 C 
ENDBRANCH   4  22
BRANCH   1  24
HETATM   24  N1  UNL     1      27.977  -0.165  52.634  1.00  0.00    -0.321 N 
HETATM   25  C3  UNL     1      28.548  -0.495  53.920  1.00  0.00     0.245 C 
HETATM   26  O1  UNL     1      28.122  -0.192  55.071  1.00  0.00    -0.268 OA
HETATM   27  H4  UNL     1      28.473  -0.503  51.791  1.00  0.00     0.169 HD
BRANCH  25  28
HETATM   28  C2  UNL     1      29.775  -1.276  53.945  1.00  0.00     0.064 C 
HETATM   29  C1  UNL     1      29.202  -2.259  53.235  1.00  0.00     0.017 C 
ENDBRANCH  25  28
ENDBRANCH   1  24
TORSDOF 6
ENDMDL
MODEL 2
REMARK VINA RESULT:      -7.5      3.909      6.063
REMARK  6 active torsions:
REMARK  status: ('A' for Active; 'I' for Inactive)
REMARK    1  A    between atoms: C2_2  and  C3_3 
REMARK       I    between atoms: C3_3  and  N1_5 
REMARK    2  A    between atoms: N1_5  and  C4_6 
REMARK    3  A    between atoms: C6_8  and  N2_9 
REMARK    4  A    between atoms: N2_9  and  C7_10 
REMARK    5  A    between atoms: C12_16  and  C13_17 
REMARK    6  A    between atoms: C16_22  and  O2_23 
ROOT
HETATM    1  C4  UNL     1      26.455   0.176  52.605  1.00  0.00     0.076 A 
HETATM    2  C5  UNL     1      26.378   1.174  51.684  1.00  0.00     0.065 A 
HETATM    3  C6  UNL     1      25.235   1.906  51.468  1.00  0.00     0.085 A 
HETATM    4  C16 UNL     1      24.078   1.623  52.231  1.00  0.00     0.098 A 
HETATM    5  C18 UNL     1      24.113   0.599  53.196  1.00  0.00     0.083 A 
HETATM    6  C19 UNL     1      25.310  -0.060  53.318  1.00  0.00     0.145 A 
HETATM    7  F1  UNL     1      25.379  -1.052  54.225  1.00  0.00    -0.204 F 
ENDROOT
BRANCH   3   8
HETATM    8  N2  UNL     1      24.859   2.893  50.625  1.00  0.00    -0.184 N 
HETATM    9  H6  UNL     1      25.391   3.639  51.120  1.00  0.00     0.184 HD
BRANCH   8  10
HETATM   10  C7  UNL     1      24.477   3.895  49.769  1.00  0.00     0.744 A 
HETATM   11  N3  UNL     1      25.346   4.879  50.159  1.00  0.00    -0.071 NA
HETATM   12  C8  UNL     1      25.361   6.119  49.614  1.00  0.00     0.168 A 
HETATM   13  C9  UNL     1      24.426   6.315  48.632  1.00  0.00     0.077 A 
HETATM   14  C10 UNL     1      24.102   7.403  47.851  1.00  0.00     0.035 A 
HETATM   15  N4  UNL     1      23.565   5.376  48.228  1.00  0.00    -0.221 N 
HETATM   16  C11 UNL     1      23.058   7.032  47.024  1.00  0.00     0.030 A 
HETATM   17  C12 UNL     1      22.718   5.724  47.273  1.00  0.00     0.041 A 
HETATM   18  N5  UNL     1      23.605   4.186  48.800  1.00  0.00     0.026 NA
BRANCH  17  19
HETATM   19  C13 UNL     1      21.646   4.977  46.579  1.00  0.00     0.038 A 
HETATM   20  C14 UNL     1      21.468   5.172  45.090  1.00  0.00     0.011 A 
HETATM   21  C15 UNL     1      21.933   3.837  45.696  1.00  0.00     0.011 A 
ENDBRANCH  17  19
ENDBRANCH   8  10
ENDBRANCH   3   8
BRANCH   4  22
HETATM   22  O2  UNL     1      22.824   2.234  52.186  1.00  0.00    -0.354 OA
HETATM   23  C17 UNL     1      21.609   1.599  52.501  1.00  0.00     0.210 C 
ENDBRANCH   4  22
BRANCH   1  24
HETATM   24  N1  UNL     1      27.666  -0.548  52.777  1.00  0.00    -0.321 N 
HETATM   25  C3  UNL     1      28.540  -0.006  53.793  1.00  0.00     0.245 C 
HETATM   26  O1  UNL     1      28.360   1.009  54.525  1.00  0.00    -0.268 OA
HETATM   27  H4  UNL     1      27.987  -1.394  52.275  1.00  0.00     0.169 HD
BRANCH  25  28
HETATM   28  C2  UNL     1      29.804  -0.682  54.042  1.00  0.00     0.064 C 
HETATM   29  C1  UNL     1      29.392  -1.769  53.373  1.00  0.00     0.017 C 
ENDBRANCH  25  28
ENDBRANCH   1  24
TORSDOF 6
ENDMDL
MODEL 3
REMARK VINA RESULT:      -7.5      4.379      7.466
REMARK  6 active torsions:
REMARK  status: ('A' for Active; 'I' for Inactive)
REMARK    1  A    between atoms: C2_2  and  C3_3 
REMARK       I    between atoms: C3_3  and  N1_5 
REMARK    2  A    between atoms: N1_5  and  C4_6 
REMARK    3  A    between atoms: C6_8  and  N2_9 
REMARK    4  A    between atoms: N2_9  and  C7_10 
REMARK    5  A    between atoms: C12_16  and  C13_17 
REMARK    6  A    between atoms: C16_22  and  O2_23 
ROOT
HETATM    1  C4  UNL     1      26.648   0.472  52.621  1.00  0.00     0.076 A 
HETATM    2  C5  UNL     1      26.762   1.528  51.771  1.00  0.00     0.065 A 
HETATM    3  C6  UNL     1      25.782   2.481  51.626  1.00  0.00     0.085 A 
HETATM    4  C16 UNL     1      24.595   2.374  52.389  1.00  0.00     0.098 A 
HETATM    5  C18 UNL     1      24.436   1.298  53.281  1.00  0.00     0.083 A 
HETATM    6  C19 UNL     1      25.482   0.413  53.337  1.00  0.00     0.145 A 
HETATM    7  F1  UNL     1      25.361  -0.634  54.174  1.00  0.00    -0.204 F 
ENDROOT
BRANCH   3   8
HETATM    8  N2  UNL     1      25.601   3.578  50.858  1.00  0.00    -0.184 N 
HETATM    9  H6  UNL     1      26.435   4.081  51.227  1.00  0.00     0.184 HD
BRANCH   8  10
HETATM   10  C7  UNL     1      25.418   4.693  50.079  1.00  0.00     0.744 A 
HETATM   11  N3  UNL     1      24.243   4.355  49.463  1.00  0.00    -0.071 NA
HETATM   12  C8  UNL     1      23.628   5.142  48.547  1.00  0.00     0.168 A 
HETATM   13  C9  UNL     1      24.284   6.316  48.281  1.00  0.00     0.077 A 
HETATM   14  C10 UNL     1      24.017   7.365  47.429  1.00  0.00     0.035 A 
HETATM   15  N4  UNL     1      25.431   6.674  48.866  1.00  0.00    -0.221 N 
HETATM   16  C11 UNL     1      25.036   8.290  47.568  1.00  0.00     0.030 A 
HETATM   17  C12 UNL     1      25.943   7.837  48.496  1.00  0.00     0.041 A 
HETATM   18  N5  UNL     1      25.976   5.861  49.752  1.00  0.00     0.026 NA
BRANCH  17  19
HETATM   19  C13 UNL     1      27.166   8.559  48.912  1.00  0.00     0.038 A 
HETATM   20  C14 UNL     1      27.146  10.071  48.943  1.00  0.00     0.011 A 
HETATM   21  C15 UNL     1      27.275   9.223  50.219  1.00  0.00     0.011 A 
ENDBRANCH  17  19
ENDBRANCH   8  10
ENDBRANCH   3   8
BRANCH   4  22
HETATM   22  O2  UNL     1      23.484   3.218  52.408  1.00  0.00    -0.354 OA
HETATM   23  C17 UNL     1      22.167   2.819  52.118  1.00  0.00     0.210 C 
ENDBRANCH   4  22
BRANCH   1  24
HETATM   24  N1  UNL     1      27.696  -0.483  52.721  1.00  0.00    -0.321 N 
HETATM   25  C3  UNL     1      28.737  -0.122  53.658  1.00  0.00     0.245 C 
HETATM   26  O1  UNL     1      28.824   0.915  54.376  1.00  0.00    -0.268 OA
HETATM   27  H4  UNL     1      27.798  -1.381  52.219  1.00  0.00     0.169 HD
BRANCH  25  28
HETATM   28  C2  UNL     1      29.852  -1.040  53.831  1.00  0.00     0.064 C 
HETATM   29  C1  UNL     1      29.173  -2.029  53.231  1.00  0.00     0.017 C 
ENDBRANCH  25  28
ENDBRANCH   1  24
TORSDOF 6
ENDMDL
MODEL 4
REMARK VINA RESULT:      -7.5      4.307      7.241
REMARK  6 active torsions:
REMARK  status: ('A' for Active; 'I' for Inactive)
REMARK    1  A    between atoms: C2_2  and  C3_3 
REMARK       I    between atoms: C3_3  and  N1_5 
REMARK    2  A    between atoms: N1_5  and  C4_6 
REMARK    3  A    between atoms: C6_8  and  N2_9 
REMARK    4  A    between atoms: N2_9  and  C7_10 
REMARK    5  A    between atoms: C12_16  and  C13_17 
REMARK    6  A    between atoms: C16_22  and  O2_23 
ROOT
HETATM    1  C4  UNL     1      26.214   0.262  52.360  1.00  0.00     0.076 A 
HETATM    2  C5  UNL     1      26.502   1.323  51.558  1.00  0.00     0.065 A 
HETATM    3  C6  UNL     1      25.710   2.444  51.489  1.00  0.00     0.085 A 
HETATM    4  C16 UNL     1      24.539   2.515  52.280  1.00  0.00     0.098 A 
HETATM    5  C18 UNL     1      24.204   1.440  53.125  1.00  0.00     0.083 A 
HETATM    6  C19 UNL     1      25.071   0.379  53.107  1.00  0.00     0.145 A 
HETATM    7  F1  UNL     1      24.778  -0.672  53.896  1.00  0.00    -0.204 F 
ENDROOT
BRANCH   3   8
HETATM    8  N2  UNL     1      25.717   3.595  50.780  1.00  0.00    -0.184 N 
HETATM    9  H6  UNL     1      25.864   3.130  49.860  1.00  0.00     0.184 HD
BRANCH   8  10
HETATM   10  C7  UNL     1      25.725   4.763  50.060  1.00  0.00     0.744 A 
HETATM   11  N3  UNL     1      26.882   4.592  49.349  1.00  0.00    -0.071 NA
HETATM   12  C8  UNL     1      27.364   5.510  48.478  1.00  0.00     0.168 A 
HETATM   13  C9  UNL     1      26.595   6.639  48.364  1.00  0.00     0.077 A 
HETATM   14  C10 UNL     1      26.728   7.791  47.620  1.00  0.00     0.035 A 
HETATM   15  N4  UNL     1      25.461   6.836  49.044  1.00  0.00    -0.221 N 
HETATM   16  C11 UNL     1      25.648   8.605  47.911  1.00  0.00     0.030 A 
HETATM   17  C12 UNL     1      24.837   7.982  48.828  1.00  0.00     0.041 A 
HETATM   18  N5  UNL     1      25.045   5.898  49.876  1.00  0.00     0.026 NA
BRANCH  17  19
HETATM   19  C13 UNL     1      23.583   8.546  49.376  1.00  0.00     0.038 A 
HETATM   20  C14 UNL     1      22.739   9.439  48.495  1.00  0.00     0.011 A 
HETATM   21  C15 UNL     1      22.260   8.056  48.965  1.00  0.00     0.011 A 
ENDBRANCH  17  19
ENDBRANCH   8  10
ENDBRANCH   3   8
BRANCH   4  22
HETATM   22  O2  UNL     1      23.602   3.545  52.373  1.00  0.00    -0.354 OA
HETATM   23  C17 UNL     1      22.320   3.519  51.793  1.00  0.00     0.210 C 
ENDBRANCH   4  22
BRANCH   1  24
HETATM   24  N1  UNL     1      27.071  -0.871  52.383  1.00  0.00    -0.321 N 
HETATM   25  C3  UNL     1      28.197  -0.742  53.281  1.00  0.00     0.245 C 
HETATM   26  O1  UNL     1      28.502   0.233  54.025  1.00  0.00    -0.268 OA
HETATM   27  H4  UNL     1      26.986  -1.754  51.850  1.00  0.00     0.169 HD
BRANCH  25  28
HETATM   28  C2  UNL     1      29.130  -1.854  53.375  1.00  0.00     0.064 C 
HETATM   29  C1  UNL     1      30.134  -1.028  53.702  1.00  0.00     0.017 C 
ENDBRANCH  25  28
ENDBRANCH   1  24
TORSDOF 6
ENDMDL
MODEL 5
REMARK VINA RESULT:      -7.5      5.165      6.690
REMARK  6 active torsions:
REMARK  status: ('A' for Active; 'I' for Inactive)
REMARK    1  A    between atoms: C2_2  and  C3_3 
REMARK       I    between atoms: C3_3  and  N1_5 
REMARK    2  A    between atoms: N1_5  and  C4_6 
REMARK    3  A    between atoms: C6_8  and  N2_9 
REMARK    4  A    between atoms: N2_9  and  C7_10 
REMARK    5  A    between atoms: C12_16  and  C13_17 
REMARK    6  A    between atoms: C16_22  and  O2_23 
ROOT
HETATM    1  C4  UNL     1      28.003   6.538  48.289  1.00  0.00     0.076 A 
HETATM    2  C5  UNL     1      27.284   5.394  48.455  1.00  0.00     0.065 A 
HETATM    3  C6  UNL     1      26.155   5.327  49.235  1.00  0.00     0.085 A 
HETATM    4  C16 UNL     1      25.705   6.491  49.903  1.00  0.00     0.098 A 
HETATM    5  C18 UNL     1      26.417   7.696  49.759  1.00  0.00     0.083 A 
HETATM    6  C19 UNL     1      27.527   7.636  48.955  1.00  0.00     0.145 A 
HETATM    7  F1  UNL     1      28.239   8.768  48.800  1.00  0.00    -0.204 F 
ENDROOT
BRANCH   3   8
HETATM    8  N2  UNL     1      25.289   4.359  49.609  1.00  0.00    -0.184 N 
HETATM    9  H6  UNL     1      24.916   4.200  48.650  1.00  0.00     0.184 HD
BRANCH   8  10
HETATM   10  C7  UNL     1      24.411   3.375  49.989  1.00  0.00     0.744 A 
HETATM   11  N3  UNL     1      23.606   3.342  48.881  1.00  0.00    -0.071 NA
HETATM   12  C8  UNL     1      22.535   2.521  48.763  1.00  0.00     0.168 A 
HETATM   13  C9  UNL     1      22.316   1.719  49.853  1.00  0.00     0.077 A 
HETATM   14  C10 UNL     1      21.355   0.775  50.143  1.00  0.00     0.035 A 
HETATM   15  N4  UNL     1      23.083   1.727  50.947  1.00  0.00    -0.221 N 
HETATM   16  C11 UNL     1      21.620   0.279  51.406  1.00  0.00     0.030 A 
HETATM   17  C12 UNL     1      22.736   0.898  51.917  1.00  0.00     0.041 A 
HETATM   18  N5  UNL     1      24.114   2.551  50.997  1.00  0.00     0.026 NA
BRANCH  17  19
HETATM   19  C13 UNL     1      23.326   0.623  53.246  1.00  0.00     0.038 A 
HETATM   20  C14 UNL     1      22.909  -0.629  53.985  1.00  0.00     0.011 A 
HETATM   21  C15 UNL     1      24.337  -0.424  53.451  1.00  0.00     0.011 A 
ENDBRANCH  17  19
ENDBRANCH   8  10
ENDBRANCH   3   8
BRANCH   4  22
HETATM   22  O2  UNL     1      24.594   6.654  50.732  1.00  0.00    -0.354 OA
HETATM   23  C17 UNL     1      23.821   7.827  50.818  1.00  0.00     0.210 C 
ENDBRANCH   4  22
BRANCH   1  24
HETATM   24  N1  UNL     1      29.166   6.541  47.472  1.00  0.00    -0.321 N 
HETATM   25  C3  UNL     1      30.324   5.937  48.091  1.00  0.00     0.245 C 
HETATM   26  O1  UNL     1      30.423   5.424  49.242  1.00  0.00    -0.268 OA
HETATM   27  H4  UNL     1      29.277   6.912  46.513  1.00  0.00     0.169 HD
BRANCH  25  28
HETATM   28  C2  UNL     1      31.563   5.890  47.329  1.00  0.00     0.064 C 
HETATM   29  C1  UNL     1      31.579   4.550  47.375  1.00  0.00     0.017 C 
ENDBRANCH  25  28
ENDBRANCH   1  24
TORSDOF 6
ENDMDL
MODEL 6
REMARK VINA RESULT:      -7.4      5.712      7.267
REMARK  6 active torsions:
REMARK  status: ('A' for Active; 'I' for Inactive)
REMARK    1  A    between atoms: C2_2  and  C3_3 
REMARK       I    between atoms: C3_3  and  N1_5 
REMARK    2  A    between atoms: N1_5  and  C4_6 
REMARK    3  A    between atoms: C6_8  and  N2_9 
REMARK    4  A    between atoms: N2_9  and  C7_10 
REMARK    5  A    between atoms: C12_16  and  C13_17 
REMARK    6  A    between atoms: C16_22  and  O2_23 
ROOT
HETATM    1  C4  UNL     1      29.021   6.428  47.728  1.00  0.00     0.076 A 
HETATM    2  C5  UNL     1      28.610   5.342  48.439  1.00  0.00     0.065 A 
HETATM    3  C6  UNL     1      27.324   5.192  48.897  1.00  0.00     0.085 A 
HETATM    4  C16 UNL     1      26.370   6.201  48.626  1.00  0.00     0.098 A 
HETATM    5  C18 UNL     1      26.751   7.340  47.893  1.00  0.00     0.083 A 
HETATM    6  C19 UNL     1      28.061   7.376  47.490  1.00  0.00     0.145 A 
HETATM    7  F1  UNL     1      28.465   8.455  46.794  1.00  0.00    -0.204 F 
ENDROOT
BRANCH   3   8
HETATM    8  N2  UNL     1      26.658   4.278  49.638  1.00  0.00    -0.184 N 
HETATM    9  H6  UNL     1      26.309   3.739  48.819  1.00  0.00     0.184 HD
BRANCH   8  10
HETATM   10  C7  UNL     1      25.981   3.351  50.390  1.00  0.00     0.744 A 
HETATM   11  N3  UNL     1      27.024   2.829  51.108  1.00  0.00    -0.071 NA
HETATM   12  C8  UNL     1      26.880   1.828  52.010  1.00  0.00     0.168 A 
HETATM   13  C9  UNL     1      25.594   1.373  52.147  1.00  0.00     0.077 A 
HETATM   14  C10 UNL     1      25.028   0.386  52.925  1.00  0.00     0.035 A 
HETATM   15  N4  UNL     1      24.556   1.862  51.462  1.00  0.00    -0.221 N 
HETATM   16  C11 UNL     1      23.674   0.356  52.646  1.00  0.00     0.030 A 
HETATM   17  C12 UNL     1      23.378   1.311  51.703  1.00  0.00     0.041 A 
HETATM   18  N5  UNL     1      24.765   2.840  50.599  1.00  0.00     0.026 NA
BRANCH  17  19
HETATM   19  C13 UNL     1      22.029   1.577  51.159  1.00  0.00     0.038 A 
HETATM   20  C14 UNL     1      21.676   1.043  49.789  1.00  0.00     0.011 A 
HETATM   21  C15 UNL     1      21.000   0.531  51.072  1.00  0.00     0.011 A 
ENDBRANCH  17  19
ENDBRANCH   8  10
ENDBRANCH   3   8
BRANCH   4  22
HETATM   22  O2  UNL     1      25.022   6.256  48.984  1.00  0.00    -0.354 OA
HETATM   23  C17 UNL     1      23.956   6.415  48.080  1.00  0.00     0.210 C 
ENDBRANCH   4  22
BRANCH   1  24
HETATM   24  N1  UNL     1      30.368   6.526  47.285  1.00  0.00    -0.321 N 
HETATM   25  C3  UNL     1      31.233   7.256  48.184  1.00  0.00     0.245 C 
HETATM   26  O1  UNL     1      30.941   7.805  49.285  1.00  0.00    -0.268 OA
HETATM   27  H4  UNL     1      30.791   6.145  46.421  1.00  0.00     0.169 HD
BRANCH  25  28
HETATM   28  C2  UNL     1      32.633   7.407  47.817  1.00  0.00     0.064 C 
HETATM   29  C1  UNL     1      32.615   6.247  47.143  1.00  0.00     0.017 C 
ENDBRANCH  25  28
ENDBRANCH   1  24
TORSDOF 6
ENDMDL
MODEL 7
REMARK VINA RESULT:      -7.4      5.014      7.336
REMARK  6 active torsions:
REMARK  status: ('A' for Active; 'I' for Inactive)
REMARK    1  A    between atoms: C2_2  and  C3_3 
REMARK       I    between atoms: C3_3  and  N1_5 
REMARK    2  A    between atoms: N1_5  and  C4_6 
REMARK    3  A    between atoms: C6_8  and  N2_9 
REMARK    4  A    between atoms: N2_9  and  C7_10 
REMARK    5  A    between atoms: C12_16  and  C13_17 
REMARK    6  A    between atoms: C16_22  and  O2_23 
ROOT
HETATM    1  C4  UNL     1      27.328   6.464  48.130  1.00  0.00     0.076 A 
HETATM    2  C5  UNL     1      27.418   5.358  48.918  1.00  0.00     0.065 A 
HETATM    3  C6  UNL     1      26.339   4.820  49.577  1.00  0.00     0.085 A 
HETATM    4  C16 UNL     1      25.069   5.430  49.441  1.00  0.00     0.098 A 
HETATM    5  C18 UNL     1      24.931   6.575  48.635  1.00  0.00     0.083 A 
HETATM    6  C19 UNL     1      26.079   7.018  48.030  1.00  0.00     0.145 A 
HETATM    7  F1  UNL     1      25.987   8.117  47.258  1.00  0.00    -0.204 F 
ENDROOT
BRANCH   3   8
HETATM    8  N2  UNL     1      26.137   3.792  50.431  1.00  0.00    -0.184 N 
HETATM    9  H6  UNL     1      25.261   3.467  49.972  1.00  0.00     0.184 HD
BRANCH   8  10
HETATM   10  C7  UNL     1      25.932   2.748  51.298  1.00  0.00     0.744 A 
HETATM   11  N3  UNL     1      27.206   2.584  51.771  1.00  0.00    -0.071 NA
HETATM   12  C8  UNL     1      27.551   1.632  52.670  1.00  0.00     0.168 A 
HETATM   13  C9  UNL     1      26.512   0.833  53.072  1.00  0.00     0.077 A 
HETATM   14  C10 UNL     1      26.433  -0.235  53.940  1.00  0.00     0.035 A 
HETATM   15  N4  UNL     1      25.258   0.968  52.631  1.00  0.00    -0.221 N 
HETATM   16  C11 UNL     1      25.120  -0.667  53.956  1.00  0.00     0.030 A 
HETATM   17  C12 UNL     1      24.369   0.114  53.110  1.00  0.00     0.041 A 
HETATM   18  N5  UNL     1      24.989   1.920  51.755  1.00  0.00     0.026 NA
BRANCH  17  19
HETATM   19  C13 UNL     1      22.918  -0.047  52.869  1.00  0.00     0.038 A 
HETATM   20  C14 UNL     1      22.182  -1.168  53.568  1.00  0.00     0.011 A 
HETATM   21  C15 UNL     1      21.914   0.313  53.880  1.00  0.00     0.011 A 
ENDBRANCH  17  19
ENDBRANCH   8  10
ENDBRANCH   3   8
BRANCH   4  22
HETATM   22  O2  UNL     1      23.849   5.056  50.006  1.00  0.00    -0.354 OA
HETATM   23  C17 UNL     1      23.145   5.807  50.966  1.00  0.00     0.210 C 
ENDBRANCH   4  22
BRANCH   1  24
HETATM   24  N1  UNL     1      28.483   6.975  47.479  1.00  0.00    -0.321 N 
HETATM   25  C3  UNL     1      29.110   8.080  48.169  1.00  0.00     0.245 C 
HETATM   26  O1  UNL     1      28.761   8.632  49.251  1.00  0.00    -0.268 OA
HETATM   27  H4  UNL     1      28.917   6.657  46.596  1.00  0.00     0.169 HD
BRANCH  25  28
HETATM   28  C2  UNL     1      30.303   8.668  47.579  1.00  0.00     0.064 C 
HETATM   29  C1  UNL     1      31.077   8.145  48.542  1.00  0.00     0.017 C 
ENDBRANCH  25  28
ENDBRANCH   1  24
TORSDOF 6
ENDMDL
MODEL 8
REMARK VINA RESULT:      -7.4      3.783      6.290
REMARK  6 active torsions:
REMARK  status: ('A' for Active; 'I' for Inactive)
REMARK    1  A    between atoms: C2_2  and  C3_3 
REMARK       I    between atoms: C3_3  and  N1_5 
REMARK    2  A    between atoms: N1_5  and  C4_6 
REMARK    3  A    between atoms: C6_8  and  N2_9 
REMARK    4  A    between atoms: N2_9  and  C7_10 
REMARK    5  A    between atoms: C12_16  and  C13_17 
REMARK    6  A    between atoms: C16_22  and  O2_23 
ROOT
HETATM    1  C4  UNL     1      26.294   0.019  52.759  1.00  0.00     0.076 A 
HETATM    2  C5  UNL     1      26.138   0.948  51.777  1.00  0.00     0.065 A 
HETATM    3  C6  UNL     1      24.961   1.629  51.573  1.00  0.00     0.085 A 
HETATM    4  C16 UNL     1      23.854   1.367  52.414  1.00  0.00     0.098 A 
HETATM    5  C18 UNL     1      23.973   0.415  53.443  1.00  0.00     0.083 A 
HETATM    6  C19 UNL     1      25.195  -0.199  53.547  1.00  0.00     0.145 A 
HETATM    7  F1  UNL     1      25.343  -1.122  54.515  1.00  0.00    -0.204 F 
ENDROOT
BRANCH   3   8
HETATM    8  N2  UNL     1      24.511   2.543  50.685  1.00  0.00    -0.184 N 
HETATM    9  H6  UNL     1      24.904   2.058  49.852  1.00  0.00     0.184 HD
BRANCH   8  10
HETATM   10  C7  UNL     1      24.054   3.472  49.784  1.00  0.00     0.744 A 
HETATM   11  N3  UNL     1      23.054   2.748  49.191  1.00  0.00    -0.071 NA
HETATM   12  C8  UNL     1      22.285   3.226  48.184  1.00  0.00     0.168 A 
HETATM   13  C9  UNL     1      22.590   4.506  47.799  1.00  0.00     0.077 A 
HETATM   14  C10 UNL     1      22.075   5.341  46.831  1.00  0.00     0.035 A 
HETATM   15  N4  UNL     1      23.558   5.238  48.358  1.00  0.00    -0.221 N 
HETATM   16  C11 UNL     1      22.780   6.529  46.883  1.00  0.00     0.030 A 
HETATM   17  C12 UNL     1      23.734   6.454  47.869  1.00  0.00     0.041 A 
HETATM   18  N5  UNL     1      24.270   4.712  49.338  1.00  0.00     0.026 NA
BRANCH  17  19
HETATM   19  C13 UNL     1      24.678   7.537  48.221  1.00  0.00     0.038 A 
HETATM   20  C14 UNL     1      26.131   7.397  47.825  1.00  0.00     0.011 A 
HETATM   21  C15 UNL     1      25.211   8.468  47.216  1.00  0.00     0.011 A 
ENDBRANCH  17  19
ENDBRANCH   8  10
ENDBRANCH   3   8
BRANCH   4  22
HETATM   22  O2  UNL     1      22.581   1.937  52.394  1.00  0.00    -0.354 OA
HETATM   23  C17 UNL     1      21.390   1.234  52.132  1.00  0.00     0.210 C 
ENDBRANCH   4  22
BRANCH   1  24
HETATM   24  N1  UNL     1      27.535  -0.655  52.915  1.00  0.00    -0.321 N 
HETATM   25  C3  UNL     1      28.446  -0.012  53.836  1.00  0.00     0.245 C 
HETATM   26  O1  UNL     1      28.274   1.051  54.498  1.00  0.00    -0.268 OA
HETATM   27  H4  UNL     1      27.854  -1.528  52.462  1.00  0.00     0.169 HD
BRANCH  25  28
HETATM   28  C2  UNL     1      29.742  -0.631  54.063  1.00  0.00     0.064 C 
HETATM   29  C1  UNL     1      29.384  -1.716  53.360  1.00  0.00     0.017 C 
ENDBRANCH  25  28
ENDBRANCH   1  24
TORSDOF 6
ENDMDL
MODEL 9
REMARK VINA RESULT:      -7.4      3.852      7.690
REMARK  6 active torsions:
REMARK  status: ('A' for Active; 'I' for Inactive)
REMARK    1  A    between atoms: C2_2  and  C3_3 
REMARK       I    between atoms: C3_3  and  N1_5 
REMARK    2  A    between atoms: N1_5  and  C4_6 
REMARK    3  A    between atoms: C6_8  and  N2_9 
REMARK    4  A    between atoms: N2_9  and  C7_10 
REMARK    5  A    between atoms: C12_16  and  C13_17 
REMARK    6  A    between atoms: C16_22  and  O2_23 
ROOT
HETATM    1  C4  UNL     1      23.704  -0.310  53.216  1.00  0.00     0.076 A 
HETATM    2  C5  UNL     1      23.733   0.709  52.315  1.00  0.00     0.065 A 
HETATM    3  C6  UNL     1      24.753   1.629  52.260  1.00  0.00     0.085 A 
HETATM    4  C16 UNL     1      25.829   1.526  53.172  1.00  0.00     0.098 A 
HETATM    5  C18 UNL     1      25.840   0.486  54.121  1.00  0.00     0.083 A 
HETATM    6  C19 UNL     1      24.768  -0.368  54.077  1.00  0.00     0.145 A 
HETATM    7  F1  UNL     1      24.739  -1.370  54.976  1.00  0.00    -0.204 F 
ENDROOT
BRANCH   3   8
HETATM    8  N2  UNL     1      25.025   2.734  51.530  1.00  0.00    -0.184 N 
HETATM    9  H6  UNL     1      24.583   2.374  50.659  1.00  0.00     0.184 HD
BRANCH   8  10
HETATM   10  C7  UNL     1      25.301   3.855  50.789  1.00  0.00     0.744 A 
HETATM   11  N3  UNL     1      26.362   3.395  50.056  1.00  0.00    -0.071 NA
HETATM   12  C8  UNL     1      27.032   4.155  49.157  1.00  0.00     0.168 A 
HETATM   13  C9  UNL     1      26.562   5.437  49.040  1.00  0.00     0.077 A 
HETATM   14  C10 UNL     1      26.955   6.512  48.272  1.00  0.00     0.035 A 
HETATM   15  N4  UNL     1      25.529   5.916  49.740  1.00  0.00    -0.221 N 
HETATM   16  C11 UNL     1      26.116   7.570  48.571  1.00  0.00     0.030 A 
HETATM   17  C12 UNL     1      25.201   7.178  49.518  1.00  0.00     0.041 A 
HETATM   18  N5  UNL     1      24.917   5.121  50.599  1.00  0.00     0.026 NA
BRANCH  17  19
HETATM   19  C13 UNL     1      24.139   8.040  50.082  1.00  0.00     0.038 A 
HETATM   20  C14 UNL     1      23.239   8.803  49.137  1.00  0.00     0.011 A 
HETATM   21  C15 UNL     1      22.719   7.666  50.032  1.00  0.00     0.011 A 
ENDBRANCH  17  19
ENDBRANCH   8  10
ENDBRANCH   3   8
BRANCH   4  22
HETATM   22  O2  UNL     1      26.960   2.335  53.293  1.00  0.00    -0.354 OA
HETATM   23  C17 UNL     1      28.276   1.859  53.441  1.00  0.00     0.210 C 
ENDBRANCH   4  22
BRANCH   1  24
HETATM   24  N1  UNL     1      22.618  -1.226  53.225  1.00  0.00    -0.321 N 
HETATM   25  C3  UNL     1      21.514  -0.825  54.068  1.00  0.00     0.245 C 
HETATM   26  O1  UNL     1      21.404   0.213  54.780  1.00  0.00    -0.268 OA
HETATM   27  H4  UNL     1      22.526  -2.120  52.713  1.00  0.00     0.169 HD
BRANCH  25  28
HETATM   28  C2  UNL     1      20.353  -1.700  54.139  1.00  0.00     0.064 C 
HETATM   29  C1  UNL     1      19.595  -0.801  53.494  1.00  0.00     0.017 C 
ENDBRANCH  25  28
ENDBRANCH   1  24
TORSDOF 6
ENDMDL
