MODEL 1
REMARK VINA RESULT:      -7.7      0.000      0.000
REMARK  9 active torsions:
REMARK  status: ('A' for Active; 'I' for Inactive)
REMARK    1  A    between atoms: C2_2  and  C3_3 
REMARK    2  A    between atoms: C3_3  and  C4_4 
REMARK    3  A    between atoms: C4_4  and  C5_5 
REMARK    4  A    between atoms: C5_5  and  C6_6 
REMARK    5  A    between atoms: C6_6  and  C7_7 
REMARK    6  A    between atoms: C7_7  and  O1_8 
REMARK    7  A    between atoms: O1_8  and  C8_9 
REMARK    8  A    between atoms: C11_12  and  N1_13 
REMARK    9  A    between atoms: C20_26  and  O2_27 
ROOT
HETATM    1  C8  UNL     1      23.420  -0.390  53.852  1.00  0.00     0.102 A 
HETATM    2  C9  UNL     1      22.783   0.223  52.793  1.00  0.00     0.057 A 
HETATM    3  C10 UNL     1      21.417   0.096  52.665  1.00  0.00     0.042 A 
HETATM    4  C11 UNL     1      20.910   0.756  51.577  1.00  0.00     0.144 A 
HETATM    5  N2  UNL     1      19.563   0.695  51.366  1.00  0.00    -0.223 NA
HETATM    6  C17 UNL     1      18.781  -0.010  52.233  1.00  0.00     0.236 A 
HETATM    7  N3  UNL     1      19.302  -0.660  53.311  1.00  0.00    -0.241 NA
HETATM    8  C18 UNL     1      20.626  -0.615  53.539  1.00  0.00     0.075 A 
HETATM    9  C19 UNL     1      21.274  -1.226  54.597  1.00  0.00     0.072 A 
HETATM   10  C20 UNL     1      22.657  -1.111  54.747  1.00  0.00     0.101 A 
ENDROOT
BRANCH   1  11
HETATM   11  O1  UNL     1      24.777  -0.319  54.060  1.00  0.00    -0.348 OA
BRANCH  11  12
HETATM   12  C7  UNL     1      25.716  -1.110  53.361  1.00  0.00     0.176 C 
BRANCH  12  13
HETATM   13  C6  UNL     1      27.002  -0.349  53.106  1.00  0.00     0.027 C 
BRANCH  13  14
HETATM   14  C5  UNL     1      26.792   0.448  51.828  1.00  0.00     0.003 C 
BRANCH  14  15
HETATM   15  C4  UNL     1      26.755   1.943  52.091  1.00  0.00     0.017 C 
BRANCH  15  16
HETATM   16  C3  UNL     1      25.921   2.572  51.077  1.00  0.00     0.066 C 
BRANCH  16  17
HETATM   17  C2  UNL     1      26.450   3.259  50.074  1.00  0.00    -0.176 C 
HETATM   18  C1  UNL     1      26.863   4.173  49.210  1.00  0.00     0.091 C 
ENDBRANCH  16  17
ENDBRANCH  15  16
ENDBRANCH  14  15
ENDBRANCH  13  14
ENDBRANCH  12  13
ENDBRANCH  11  12
ENDBRANCH   1  11
BRANCH  10  19
HETATM   19  O2  UNL     1      23.213  -1.764  55.846  1.00  0.00    -0.358 OA
HETATM   20  H19 UNL     1      24.053  -1.472  56.297  1.00  0.00     0.217 HD
ENDBRANCH  10  19
BRANCH   4  21
HETATM   21  N1  UNL     1      21.543   1.508  50.555  1.00  0.00    -0.336 N 
HETATM   22  C12 UNL     1      21.885   2.808  51.085  1.00  0.00     0.120 A 
HETATM   23  C13 UNL     1      22.507   3.777  50.411  1.00  0.00     0.087 A 
HETATM   24 CL1  UNL     1      22.933   5.359  51.027  1.00  0.00    -0.080 Cl
HETATM   25  C14 UNL     1      22.887   3.541  49.011  1.00  0.00     0.137 A 
HETATM   26  F1  UNL     1      23.517   4.404  48.191  1.00  0.00    -0.205 F 
HETATM   27  C15 UNL     1      22.554   2.344  48.560  1.00  0.00     0.037 A 
HETATM   28  C16 UNL     1      21.869   1.190  49.191  1.00  0.00     0.160 A 
ENDBRANCH   4  21
TORSDOF 9
ENDMDL
MODEL 2
REMARK VINA RESULT:      -7.6      3.540      5.399
REMARK  9 active torsions:
REMARK  status: ('A' for Active; 'I' for Inactive)
REMARK    1  A    between atoms: C2_2  and  C3_3 
REMARK    2  A    between atoms: C3_3  and  C4_4 
REMARK    3  A    between atoms: C4_4  and  C5_5 
REMARK    4  A    between atoms: C5_5  and  C6_6 
REMARK    5  A    between atoms: C6_6  and  C7_7 
REMARK    6  A    between atoms: C7_7  and  O1_8 
REMARK    7  A    between atoms: O1_8  and  C8_9 
REMARK    8  A    between atoms: C11_12  and  N1_13 
REMARK    9  A    between atoms: C20_26  and  O2_27 
ROOT
HETATM    1  C8  UNL     1      22.437   0.988  51.546  1.00  0.00     0.102 A 
HETATM    2  C9  UNL     1      23.529   0.719  52.345  1.00  0.00     0.057 A 
HETATM    3  C10 UNL     1      23.366  -0.072  53.461  1.00  0.00     0.042 A 
HETATM    4  C11 UNL     1      24.527  -0.266  54.163  1.00  0.00     0.144 A 
HETATM    5  N2  UNL     1      24.470  -1.043  55.284  1.00  0.00    -0.223 NA
HETATM    6  C17 UNL     1      23.278  -1.588  55.661  1.00  0.00     0.236 A 
HETATM    7  N3  UNL     1      22.133  -1.386  54.951  1.00  0.00    -0.241 NA
HETATM    8  C18 UNL     1      22.164  -0.625  53.843  1.00  0.00     0.075 A 
HETATM    9  C19 UNL     1      21.076  -0.348  53.036  1.00  0.00     0.072 A 
HETATM   10  C20 UNL     1      21.217   0.451  51.899  1.00  0.00     0.101 A 
ENDROOT
BRANCH   1  11
HETATM   11  O1  UNL     1      22.504   1.767  50.414  1.00  0.00    -0.348 OA
BRANCH  11  12
HETATM   12  C7  UNL     1      22.503   3.180  50.438  1.00  0.00     0.176 C 
BRANCH  12  13
HETATM   13  C6  UNL     1      23.648   3.748  49.623  1.00  0.00     0.027 C 
BRANCH  13  14
HETATM   14  C5  UNL     1      24.730   4.150  50.612  1.00  0.00     0.003 C 
BRANCH  14  15
HETATM   15  C4  UNL     1      25.846   3.123  50.681  1.00  0.00     0.017 C 
BRANCH  15  16
HETATM   16  C3  UNL     1      26.652   3.231  49.473  1.00  0.00     0.066 C 
BRANCH  16  17
HETATM   17  C2  UNL     1      27.106   4.402  49.047  1.00  0.00    -0.176 C 
HETATM   18  C1  UNL     1      27.776   5.410  48.511  1.00  0.00     0.091 C 
ENDBRANCH  16  17
ENDBRANCH  15  16
ENDBRANCH  14  15
ENDBRANCH  13  14
ENDBRANCH  12  13
ENDBRANCH  11  12
ENDBRANCH   1  11
BRANCH  10  19
HETATM   19  O2  UNL     1      20.060   0.669  51.153  1.00  0.00    -0.358 OA
HETATM   20  H19 UNL     1      19.291   0.036  51.126  1.00  0.00     0.217 HD
ENDBRANCH  10  19
BRANCH   4  21
HETATM   21  N1  UNL     1      25.840   0.227  53.961  1.00  0.00    -0.336 N 
HETATM   22  C12 UNL     1      26.717  -0.892  53.705  1.00  0.00     0.120 A 
HETATM   23  C13 UNL     1      28.025  -0.807  53.455  1.00  0.00     0.087 A 
HETATM   24 CL1  UNL     1      29.110  -2.144  53.141  1.00  0.00    -0.080 Cl
HETATM   25  C14 UNL     1      28.662   0.517  53.434  1.00  0.00     0.137 A 
HETATM   26  F1  UNL     1      29.962   0.783  53.198  1.00  0.00    -0.205 F 
HETATM   27  C15 UNL     1      27.830   1.515  53.677  1.00  0.00     0.037 A 
HETATM   28  C16 UNL     1      26.376   1.561  53.969  1.00  0.00     0.160 A 
ENDBRANCH   4  21
TORSDOF 9
ENDMDL
MODEL 3
REMARK VINA RESULT:      -7.5      3.104      5.186
REMARK  9 active torsions:
REMARK  status: ('A' for Active; 'I' for Inactive)
REMARK    1  A    between atoms: C2_2  and  C3_3 
REMARK    2  A    between atoms: C3_3  and  C4_4 
REMARK    3  A    between atoms: C4_4  and  C5_5 
REMARK    4  A    between atoms: C5_5  and  C6_6 
REMARK    5  A    between atoms: C6_6  and  C7_7 
REMARK    6  A    between atoms: C7_7  and  O1_8 
REMARK    7  A    between atoms: O1_8  and  C8_9 
REMARK    8  A    between atoms: C11_12  and  N1_13 
REMARK    9  A    between atoms: C20_26  and  O2_27 
ROOT
HETATM    1  C8  UNL     1      26.847   2.133  52.114  1.00  0.00     0.102 A 
HETATM    2  C9  UNL     1      25.598   1.564  52.250  1.00  0.00     0.057 A 
HETATM    3  C10 UNL     1      25.369   0.684  53.284  1.00  0.00     0.042 A 
HETATM    4  C11 UNL     1      24.089   0.196  53.310  1.00  0.00     0.144 A 
HETATM    5  N2  UNL     1      23.761  -0.682  54.303  1.00  0.00    -0.223 NA
HETATM    6  C17 UNL     1      24.706  -1.036  55.221  1.00  0.00     0.236 A 
HETATM    7  N3  UNL     1      25.974  -0.542  55.182  1.00  0.00    -0.241 NA
HETATM    8  C18 UNL     1      26.320   0.324  54.213  1.00  0.00     0.075 A 
HETATM    9  C19 UNL     1      27.570   0.899  54.067  1.00  0.00     0.072 A 
HETATM   10  C20 UNL     1      27.825   1.794  53.026  1.00  0.00     0.101 A 
ENDROOT
BRANCH   1  11
HETATM   11  O1  UNL     1      27.167   3.021  51.114  1.00  0.00    -0.348 OA
BRANCH  11  12
HETATM   12  C7  UNL     1      26.490   3.077  49.874  1.00  0.00     0.176 C 
BRANCH  12  13
HETATM   13  C6  UNL     1      26.685   4.419  49.197  1.00  0.00     0.027 C 
BRANCH  13  14
HETATM   14  C5  UNL     1      25.403   5.207  49.412  1.00  0.00     0.003 C 
BRANCH  14  15
HETATM   15  C4  UNL     1      24.167   4.355  49.184  1.00  0.00     0.017 C 
BRANCH  15  16
HETATM   16  C3  UNL     1      23.111   4.822  50.071  1.00  0.00     0.066 C 
BRANCH  16  17
HETATM   17  C2  UNL     1      23.182   4.650  51.383  1.00  0.00    -0.176 C 
HETATM   18  C1  UNL     1      23.537   4.532  52.654  1.00  0.00     0.091 C 
ENDBRANCH  16  17
ENDBRANCH  15  16
ENDBRANCH  14  15
ENDBRANCH  13  14
ENDBRANCH  12  13
ENDBRANCH  11  12
ENDBRANCH   1  11
BRANCH  10  19
HETATM   19  O2  UNL     1      29.114   2.318  52.968  1.00  0.00    -0.358 OA
HETATM   20  H19 UNL     1      29.695   2.272  52.158  1.00  0.00     0.217 HD
ENDBRANCH  10  19
BRANCH   4  21
HETATM   21  N1  UNL     1      22.984   0.411  52.447  1.00  0.00    -0.336 N 
HETATM   22  C12 UNL     1      21.802  -0.140  53.069  1.00  0.00     0.120 A 
HETATM   23  C13 UNL     1      20.572  -0.107  52.552  1.00  0.00     0.087 A 
HETATM   24 CL1  UNL     1      19.124  -0.765  53.282  1.00  0.00    -0.080 Cl
HETATM   25  C14 UNL     1      20.365   0.529  51.244  1.00  0.00     0.137 A 
HETATM   26  F1  UNL     1      19.197   0.650  50.582  1.00  0.00    -0.205 F 
HETATM   27  C15 UNL     1      21.469   1.016  50.705  1.00  0.00     0.037 A 
HETATM   28  C16 UNL     1      22.880   1.046  51.162  1.00  0.00     0.160 A 
ENDBRANCH   4  21
TORSDOF 9
ENDMDL
MODEL 4
REMARK VINA RESULT:      -7.5      1.330      2.049
REMARK  9 active torsions:
REMARK  status: ('A' for Active; 'I' for Inactive)
REMARK    1  A    between atoms: C2_2  and  C3_3 
REMARK    2  A    between atoms: C3_3  and  C4_4 
REMARK    3  A    between atoms: C4_4  and  C5_5 
REMARK    4  A    between atoms: C5_5  and  C6_6 
REMARK    5  A    between atoms: C6_6  and  C7_7 
REMARK    6  A    between atoms: C7_7  and  O1_8 
REMARK    7  A    between atoms: O1_8  and  C8_9 
REMARK    8  A    between atoms: C11_12  and  N1_13 
REMARK    9  A    between atoms: C20_26  and  O2_27 
ROOT
HETATM    1  C8  UNL     1      23.279  -0.396  53.788  1.00  0.00     0.102 A 
HETATM    2  C9  UNL     1      22.590   0.149  52.724  1.00  0.00     0.057 A 
HETATM    3  C10 UNL     1      21.228  -0.036  52.640  1.00  0.00     0.042 A 
HETATM    4  C11 UNL     1      20.666   0.559  51.542  1.00  0.00     0.144 A 
HETATM    5  N2  UNL     1      19.316   0.438  51.372  1.00  0.00    -0.223 NA
HETATM    6  C17 UNL     1      18.587  -0.262  52.288  1.00  0.00     0.236 A 
HETATM    7  N3  UNL     1      19.162  -0.848  53.375  1.00  0.00    -0.241 NA
HETATM    8  C18 UNL     1      20.489  -0.742  53.564  1.00  0.00     0.075 A 
HETATM    9  C19 UNL     1      21.189  -1.285  54.626  1.00  0.00     0.072 A 
HETATM   10  C20 UNL     1      22.570  -1.110  54.732  1.00  0.00     0.101 A 
ENDROOT
BRANCH   1  11
HETATM   11  O1  UNL     1      24.638  -0.264  53.955  1.00  0.00    -0.348 OA
BRANCH  11  12
HETATM   12  C7  UNL     1      25.589  -0.803  53.059  1.00  0.00     0.176 C 
BRANCH  12  13
HETATM   13  C6  UNL     1      26.367   0.290  52.353  1.00  0.00     0.027 C 
BRANCH  13  14
HETATM   14  C5  UNL     1      26.635   1.372  53.387  1.00  0.00     0.003 C 
BRANCH  14  15
HETATM   15  C4  UNL     1      27.928   2.117  53.107  1.00  0.00     0.017 C 
BRANCH  15  16
HETATM   16  C3  UNL     1      28.958   1.612  54.004  1.00  0.00     0.066 C 
BRANCH  16  17
HETATM   17  C2  UNL     1      29.535   0.435  53.803  1.00  0.00    -0.176 C 
HETATM   18  C1  UNL     1      29.841  -0.825  53.534  1.00  0.00     0.091 C 
ENDBRANCH  16  17
ENDBRANCH  15  16
ENDBRANCH  14  15
ENDBRANCH  13  14
ENDBRANCH  12  13
ENDBRANCH  11  12
ENDBRANCH   1  11
BRANCH  10  19
HETATM   19  O2  UNL     1      23.181  -1.696  55.839  1.00  0.00    -0.358 OA
HETATM   20  H19 UNL     1      23.869  -2.415  55.776  1.00  0.00     0.217 HD
ENDBRANCH  10  19
BRANCH   4  21
HETATM   21  N1  UNL     1      21.240   1.293  50.474  1.00  0.00    -0.336 N 
HETATM   22  C12 UNL     1      21.397   2.667  50.892  1.00  0.00     0.120 A 
HETATM   23  C13 UNL     1      21.920   3.645  50.150  1.00  0.00     0.087 A 
HETATM   24 CL1  UNL     1      22.122   5.316  50.631  1.00  0.00    -0.080 Cl
HETATM   25  C14 UNL     1      22.382   3.338  48.789  1.00  0.00     0.137 A 
HETATM   26  F1  UNL     1      22.932   4.200  47.912  1.00  0.00    -0.205 F 
HETATM   27  C15 UNL     1      22.218   2.074  48.440  1.00  0.00     0.037 A 
HETATM   28  C16 UNL     1      21.657   0.901  49.155  1.00  0.00     0.160 A 
ENDBRANCH   4  21
TORSDOF 9
ENDMDL
MODEL 5
REMARK VINA RESULT:      -7.4      3.317      5.292
REMARK  9 active torsions:
REMARK  status: ('A' for Active; 'I' for Inactive)
REMARK    1  A    between atoms: C2_2  and  C3_3 
REMARK    2  A    between atoms: C3_3  and  C4_4 
REMARK    3  A    between atoms: C4_4  and  C5_5 
REMARK    4  A    between atoms: C5_5  and  C6_6 
REMARK    5  A    between atoms: C6_6  and  C7_7 
REMARK    6  A    between atoms: C7_7  and  O1_8 
REMARK    7  A    between atoms: O1_8  and  C8_9 
REMARK    8  A    between atoms: C11_12  and  N1_13 
REMARK    9  A    between atoms: C20_26  and  O2_27 
ROOT
HETATM    1  C8  UNL     1      26.830   1.991  52.249  1.00  0.00     0.102 A 
HETATM    2  C9  UNL     1      25.566   1.456  52.384  1.00  0.00     0.057 A 
HETATM    3  C10 UNL     1      25.316   0.573  53.411  1.00  0.00     0.042 A 
HETATM    4  C11 UNL     1      24.022   0.121  53.436  1.00  0.00     0.144 A 
HETATM    5  N2  UNL     1      23.673  -0.756  54.422  1.00  0.00    -0.223 NA
HETATM    6  C17 UNL     1      24.610  -1.146  55.334  1.00  0.00     0.236 A 
HETATM    7  N3  UNL     1      25.892  -0.687  55.295  1.00  0.00    -0.241 NA
HETATM    8  C18 UNL     1      26.260   0.178  54.332  1.00  0.00     0.075 A 
HETATM    9  C19 UNL     1      27.524   0.719  54.188  1.00  0.00     0.072 A 
HETATM   10  C20 UNL     1      27.801   1.616  53.154  1.00  0.00     0.101 A 
ENDROOT
BRANCH   1  11
HETATM   11  O1  UNL     1      27.172   2.878  51.256  1.00  0.00    -0.348 OA
BRANCH  11  12
HETATM   12  C7  UNL     1      26.233   3.465  50.377  1.00  0.00     0.176 C 
BRANCH  12  13
HETATM   13  C6  UNL     1      26.905   4.007  49.131  1.00  0.00     0.027 C 
BRANCH  13  14
HETATM   14  C5  UNL     1      26.509   5.471  49.022  1.00  0.00     0.003 C 
BRANCH  14  15
HETATM   15  C4  UNL     1      27.594   6.305  48.365  1.00  0.00     0.017 C 
BRANCH  15  16
HETATM   16  C3  UNL     1      28.793   5.489  48.236  1.00  0.00     0.066 C 
BRANCH  16  17
HETATM   17  C2  UNL     1      30.004   6.026  48.276  1.00  0.00    -0.176 C 
HETATM   18  C1  UNL     1      31.264   6.357  48.515  1.00  0.00     0.091 C 
ENDBRANCH  16  17
ENDBRANCH  15  16
ENDBRANCH  14  15
ENDBRANCH  13  14
ENDBRANCH  12  13
ENDBRANCH  11  12
ENDBRANCH   1  11
BRANCH  10  19
HETATM   19  O2  UNL     1      29.105   2.104  53.096  1.00  0.00    -0.358 OA
HETATM   20  H19 UNL     1      29.464   2.635  52.332  1.00  0.00     0.217 HD
ENDBRANCH  10  19
BRANCH   4  21
HETATM   21  N1  UNL     1      22.922   0.375  52.580  1.00  0.00    -0.336 N 
HETATM   22  C12 UNL     1      21.740  -0.218  53.162  1.00  0.00     0.120 A 
HETATM   23  C13 UNL     1      20.513  -0.165  52.640  1.00  0.00     0.087 A 
HETATM   24 CL1  UNL     1      19.065  -0.873  53.323  1.00  0.00    -0.080 Cl
HETATM   25  C14 UNL     1      20.309   0.540  51.367  1.00  0.00     0.137 A 
HETATM   26  F1  UNL     1      19.145   0.689  50.706  1.00  0.00    -0.205 F 
HETATM   27  C15 UNL     1      21.412   1.065  50.863  1.00  0.00     0.037 A 
HETATM   28  C16 UNL     1      22.820   1.079  51.331  1.00  0.00     0.160 A 
ENDBRANCH   4  21
TORSDOF 9
ENDMDL
MODEL 6
REMARK VINA RESULT:      -6.8      2.675      4.553
REMARK  9 active torsions:
REMARK  status: ('A' for Active; 'I' for Inactive)
REMARK    1  A    between atoms: C2_2  and  C3_3 
REMARK    2  A    between atoms: C3_3  and  C4_4 
REMARK    3  A    between atoms: C4_4  and  C5_5 
REMARK    4  A    between atoms: C5_5  and  C6_6 
REMARK    5  A    between atoms: C6_6  and  C7_7 
REMARK    6  A    between atoms: C7_7  and  O1_8 
REMARK    7  A    between atoms: O1_8  and  C8_9 
REMARK    8  A    between atoms: C11_12  and  N1_13 
REMARK    9  A    between atoms: C20_26  and  O2_27 
ROOT
HETATM    1  C8  UNL     1      24.866   1.388  51.848  1.00  0.00     0.102 A 
HETATM    2  C9  UNL     1      23.511   1.389  52.106  1.00  0.00     0.057 A 
HETATM    3  C10 UNL     1      23.008   0.536  53.064  1.00  0.00     0.042 A 
HETATM    4  C11 UNL     1      21.652   0.640  53.227  1.00  0.00     0.144 A 
HETATM    5  N2  UNL     1      21.059  -0.161  54.160  1.00  0.00    -0.223 NA
HETATM    6  C17 UNL     1      21.826  -1.023  54.886  1.00  0.00     0.236 A 
HETATM    7  N3  UNL     1      23.174  -1.114  54.712  1.00  0.00    -0.241 NA
HETATM    8  C18 UNL     1      23.781  -0.335  53.799  1.00  0.00     0.075 A 
HETATM    9  C19 UNL     1      25.138  -0.329  53.533  1.00  0.00     0.072 A 
HETATM   10  C20 UNL     1      25.670   0.526  52.565  1.00  0.00     0.101 A 
ENDROOT
BRANCH   1  11
HETATM   11  O1  UNL     1      25.456   2.202  50.910  1.00  0.00    -0.348 OA
BRANCH  11  12
HETATM   12  C7  UNL     1      25.271   3.603  50.866  1.00  0.00     0.176 C 
BRANCH  12  13
HETATM   13  C6  UNL     1      25.632   4.166  49.506  1.00  0.00     0.027 C 
BRANCH  13  14
HETATM   14  C5  UNL     1      24.396   4.887  48.990  1.00  0.00     0.003 C 
BRANCH  14  15
HETATM   15  C4  UNL     1      23.116   4.165  49.372  1.00  0.00     0.017 C 
BRANCH  15  16
HETATM   16  C3  UNL     1      22.727   3.297  48.270  1.00  0.00     0.066 C 
BRANCH  16  17
HETATM   17  C2  UNL     1      22.229   2.087  48.485  1.00  0.00    -0.176 C 
HETATM   18  C1  UNL     1      21.545   1.021  48.872  1.00  0.00     0.091 C 
ENDBRANCH  16  17
ENDBRANCH  15  16
ENDBRANCH  14  15
ENDBRANCH  13  14
ENDBRANCH  12  13
ENDBRANCH  11  12
ENDBRANCH   1  11
BRANCH  10  19
HETATM   19  O2  UNL     1      27.048   0.456  52.373  1.00  0.00    -0.358 OA
HETATM   20  H19 UNL     1      27.520  -0.357  52.041  1.00  0.00     0.217 HD
ENDBRANCH  10  19
BRANCH   4  21
HETATM   21  N1  UNL     1      20.685   1.438  52.564  1.00  0.00    -0.336 N 
HETATM   22  C12 UNL     1      19.734   0.564  51.917  1.00  0.00     0.120 A 
HETATM   23  C13 UNL     1      18.675   0.963  51.211  1.00  0.00     0.087 A 
HETATM   24 CL1  UNL     1      17.508  -0.072  50.417  1.00  0.00    -0.080 Cl
HETATM   25  C14 UNL     1      18.425   2.403  51.053  1.00  0.00     0.137 A 
HETATM   26  F1  UNL     1      17.409   2.975  50.379  1.00  0.00    -0.205 F 
HETATM   27  C15 UNL     1      19.317   3.170  51.654  1.00  0.00     0.037 A 
HETATM   28  C16 UNL     1      20.526   2.862  52.458  1.00  0.00     0.160 A 
ENDBRANCH   4  21
TORSDOF 9
ENDMDL
MODEL 7
REMARK VINA RESULT:      -6.7      2.502      4.139
REMARK  9 active torsions:
REMARK  status: ('A' for Active; 'I' for Inactive)
REMARK    1  A    between atoms: C2_2  and  C3_3 
REMARK    2  A    between atoms: C3_3  and  C4_4 
REMARK    3  A    between atoms: C4_4  and  C5_5 
REMARK    4  A    between atoms: C5_5  and  C6_6 
REMARK    5  A    between atoms: C6_6  and  C7_7 
REMARK    6  A    between atoms: C7_7  and  O1_8 
REMARK    7  A    between atoms: O1_8  and  C8_9 
REMARK    8  A    between atoms: C11_12  and  N1_13 
REMARK    9  A    between atoms: C20_26  and  O2_27 
ROOT
HETATM    1  C8  UNL     1      22.213   0.766  52.494  1.00  0.00     0.102 A 
HETATM    2  C9  UNL     1      22.864   1.780  51.823  1.00  0.00     0.057 A 
HETATM    3  C10 UNL     1      22.189   2.950  51.552  1.00  0.00     0.042 A 
HETATM    4  C11 UNL     1      22.949   3.876  50.887  1.00  0.00     0.144 A 
HETATM    5  N2  UNL     1      22.369   5.073  50.579  1.00  0.00    -0.223 NA
HETATM    6  C17 UNL     1      21.073   5.300  50.937  1.00  0.00     0.236 A 
HETATM    7  N3  UNL     1      20.331   4.369  51.598  1.00  0.00    -0.241 NA
HETATM    8  C18 UNL     1      20.880   3.183  51.913  1.00  0.00     0.075 A 
HETATM    9  C19 UNL     1      20.236   2.160  52.585  1.00  0.00     0.072 A 
HETATM   10  C20 UNL     1      20.901   0.965  52.870  1.00  0.00     0.101 A 
ENDROOT
BRANCH   1  11
HETATM   11  O1  UNL     1      22.807  -0.434  52.806  1.00  0.00    -0.348 OA
BRANCH  11  12
HETATM   12  C7  UNL     1      23.754  -0.590  53.843  1.00  0.00     0.176 C 
BRANCH  12  13
HETATM   13  C6  UNL     1      25.172  -0.567  53.306  1.00  0.00     0.027 C 
BRANCH  13  14
HETATM   14  C5  UNL     1      25.842   0.665  53.895  1.00  0.00     0.003 C 
BRANCH  14  15
HETATM   15  C4  UNL     1      26.867   0.301  54.954  1.00  0.00     0.017 C 
BRANCH  15  16
HETATM   16  C3  UNL     1      28.196   0.579  54.427  1.00  0.00     0.066 C 
BRANCH  16  17
HETATM   17  C2  UNL     1      29.023  -0.399  54.086  1.00  0.00    -0.176 C 
HETATM   18  C1  UNL     1      29.802  -1.278  53.474  1.00  0.00     0.091 C 
ENDBRANCH  16  17
ENDBRANCH  15  16
ENDBRANCH  14  15
ENDBRANCH  13  14
ENDBRANCH  12  13
ENDBRANCH  11  12
ENDBRANCH   1  11
BRANCH  10  19
HETATM   19  O2  UNL     1      20.164  -0.002  53.550  1.00  0.00    -0.358 OA
HETATM   20  H19 UNL     1      20.514  -0.909  53.774  1.00  0.00     0.217 HD
ENDBRANCH  10  19
BRANCH   4  21
HETATM   21  N1  UNL     1      24.281   3.826  50.406  1.00  0.00    -0.336 N 
HETATM   22  C12 UNL     1      24.539   5.025  49.642  1.00  0.00     0.120 A 
HETATM   23  C13 UNL     1      25.696   5.329  49.050  1.00  0.00     0.087 A 
HETATM   24 CL1  UNL     1      26.035   6.772  48.119  1.00  0.00    -0.080 Cl
HETATM   25  C14 UNL     1      26.820   4.390  49.158  1.00  0.00     0.137 A 
HETATM   26  F1  UNL     1      28.050   4.540  48.626  1.00  0.00    -0.205 F 
HETATM   27  C15 UNL     1      26.546   3.304  49.860  1.00  0.00     0.037 A 
HETATM   28  C16 UNL     1      25.321   2.845  50.560  1.00  0.00     0.160 A 
ENDBRANCH   4  21
TORSDOF 9
ENDMDL
MODEL 8
REMARK VINA RESULT:      -6.7      2.622      4.109
REMARK  9 active torsions:
REMARK  status: ('A' for Active; 'I' for Inactive)
REMARK    1  A    between atoms: C2_2  and  C3_3 
REMARK    2  A    between atoms: C3_3  and  C4_4 
REMARK    3  A    between atoms: C4_4  and  C5_5 
REMARK    4  A    between atoms: C5_5  and  C6_6 
REMARK    5  A    between atoms: C6_6  and  C7_7 
REMARK    6  A    between atoms: C7_7  and  O1_8 
REMARK    7  A    between atoms: O1_8  and  C8_9 
REMARK    8  A    between atoms: C11_12  and  N1_13 
REMARK    9  A    between atoms: C20_26  and  O2_27 
ROOT
HETATM    1  C8  UNL     1      25.752   0.818  52.188  1.00  0.00     0.102 A 
HETATM    2  C9  UNL     1      24.404   1.100  52.278  1.00  0.00     0.057 A 
HETATM    3  C10 UNL     1      23.634   0.417  53.194  1.00  0.00     0.042 A 
HETATM    4  C11 UNL     1      22.317   0.794  53.185  1.00  0.00     0.144 A 
HETATM    5  N2  UNL     1      21.473   0.178  54.063  1.00  0.00    -0.223 NA
HETATM    6  C17 UNL     1      21.962  -0.777  54.905  1.00  0.00     0.236 A 
HETATM    7  N3  UNL     1      23.275  -1.140  54.901  1.00  0.00    -0.241 NA
HETATM    8  C18 UNL     1      24.126  -0.547  54.045  1.00  0.00     0.075 A 
HETATM    9  C19 UNL     1      25.478  -0.823  53.947  1.00  0.00     0.072 A 
HETATM   10  C20 UNL     1      26.278  -0.144  53.026  1.00  0.00     0.101 A 
ENDROOT
BRANCH   1  11
HETATM   11  O1  UNL     1      26.597   1.448  51.305  1.00  0.00    -0.348 OA
BRANCH  11  12
HETATM   12  C7  UNL     1      26.535   2.830  51.016  1.00  0.00     0.176 C 
BRANCH  12  13
HETATM   13  C6  UNL     1      26.472   3.081  49.522  1.00  0.00     0.027 C 
BRANCH  13  14
HETATM   14  C5  UNL     1      26.517   4.589  49.330  1.00  0.00     0.003 C 
BRANCH  14  15
HETATM   15  C4  UNL     1      27.759   5.028  48.577  1.00  0.00     0.017 C 
BRANCH  15  16
HETATM   16  C3  UNL     1      27.614   6.433  48.222  1.00  0.00     0.066 C 
BRANCH  16  17
HETATM   17  C2  UNL     1      28.584   7.095  47.607  1.00  0.00    -0.176 C 
HETATM   18  C1  UNL     1      29.484   7.584  46.769  1.00  0.00     0.091 C 
ENDBRANCH  16  17
ENDBRANCH  15  16
ENDBRANCH  14  15
ENDBRANCH  13  14
ENDBRANCH  12  13
ENDBRANCH  11  12
ENDBRANCH   1  11
BRANCH  10  19
HETATM   19  O2  UNL     1      27.626  -0.494  53.006  1.00  0.00    -0.358 OA
HETATM   20  H19 UNL     1      28.090  -0.956  53.758  1.00  0.00     0.217 HD
ENDBRANCH  10  19
BRANCH   4  21
HETATM   21  N1  UNL     1      21.613   1.728  52.384  1.00  0.00    -0.336 N 
HETATM   22  C12 UNL     1      20.562   1.030  51.681  1.00  0.00     0.120 A 
HETATM   23  C13 UNL     1      19.686   1.592  50.846  1.00  0.00     0.087 A 
HETATM   24 CL1  UNL     1      18.404   0.771  49.982  1.00  0.00    -0.080 Cl
HETATM   25  C14 UNL     1      19.769   3.037  50.593  1.00  0.00     0.137 A 
HETATM   26  F1  UNL     1      18.969   3.761  49.786  1.00  0.00    -0.205 F 
HETATM   27  C15 UNL     1      20.744   3.641  51.249  1.00  0.00     0.037 A 
HETATM   28  C16 UNL     1      21.776   3.143  52.193  1.00  0.00     0.160 A 
ENDBRANCH   4  21
TORSDOF 9
ENDMDL
MODEL 9
REMARK VINA RESULT:      -6.7      3.346      5.229
REMARK  9 active torsions:
REMARK  status: ('A' for Active; 'I' for Inactive)
REMARK    1  A    between atoms: C2_2  and  C3_3 
REMARK    2  A    between atoms: C3_3  and  C4_4 
REMARK    3  A    between atoms: C4_4  and  C5_5 
REMARK    4  A    between atoms: C5_5  and  C6_6 
REMARK    5  A    between atoms: C6_6  and  C7_7 
REMARK    6  A    between atoms: C7_7  and  O1_8 
REMARK    7  A    between atoms: O1_8  and  C8_9 
REMARK    8  A    between atoms: C11_12  and  N1_13 
REMARK    9  A    between atoms: C20_26  and  O2_27 
ROOT
HETATM    1  C8  UNL     1      21.286   0.957  51.229  1.00  0.00     0.102 A 
HETATM    2  C9  UNL     1      22.427   0.769  51.981  1.00  0.00     0.057 A 
HETATM    3  C10 UNL     1      22.381  -0.067  53.075  1.00  0.00     0.042 A 
HETATM    4  C11 UNL     1      23.580  -0.171  53.730  1.00  0.00     0.144 A 
HETATM    5  N2  UNL     1      23.638  -0.983  54.826  1.00  0.00    -0.223 NA
HETATM    6  C17 UNL     1      22.518  -1.651  55.224  1.00  0.00     0.236 A 
HETATM    7  N3  UNL     1      21.334  -1.537  54.561  1.00  0.00    -0.241 NA
HETATM    8  C18 UNL     1      21.251  -0.743  53.479  1.00  0.00     0.075 A 
HETATM    9  C19 UNL     1      20.113  -0.547  52.720  1.00  0.00     0.072 A 
HETATM   10  C20 UNL     1      20.135   0.296  51.606  1.00  0.00     0.101 A 
ENDROOT
BRANCH   1  11
HETATM   11  O1  UNL     1      21.237   1.772  50.123  1.00  0.00    -0.348 OA
BRANCH  11  12
HETATM   12  C7  UNL     1      21.903   1.482  48.910  1.00  0.00     0.176 C 
BRANCH  12  13
HETATM   13  C6  UNL     1      22.699   2.674  48.417  1.00  0.00     0.027 C 
BRANCH  13  14
HETATM   14  C5  UNL     1      23.855   2.858  49.386  1.00  0.00     0.003 C 
BRANCH  14  15
HETATM   15  C4  UNL     1      24.424   4.265  49.331  1.00  0.00     0.017 C 
BRANCH  15  16
HETATM   16  C3  UNL     1      23.473   5.175  49.952  1.00  0.00     0.066 C 
BRANCH  16  17
HETATM   17  C2  UNL     1      22.982   4.943  51.162  1.00  0.00    -0.176 C 
HETATM   18  C1  UNL     1      22.380   4.474  52.244  1.00  0.00     0.091 C 
ENDBRANCH  16  17
ENDBRANCH  15  16
ENDBRANCH  14  15
ENDBRANCH  13  14
ENDBRANCH  12  13
ENDBRANCH  11  12
ENDBRANCH   1  11
BRANCH  10  19
HETATM   19  O2  UNL     1      18.937   0.425  50.908  1.00  0.00    -0.358 OA
HETATM   20  H19 UNL     1      18.052   0.135  51.266  1.00  0.00     0.217 HD
ENDBRANCH  10  19
BRANCH   4  21
HETATM   21  N1  UNL     1      24.833   0.450  53.500  1.00  0.00    -0.336 N 
HETATM   22  C12 UNL     1      25.857  -0.569  53.492  1.00  0.00     0.120 A 
HETATM   23  C13 UNL     1      27.158  -0.354  53.289  1.00  0.00     0.087 A 
HETATM   24 CL1  UNL     1      28.419  -1.568  53.274  1.00  0.00    -0.080 Cl
HETATM   25  C14 UNL     1      27.626   1.019  53.055  1.00  0.00     0.137 A 
HETATM   26  F1  UNL     1      28.896   1.411  52.832  1.00  0.00    -0.205 F 
HETATM   27  C15 UNL     1      26.663   1.924  53.074  1.00  0.00     0.037 A 
HETATM   28  C16 UNL     1      25.198   1.824  53.287  1.00  0.00     0.160 A 
ENDBRANCH   4  21
TORSDOF 9
ENDMDL
