MODEL 1
REMARK VINA RESULT:      -8.0      0.000      0.000
REMARK  1 active torsions:
REMARK  status: ('A' for Active; 'I' for Inactive)
REMARK    1  A    between atoms: C5_6  and  N1_7 
REMARK       I    between atoms: N1_7  and  C6_8 
ROOT
HETATM    1  N1  UNL     1      23.646   0.970  53.401  1.00  0.00    -0.190 N 
HETATM    2  C6  UNL     1      24.776   0.272  52.934  1.00  0.00     0.708 C 
HETATM    3  N2  UNL     1      24.998  -1.014  52.805  1.00  0.00    -0.058 NA
HETATM    4  C7  UNL     1      26.347  -1.599  52.872  1.00  0.00     0.253 C 
HETATM    5  N3  UNL     1      27.548  -1.028  52.586  1.00  0.00    -0.243 NA
HETATM    6  C8  UNL     1      27.734   0.442  52.435  1.00  0.00     0.063 C 
HETATM    7  C9  UNL     1      26.892   1.141  51.550  1.00  0.00     0.137 C 
HETATM    8  N4  UNL     1      25.833   1.228  52.603  1.00  0.00    -0.185 N 
HETATM    9  C10 UNL     1      25.758   2.326  53.689  1.00  0.00     0.185 C 
HETATM   10  C11 UNL     1      27.236   1.949  54.114  1.00  0.00    -0.042 C 
HETATM   11  C12 UNL     1      28.410   2.433  53.783  1.00  0.00    -0.003 C 
HETATM   12  C13 UNL     1      28.812   1.030  53.344  1.00  0.00     0.085 C 
HETATM   13  C14 UNL     1      28.688   0.498  54.767  1.00  0.00    -0.011 C 
HETATM   14  C15 UNL     1      27.355   0.622  54.820  1.00  0.00     0.005 C 
HETATM   15  H4  UNL     1      23.723   1.996  53.545  1.00  0.00     0.184 HD
ENDROOT
BRANCH   1  16
HETATM   16  C5  UNL     1      22.530   0.171  53.613  1.00  0.00     0.050 A 
HETATM   17  C4  UNL     1      22.234  -0.833  54.478  1.00  0.00     0.030 A 
HETATM   18  C3  UNL     1      21.042  -1.475  54.532  1.00  0.00     0.004 A 
HETATM   19  C2  UNL     1      20.023  -1.148  53.695  1.00  0.00     0.019 A 
HETATM   20  C1  UNL     1      20.244  -0.149  52.797  1.00  0.00     0.013 A 
HETATM   21 BR1  UNL     1      18.812   0.310  51.621  1.00  0.00    -0.051 Br
HETATM   22  C16 UNL     1      21.470   0.494  52.757  1.00  0.00     0.049 A 
ENDBRANCH   1  16
TORSDOF 1
ENDMDL
MODEL 2
REMARK VINA RESULT:      -7.8      3.684      6.508
REMARK  1 active torsions:
REMARK  status: ('A' for Active; 'I' for Inactive)
REMARK    1  A    between atoms: C5_6  and  N1_7 
REMARK       I    between atoms: N1_7  and  C6_8 
ROOT
HETATM    1  N1  UNL     1      26.499   2.929  51.509  1.00  0.00    -0.190 N 
HETATM    2  C6  UNL     1      25.152   3.117  51.877  1.00  0.00     0.708 C 
HETATM    3  N2  UNL     1      24.415   2.512  52.777  1.00  0.00    -0.058 NA
HETATM    4  C7  UNL     1      22.953   2.392  52.658  1.00  0.00     0.253 C 
HETATM    5  N3  UNL     1      22.074   3.194  51.999  1.00  0.00    -0.243 NA
HETATM    6  C8  UNL     1      22.496   4.210  50.995  1.00  0.00     0.063 C 
HETATM    7  C9  UNL     1      23.487   5.143  51.354  1.00  0.00     0.137 C 
HETATM    8  N4  UNL     1      24.559   4.151  51.029  1.00  0.00    -0.185 N 
HETATM    9  C10 UNL     1      25.151   3.924  49.618  1.00  0.00     0.185 C 
HETATM   10  C11 UNL     1      23.682   3.671  49.087  1.00  0.00    -0.042 C 
HETATM   11  C12 UNL     1      22.788   4.453  48.526  1.00  0.00    -0.003 C 
HETATM   12  C13 UNL     1      21.818   4.059  49.634  1.00  0.00     0.085 C 
HETATM   13  C14 UNL     1      21.812   2.605  49.177  1.00  0.00    -0.011 C 
HETATM   14  C15 UNL     1      23.079   2.365  49.539  1.00  0.00     0.005 C 
HETATM   15  H4  UNL     1      26.858   3.431  50.674  1.00  0.00     0.184 HD
ENDROOT
BRANCH   1  16
HETATM   16  C5  UNL     1      27.201   2.068  52.343  1.00  0.00     0.050 A 
HETATM   17  C4  UNL     1      28.089   2.245  53.355  1.00  0.00     0.030 A 
HETATM   18  C3  UNL     1      28.646   1.240  54.073  1.00  0.00     0.004 A 
HETATM   19  C2  UNL     1      28.346  -0.061  53.822  1.00  0.00     0.019 A 
HETATM   20  C1  UNL     1      27.461  -0.319  52.820  1.00  0.00     0.013 A 
HETATM   21 BR1  UNL     1      27.039  -2.147  52.468  1.00  0.00    -0.051 Br
HETATM   22  C16 UNL     1      26.903   0.723  52.097  1.00  0.00     0.049 A 
ENDBRANCH   1  16
TORSDOF 1
ENDMDL
MODEL 3
REMARK VINA RESULT:      -7.4      3.657      6.549
REMARK  1 active torsions:
REMARK  status: ('A' for Active; 'I' for Inactive)
REMARK    1  A    between atoms: C5_6  and  N1_7 
REMARK       I    between atoms: N1_7  and  C6_8 
ROOT
HETATM    1  N1  UNL     1      25.326   1.288  52.811  1.00  0.00    -0.190 N 
HETATM    2  C6  UNL     1      25.049   2.086  51.684  1.00  0.00     0.708 C 
HETATM    3  N2  UNL     1      25.823   2.878  50.981  1.00  0.00    -0.058 NA
HETATM    4  C7  UNL     1      25.310   4.044  50.246  1.00  0.00     0.253 C 
HETATM    5  N3  UNL     1      24.068   4.262  49.735  1.00  0.00    -0.243 NA
HETATM    6  C8  UNL     1      22.880   3.445  50.110  1.00  0.00     0.063 C 
HETATM    7  C9  UNL     1      22.966   2.044  50.008  1.00  0.00     0.137 C 
HETATM    8  N4  UNL     1      23.630   1.973  51.347  1.00  0.00    -0.185 N 
HETATM    9  C10 UNL     1      22.882   1.921  52.700  1.00  0.00     0.185 C 
HETATM   10  C11 UNL     1      22.127   3.250  52.285  1.00  0.00    -0.042 C 
HETATM   11  C12 UNL     1      20.967   3.476  51.715  1.00  0.00    -0.003 C 
HETATM   12  C13 UNL     1      21.703   4.263  50.637  1.00  0.00     0.085 C 
HETATM   13  C14 UNL     1      22.163   5.307  51.648  1.00  0.00    -0.011 C 
HETATM   14  C15 UNL     1      22.996   4.482  52.295  1.00  0.00     0.005 C 
HETATM   15  H4  UNL     1      24.531   0.830  53.299  1.00  0.00     0.184 HD
ENDROOT
BRANCH   1  16
HETATM   16  C5  UNL     1      26.674   1.209  53.136  1.00  0.00     0.050 A 
HETATM   17  C4  UNL     1      27.602   2.108  53.555  1.00  0.00     0.030 A 
HETATM   18  C3  UNL     1      28.888   1.803  53.848  1.00  0.00     0.004 A 
HETATM   19  C2  UNL     1      29.359   0.533  53.741  1.00  0.00     0.019 A 
HETATM   20  C1  UNL     1      28.486  -0.426  53.326  1.00  0.00     0.013 A 
HETATM   21 BR1  UNL     1      29.146  -2.211  53.175  1.00  0.00    -0.051 Br
HETATM   22  C16 UNL     1      27.174  -0.094  53.029  1.00  0.00     0.049 A 
ENDBRANCH   1  16
TORSDOF 1
ENDMDL
MODEL 4
REMARK VINA RESULT:      -7.4      3.261      6.618
REMARK  1 active torsions:
REMARK  status: ('A' for Active; 'I' for Inactive)
REMARK    1  A    between atoms: C5_6  and  N1_7 
REMARK       I    between atoms: N1_7  and  C6_8 
ROOT
HETATM    1  N1  UNL     1      25.179   1.507  51.556  1.00  0.00    -0.190 N 
HETATM    2  C6  UNL     1      23.950   1.550  52.244  1.00  0.00     0.708 C 
HETATM    3  N2  UNL     1      23.518   0.863  53.273  1.00  0.00    -0.058 NA
HETATM    4  C7  UNL     1      22.091   0.591  53.506  1.00  0.00     0.253 C 
HETATM    5  N3  UNL     1      21.002   1.305  53.108  1.00  0.00    -0.243 NA
HETATM    6  C8  UNL     1      21.065   2.369  52.068  1.00  0.00     0.063 C 
HETATM    7  C9  UNL     1      22.017   3.396  52.210  1.00  0.00     0.137 C 
HETATM    8  N4  UNL     1      23.069   2.525  51.601  1.00  0.00    -0.185 N 
HETATM    9  C10 UNL     1      23.320   2.376  50.082  1.00  0.00     0.185 C 
HETATM   10  C11 UNL     1      21.797   1.976  49.912  1.00  0.00    -0.042 C 
HETATM   11  C12 UNL     1      20.722   2.666  49.612  1.00  0.00    -0.003 C 
HETATM   12  C13 UNL     1      20.095   2.162  50.906  1.00  0.00     0.085 C 
HETATM   13  C14 UNL     1      20.120   0.720  50.413  1.00  0.00    -0.011 C 
HETATM   14  C15 UNL     1      21.454   0.610  50.450  1.00  0.00     0.005 C 
HETATM   15  H4  UNL     1      25.272   2.052  50.677  1.00  0.00     0.184 HD
ENDROOT
BRANCH   1  16
HETATM   16  C5  UNL     1      26.145   0.716  52.165  1.00  0.00     0.050 A 
HETATM   17  C4  UNL     1      26.375  -0.622  52.222  1.00  0.00     0.030 A 
HETATM   18  C3  UNL     1      27.421  -1.193  52.867  1.00  0.00     0.004 A 
HETATM   19  C2  UNL     1      28.344  -0.444  53.524  1.00  0.00     0.019 A 
HETATM   20  C1  UNL     1      28.180   0.908  53.511  1.00  0.00     0.013 A 
HETATM   21 BR1  UNL     1      29.477   1.960  54.435  1.00  0.00    -0.051 Br
HETATM   22  C16 UNL     1      27.103   1.473  52.847  1.00  0.00     0.049 A 
ENDBRANCH   1  16
TORSDOF 1
ENDMDL
MODEL 5
REMARK VINA RESULT:      -7.4      2.845      3.981
REMARK  1 active torsions:
REMARK  status: ('A' for Active; 'I' for Inactive)
REMARK    1  A    between atoms: C5_6  and  N1_7 
REMARK       I    between atoms: N1_7  and  C6_8 
ROOT
HETATM    1  N1  UNL     1      22.842   1.612  51.621  1.00  0.00    -0.190 N 
HETATM    2  C6  UNL     1      24.173   2.066  51.716  1.00  0.00     0.708 C 
HETATM    3  N2  UNL     1      24.953   2.628  50.825  1.00  0.00    -0.058 NA
HETATM    4  C7  UNL     1      26.420   2.513  50.866  1.00  0.00     0.253 C 
HETATM    5  N3  UNL     1      27.237   2.304  51.934  1.00  0.00    -0.243 NA
HETATM    6  C8  UNL     1      26.741   1.838  53.258  1.00  0.00     0.063 C 
HETATM    7  C9  UNL     1      25.685   2.543  53.868  1.00  0.00     0.137 C 
HETATM    8  N4  UNL     1      24.688   1.780  53.055  1.00  0.00    -0.185 N 
HETATM    9  C10 UNL     1      24.110   0.397  53.438  1.00  0.00     0.185 C 
HETATM   10  C11 UNL     1      25.594  -0.147  53.543  1.00  0.00    -0.042 C 
HETATM   11  C12 UNL     1      26.427  -0.277  54.549  1.00  0.00    -0.003 C 
HETATM   12  C13 UNL     1      27.425   0.572  53.771  1.00  0.00     0.085 C 
HETATM   13  C14 UNL     1      27.536  -0.479  52.673  1.00  0.00    -0.011 C 
HETATM   14  C15 UNL     1      26.291  -0.299  52.215  1.00  0.00     0.005 C 
HETATM   15  H4  UNL     1      22.446   1.074  52.417  1.00  0.00     0.184 HD
ENDROOT
BRANCH   1  16
HETATM   16  C5  UNL     1      22.206   1.958  50.437  1.00  0.00     0.050 A 
HETATM   17  C4  UNL     1      22.033   1.342  49.238  1.00  0.00     0.030 A 
HETATM   18  C3  UNL     1      21.335   1.862  48.201  1.00  0.00     0.004 A 
HETATM   19  C2  UNL     1      20.736   3.079  48.288  1.00  0.00     0.019 A 
HETATM   20  C1  UNL     1      20.865   3.759  49.461  1.00  0.00     0.013 A 
HETATM   21 BR1  UNL     1      20.024   5.469  49.583  1.00  0.00    -0.051 Br
HETATM   22  C16 UNL     1      21.584   3.210  50.510  1.00  0.00     0.049 A 
ENDBRANCH   1  16
TORSDOF 1
ENDMDL
MODEL 6
REMARK VINA RESULT:      -7.3      2.099      2.790
REMARK  1 active torsions:
REMARK  status: ('A' for Active; 'I' for Inactive)
REMARK    1  A    between atoms: C5_6  and  N1_7 
REMARK       I    between atoms: N1_7  and  C6_8 
ROOT
HETATM    1  N1  UNL     1      24.699   2.186  51.584  1.00  0.00    -0.190 N 
HETATM    2  C6  UNL     1      24.939   0.992  52.291  1.00  0.00     0.708 C 
HETATM    3  N2  UNL     1      24.195   0.336  53.148  1.00  0.00    -0.058 NA
HETATM    4  C7  UNL     1      24.760  -0.516  54.205  1.00  0.00     0.253 C 
HETATM    5  N3  UNL     1      25.952  -1.173  54.236  1.00  0.00    -0.243 NA
HETATM    6  C8  UNL     1      27.062  -0.887  53.286  1.00  0.00     0.063 C 
HETATM    7  C9  UNL     1      26.789  -0.900  51.905  1.00  0.00     0.137 C 
HETATM    8  N4  UNL     1      26.283   0.506  51.978  1.00  0.00    -0.185 N 
HETATM    9  C10 UNL     1      27.172   1.768  51.884  1.00  0.00     0.185 C 
HETATM   10  C11 UNL     1      28.035   1.198  53.083  1.00  0.00    -0.042 C 
HETATM   11  C12 UNL     1      29.140   0.490  53.130  1.00  0.00    -0.003 C 
HETATM   12  C13 UNL     1      28.387  -0.541  53.963  1.00  0.00     0.085 C 
HETATM   13  C14 UNL     1      28.185   0.454  55.099  1.00  0.00    -0.011 C 
HETATM   14  C15 UNL     1      27.336   1.235  54.418  1.00  0.00     0.005 C 
HETATM   15  H4  UNL     1      25.481   2.607  51.045  1.00  0.00     0.184 HD
ENDROOT
BRANCH   1  16
HETATM   16  C5  UNL     1      23.399   2.662  51.696  1.00  0.00     0.050 A 
HETATM   17  C4  UNL     1      22.817   3.672  52.394  1.00  0.00     0.030 A 
HETATM   18  C3  UNL     1      21.501   3.988  52.334  1.00  0.00     0.004 A 
HETATM   19  C2  UNL     1      20.640   3.293  51.546  1.00  0.00     0.019 A 
HETATM   20  C1  UNL     1      21.150   2.264  50.815  1.00  0.00     0.013 A 
HETATM   21 BR1  UNL     1      19.940   1.288  49.707  1.00  0.00    -0.051 Br
HETATM   22  C16 UNL     1      22.499   1.956  50.890  1.00  0.00     0.049 A 
ENDBRANCH   1  16
TORSDOF 1
ENDMDL
MODEL 7
REMARK VINA RESULT:      -7.0      4.726      6.824
REMARK  1 active torsions:
REMARK  status: ('A' for Active; 'I' for Inactive)
REMARK    1  A    between atoms: C5_6  and  N1_7 
REMARK       I    between atoms: N1_7  and  C6_8 
ROOT
HETATM    1  N1  UNL     1      25.886   3.029  51.417  1.00  0.00    -0.190 N 
HETATM    2  C6  UNL     1      24.590   3.572  51.509  1.00  0.00     0.708 C 
HETATM    3  N2  UNL     1      23.472   3.054  51.955  1.00  0.00    -0.058 NA
HETATM    4  C7  UNL     1      22.148   3.480  51.472  1.00  0.00     0.253 C 
HETATM    5  N3  UNL     1      21.768   4.675  50.945  1.00  0.00    -0.243 NA
HETATM    6  C8  UNL     1      22.740   5.700  50.472  1.00  0.00     0.063 C 
HETATM    7  C9  UNL     1      23.766   6.110  51.344  1.00  0.00     0.137 C 
HETATM    8  N4  UNL     1      24.591   4.925  50.953  1.00  0.00    -0.185 N 
HETATM    9  C10 UNL     1      25.530   4.871  49.725  1.00  0.00     0.185 C 
HETATM   10  C11 UNL     1      24.299   5.283  48.818  1.00  0.00    -0.042 C 
HETATM   11  C12 UNL     1      23.869   6.440  48.370  1.00  0.00    -0.003 C 
HETATM   12  C13 UNL     1      22.525   6.141  49.025  1.00  0.00     0.085 C 
HETATM   13  C14 UNL     1      22.293   4.944  48.110  1.00  0.00    -0.011 C 
HETATM   14  C15 UNL     1      23.267   4.198  48.648  1.00  0.00     0.005 C 
HETATM   15  H4  UNL     1      26.613   3.569  50.909  1.00  0.00     0.184 HD
ENDROOT
BRANCH   1  16
HETATM   16  C5  UNL     1      26.034   1.798  52.044  1.00  0.00     0.050 A 
HETATM   17  C4  UNL     1      25.201   0.753  52.286  1.00  0.00     0.030 A 
HETATM   18  C3  UNL     1      25.569  -0.394  52.906  1.00  0.00     0.004 A 
HETATM   19  C2  UNL     1      26.841  -0.587  53.345  1.00  0.00     0.019 A 
HETATM   20  C1  UNL     1      27.735   0.419  53.139  1.00  0.00     0.013 A 
HETATM   21 BR1  UNL     1      29.521   0.149  53.755  1.00  0.00    -0.051 Br
HETATM   22  C16 UNL     1      27.338   1.585  52.503  1.00  0.00     0.049 A 
ENDBRANCH   1  16
TORSDOF 1
ENDMDL
MODEL 8
REMARK VINA RESULT:      -7.0      4.733      6.201
REMARK  1 active torsions:
REMARK  status: ('A' for Active; 'I' for Inactive)
REMARK    1  A    between atoms: C5_6  and  N1_7 
REMARK       I    between atoms: N1_7  and  C6_8 
ROOT
HETATM    1  N1  UNL     1      23.750   3.197  52.697  1.00  0.00    -0.190 N 
HETATM    2  C6  UNL     1      23.323   3.336  51.362  1.00  0.00     0.708 C 
HETATM    3  N2  UNL     1      23.337   2.487  50.364  1.00  0.00    -0.058 NA
HETATM    4  C7  UNL     1      23.417   2.913  48.957  1.00  0.00     0.253 C 
HETATM    5  N3  UNL     1      23.018   4.083  48.388  1.00  0.00    -0.243 NA
HETATM    6  C8  UNL     1      22.689   5.301  49.180  1.00  0.00     0.063 C 
HETATM    7  C9  UNL     1      21.763   5.191  50.234  1.00  0.00     0.137 C 
HETATM    8  N4  UNL     1      22.840   4.700  51.149  1.00  0.00    -0.185 N 
HETATM    9  C10 UNL     1      23.793   5.612  51.957  1.00  0.00     0.185 C 
HETATM   10  C11 UNL     1      24.198   6.321  50.601  1.00  0.00    -0.042 C 
HETATM   11  C12 UNL     1      23.766   7.402  49.995  1.00  0.00    -0.003 C 
HETATM   12  C13 UNL     1      23.478   6.543  48.770  1.00  0.00     0.085 C 
HETATM   13  C14 UNL     1      24.957   6.224  48.587  1.00  0.00    -0.011 C 
HETATM   14  C15 UNL     1      25.049   5.472  49.692  1.00  0.00     0.005 C 
HETATM   15  H4  UNL     1      23.770   4.042  53.301  1.00  0.00     0.184 HD
ENDROOT
BRANCH   1  16
HETATM   16  C5  UNL     1      24.099   1.899  53.051  1.00  0.00     0.050 A 
HETATM   17  C4  UNL     1      23.425   0.722  53.116  1.00  0.00     0.030 A 
HETATM   18  C3  UNL     1      23.981  -0.462  53.469  1.00  0.00     0.004 A 
HETATM   19  C2  UNL     1      25.296  -0.559  53.794  1.00  0.00     0.019 A 
HETATM   20  C1  UNL     1      26.039   0.581  53.752  1.00  0.00     0.013 A 
HETATM   21 BR1  UNL     1      27.887   0.444  54.207  1.00  0.00    -0.051 Br
HETATM   22  C16 UNL     1      25.452   1.783  53.389  1.00  0.00     0.049 A 
ENDBRANCH   1  16
TORSDOF 1
ENDMDL
MODEL 9
REMARK VINA RESULT:      -6.9      7.954      9.975
REMARK  1 active torsions:
REMARK  status: ('A' for Active; 'I' for Inactive)
REMARK    1  A    between atoms: C5_6  and  N1_7 
REMARK       I    between atoms: N1_7  and  C6_8 
ROOT
HETATM    1  N1  UNL     1      29.386   5.208  48.170  1.00  0.00    -0.190 N 
HETATM    2  C6  UNL     1      30.341   6.202  48.459  1.00  0.00     0.708 C 
HETATM    3  N2  UNL     1      30.199   7.478  48.722  1.00  0.00    -0.058 NA
HETATM    4  C7  UNL     1      31.243   8.473  48.430  1.00  0.00     0.253 C 
HETATM    5  N3  UNL     1      32.591   8.304  48.340  1.00  0.00    -0.243 NA
HETATM    6  C8  UNL     1      33.236   6.968  48.222  1.00  0.00     0.063 C 
HETATM    7  C9  UNL     1      32.909   5.975  49.166  1.00  0.00     0.137 C 
HETATM    8  N4  UNL     1      31.681   5.621  48.388  1.00  0.00    -0.185 N 
HETATM    9  C10 UNL     1      31.646   4.633  47.198  1.00  0.00     0.185 C 
HETATM   10  C11 UNL     1      32.775   5.497  46.501  1.00  0.00    -0.042 C 
HETATM   11  C12 UNL     1      34.084   5.399  46.473  1.00  0.00    -0.003 C 
HETATM   12  C13 UNL     1      34.155   6.824  47.010  1.00  0.00     0.085 C 
HETATM   13  C14 UNL     1      33.501   7.381  45.751  1.00  0.00    -0.011 C 
HETATM   14  C15 UNL     1      32.302   6.835  45.993  1.00  0.00     0.005 C 
HETATM   15  H4  UNL     1      29.722   4.275  47.861  1.00  0.00     0.184 HD
ENDROOT
BRANCH   1  16
HETATM   16  C5  UNL     1      28.069   5.615  48.346  1.00  0.00     0.050 A 
HETATM   17  C4  UNL     1      27.381   6.749  48.054  1.00  0.00     0.030 A 
HETATM   18  C3  UNL     1      26.060   6.928  48.294  1.00  0.00     0.004 A 
HETATM   19  C2  UNL     1      25.303   5.953  48.862  1.00  0.00     0.019 A 
HETATM   20  C1  UNL     1      25.924   4.784  49.183  1.00  0.00     0.013 A 
HETATM   21 BR1  UNL     1      24.861   3.415  49.981  1.00  0.00    -0.051 Br
HETATM   22  C16 UNL     1      27.276   4.621  48.931  1.00  0.00     0.049 A 
ENDBRANCH   1  16
TORSDOF 1
ENDMDL
