MODEL 1
REMARK VINA RESULT:      -8.7      0.000      0.000
REMARK  2 active torsions:
REMARK  status: ('A' for Active; 'I' for Inactive)
REMARK    1  A    between atoms: O1_2  and  C2_3 
REMARK    2  A    between atoms: C10_14  and  N3_15 
ROOT
HETATM    1  C2  UNL     1      18.254  -0.506  52.059  1.00  0.00     0.070 A 
HETATM    2  C3  UNL     1      18.460  -1.313  53.151  1.00  0.00     0.037 A 
HETATM    3  C4  UNL     1      19.639  -1.251  53.851  1.00  0.00     0.014 A 
HETATM    4  C5  UNL     1      20.694  -0.392  53.525  1.00  0.00    -0.006 A 
HETATM    5  C6  UNL     1      20.459   0.412  52.419  1.00  0.00     0.088 A 
HETATM    6  C7  UNL     1      19.267   0.357  51.702  1.00  0.00     0.074 A 
HETATM    7  O2  UNL     1      21.346   1.341  51.899  1.00  0.00    -0.289 OA
HETATM    8  C8  UNL     1      22.728   1.351  52.009  1.00  0.00     0.202 A 
HETATM    9  N1  UNL     1      23.338   2.193  51.173  1.00  0.00    -0.215 NA
HETATM   10  C9  UNL     1      24.681   2.349  51.125  1.00  0.00     0.238 A 
HETATM   11  N2  UNL     1      25.412   1.605  51.976  1.00  0.00    -0.222 NA
HETATM   12  C10 UNL     1      24.846   0.737  52.844  1.00  0.00     0.158 A 
HETATM   13  C17 UNL     1      23.474   0.594  52.876  1.00  0.00     0.128 A 
HETATM   14  N4  UNL     1      23.122  -0.363  53.857  1.00  0.00    -0.379 N 
HETATM   15  C18 UNL     1      21.824  -0.554  54.459  1.00  0.00     0.161 C 
HETATM   16  H18 UNL     1      23.905  -0.983  54.157  1.00  0.00     0.160 HD
ENDROOT
BRANCH  12  17
HETATM   17  N3  UNL     1      25.758   0.026  53.675  1.00  0.00    -0.360 N 
HETATM   18  C11 UNL     1      26.412   0.226  54.959  1.00  0.00     0.152 C 
HETATM   19  C12 UNL     1      27.906   0.227  54.755  1.00  0.00    -0.005 C 
HETATM   20  C13 UNL     1      28.506  -0.449  53.796  1.00  0.00    -0.084 C 
HETATM   21  C14 UNL     1      29.984  -0.480  53.553  1.00  0.00     0.043 C 
HETATM   22  C15 UNL     1      27.702  -1.259  52.857  1.00  0.00     0.053 C 
HETATM   23  C16 UNL     1      26.235  -1.281  53.203  1.00  0.00     0.129 C 
ENDBRANCH  12  17
BRANCH   1  24
HETATM   24  O1  UNL     1      17.132  -0.462  51.271  1.00  0.00    -0.356 OA
HETATM   25  C1  UNL     1      15.851  -0.938  51.637  1.00  0.00     0.210 C 
ENDBRANCH   1  24
TORSDOF 2
ENDMDL
MODEL 2
REMARK VINA RESULT:      -8.6      2.719      5.931
REMARK  2 active torsions:
REMARK  status: ('A' for Active; 'I' for Inactive)
REMARK    1  A    between atoms: O1_2  and  C2_3 
REMARK    2  A    between atoms: C10_14  and  N3_15 
ROOT
HETATM    1  C2  UNL     1      24.948   5.637  48.720  1.00  0.00     0.070 A 
HETATM    2  C3  UNL     1      26.291   5.460  48.944  1.00  0.00     0.037 A 
HETATM    3  C4  UNL     1      26.747   4.343  49.597  1.00  0.00     0.014 A 
HETATM    4  C5  UNL     1      25.914   3.325  50.073  1.00  0.00    -0.006 A 
HETATM    5  C6  UNL     1      24.564   3.528  49.833  1.00  0.00     0.088 A 
HETATM    6  C7  UNL     1      24.090   4.658  49.172  1.00  0.00     0.074 A 
HETATM    7  O2  UNL     1      23.542   2.669  50.207  1.00  0.00    -0.289 OA
HETATM    8  C8  UNL     1      23.544   1.747  51.242  1.00  0.00     0.202 A 
HETATM    9  N1  UNL     1      22.337   1.268  51.552  1.00  0.00    -0.215 NA
HETATM   10  C9  UNL     1      22.128   0.360  52.533  1.00  0.00     0.238 A 
HETATM   11  N2  UNL     1      23.209  -0.063  53.212  1.00  0.00    -0.222 NA
HETATM   12  C10 UNL     1      24.454   0.388  52.942  1.00  0.00     0.158 A 
HETATM   13  C17 UNL     1      24.645   1.315  51.936  1.00  0.00     0.128 A 
HETATM   14  N4  UNL     1      26.021   1.630  51.841  1.00  0.00    -0.379 N 
HETATM   15  C18 UNL     1      26.695   2.258  50.729  1.00  0.00     0.161 C 
HETATM   16  H18 UNL     1      26.584   1.371  52.680  1.00  0.00     0.160 HD
ENDROOT
BRANCH  12  17
HETATM   17  N3  UNL     1      25.489  -0.159  53.752  1.00  0.00    -0.360 N 
HETATM   18  C11 UNL     1      26.169   0.181  54.991  1.00  0.00     0.152 C 
HETATM   19  C12 UNL     1      27.639   0.368  54.710  1.00  0.00    -0.005 C 
HETATM   20  C13 UNL     1      28.278  -0.267  53.749  1.00  0.00    -0.084 C 
HETATM   21  C14 UNL     1      29.735  -0.118  53.430  1.00  0.00     0.043 C 
HETATM   22  C15 UNL     1      27.546  -1.217  52.884  1.00  0.00     0.053 C 
HETATM   23  C16 UNL     1      26.112  -1.413  53.307  1.00  0.00     0.129 C 
ENDBRANCH  12  17
BRANCH   1  24
HETATM   24  O1  UNL     1      24.354   6.699  48.085  1.00  0.00    -0.356 OA
HETATM   25  C1  UNL     1      25.037   7.751  47.431  1.00  0.00     0.210 C 
ENDBRANCH   1  24
TORSDOF 2
ENDMDL
MODEL 3
REMARK VINA RESULT:      -8.2      4.026      7.630
REMARK  2 active torsions:
REMARK  status: ('A' for Active; 'I' for Inactive)
REMARK    1  A    between atoms: O1_2  and  C2_3 
REMARK    2  A    between atoms: C10_14  and  N3_15 
ROOT
HETATM    1  C2  UNL     1      26.973  -0.241  53.582  1.00  0.00     0.070 A 
HETATM    2  C3  UNL     1      25.653  -0.280  53.960  1.00  0.00     0.037 A 
HETATM    3  C4  UNL     1      24.716   0.466  53.291  1.00  0.00     0.014 A 
HETATM    4  C5  UNL     1      25.012   1.299  52.207  1.00  0.00    -0.006 A 
HETATM    5  C6  UNL     1      26.351   1.319  51.847  1.00  0.00     0.088 A 
HETATM    6  C7  UNL     1      27.310   0.567  52.518  1.00  0.00     0.074 A 
HETATM    7  O2  UNL     1      26.894   2.063  50.811  1.00  0.00    -0.289 OA
HETATM    8  C8  UNL     1      26.400   3.234  50.257  1.00  0.00     0.202 A 
HETATM    9  N1  UNL     1      27.271   3.882  49.480  1.00  0.00    -0.215 NA
HETATM   10  C9  UNL     1      26.981   5.044  48.849  1.00  0.00     0.238 A 
HETATM   11  N2  UNL     1      25.746   5.546  49.032  1.00  0.00    -0.222 NA
HETATM   12  C10 UNL     1      24.825   4.932  49.808  1.00  0.00     0.158 A 
HETATM   13  C17 UNL     1      25.142   3.747  50.443  1.00  0.00     0.128 A 
HETATM   14  N4  UNL     1      24.027   3.300  51.190  1.00  0.00    -0.379 N 
HETATM   15  C18 UNL     1      23.798   1.969  51.700  1.00  0.00     0.161 C 
HETATM   16  H18 UNL     1      23.309   4.033  51.378  1.00  0.00     0.160 HD
ENDROOT
BRANCH  12  17
HETATM   17  N3  UNL     1      23.567   5.593  49.898  1.00  0.00    -0.360 N 
HETATM   18  C11 UNL     1      22.887   6.473  50.835  1.00  0.00     0.152 C 
HETATM   19  C12 UNL     1      21.621   5.803  51.308  1.00  0.00    -0.005 C 
HETATM   20  C13 UNL     1      20.937   4.948  50.575  1.00  0.00    -0.084 C 
HETATM   21  C14 UNL     1      19.676   4.258  50.999  1.00  0.00     0.043 C 
HETATM   22  C15 UNL     1      21.407   4.608  49.216  1.00  0.00     0.053 C 
HETATM   23  C16 UNL     1      22.617   5.403  48.794  1.00  0.00     0.129 C 
ENDBRANCH  12  17
BRANCH   1  24
HETATM   24  O1  UNL     1      28.012  -0.930  54.157  1.00  0.00    -0.356 OA
HETATM   25  C1  UNL     1      29.364  -0.873  53.744  1.00  0.00     0.210 C 
ENDBRANCH   1  24
TORSDOF 2
ENDMDL
MODEL 4
REMARK VINA RESULT:      -8.0      2.728      7.568
REMARK  2 active torsions:
REMARK  status: ('A' for Active; 'I' for Inactive)
REMARK    1  A    between atoms: O1_2  and  C2_3 
REMARK    2  A    between atoms: C10_14  and  N3_15 
ROOT
HETATM    1  C2  UNL     1      27.378  -0.544  53.245  1.00  0.00     0.070 A 
HETATM    2  C3  UNL     1      27.421   0.491  52.343  1.00  0.00     0.037 A 
HETATM    3  C4  UNL     1      26.280   1.181  52.021  1.00  0.00     0.014 A 
HETATM    4  C5  UNL     1      25.021   0.902  52.564  1.00  0.00    -0.006 A 
HETATM    5  C6  UNL     1      25.007  -0.147  53.472  1.00  0.00     0.088 A 
HETATM    6  C7  UNL     1      26.158  -0.854  53.805  1.00  0.00     0.074 A 
HETATM    7  O2  UNL     1      23.887  -0.614  54.143  1.00  0.00    -0.289 OA
HETATM    8  C8  UNL     1      22.561  -0.517  53.752  1.00  0.00     0.202 A 
HETATM    9  N1  UNL     1      21.728  -1.302  54.438  1.00  0.00    -0.215 NA
HETATM   10  C9  UNL     1      20.396  -1.353  54.207  1.00  0.00     0.238 A 
HETATM   11  N2  UNL     1      19.915  -0.559  53.233  1.00  0.00    -0.222 NA
HETATM   12  C10 UNL     1      20.713   0.256  52.506  1.00  0.00     0.158 A 
HETATM   13  C17 UNL     1      22.070   0.291  52.758  1.00  0.00     0.128 A 
HETATM   14  N4  UNL     1      22.688   1.211  51.879  1.00  0.00    -0.379 N 
HETATM   15  C18 UNL     1      23.992   1.813  52.026  1.00  0.00     0.161 C 
HETATM   16  H18 UNL     1      22.117   1.463  51.043  1.00  0.00     0.160 HD
ENDROOT
BRANCH  12  17
HETATM   17  N3  UNL     1      20.048   1.030  51.513  1.00  0.00    -0.360 N 
HETATM   18  C11 UNL     1      19.869   0.991  50.071  1.00  0.00     0.152 C 
HETATM   19  C12 UNL     1      20.441   2.250  49.470  1.00  0.00    -0.005 C 
HETATM   20  C13 UNL     1      20.483   3.402  50.109  1.00  0.00    -0.084 C 
HETATM   21  C14 UNL     1      21.039   4.679  49.556  1.00  0.00     0.043 C 
HETATM   22  C15 UNL     1      19.950   3.498  51.484  1.00  0.00     0.053 C 
HETATM   23  C16 UNL     1      19.308   2.218  51.958  1.00  0.00     0.129 C 
ENDBRANCH  12  17
BRANCH   1  24
HETATM   24  O1  UNL     1      28.434  -1.318  53.658  1.00  0.00    -0.356 OA
HETATM   25  C1  UNL     1      29.778  -0.887  53.758  1.00  0.00     0.210 C 
ENDBRANCH   1  24
TORSDOF 2
ENDMDL
MODEL 5
REMARK VINA RESULT:      -8.0      4.905      8.477
REMARK  2 active torsions:
REMARK  status: ('A' for Active; 'I' for Inactive)
REMARK    1  A    between atoms: O1_2  and  C2_3 
REMARK    2  A    between atoms: C10_14  and  N3_15 
ROOT
HETATM    1  C2  UNL     1      28.078   7.391  47.459  1.00  0.00     0.070 A 
HETATM    2  C3  UNL     1      28.854   6.298  47.758  1.00  0.00     0.037 A 
HETATM    3  C4  UNL     1      28.326   5.236  48.449  1.00  0.00     0.014 A 
HETATM    4  C5  UNL     1      27.000   5.177  48.891  1.00  0.00    -0.006 A 
HETATM    5  C6  UNL     1      26.239   6.293  48.576  1.00  0.00     0.088 A 
HETATM    6  C7  UNL     1      26.765   7.375  47.876  1.00  0.00     0.074 A 
HETATM    7  O2  UNL     1      24.904   6.474  48.903  1.00  0.00    -0.289 OA
HETATM    8  C8  UNL     1      24.201   5.897  49.949  1.00  0.00     0.202 A 
HETATM    9  N1  UNL     1      23.021   6.469  50.198  1.00  0.00    -0.215 NA
HETATM   10  C9  UNL     1      22.185   6.053  51.177  1.00  0.00     0.238 A 
HETATM   11  N2  UNL     1      22.590   5.006  51.920  1.00  0.00    -0.222 NA
HETATM   12  C10 UNL     1      23.774   4.388  51.712  1.00  0.00     0.158 A 
HETATM   13  C17 UNL     1      24.612   4.830  50.707  1.00  0.00     0.128 A 
HETATM   14  N4  UNL     1      25.781   4.033  50.683  1.00  0.00    -0.379 N 
HETATM   15  C18 UNL     1      26.730   3.912  49.602  1.00  0.00     0.161 C 
HETATM   16  H18 UNL     1      25.949   3.485  51.555  1.00  0.00     0.160 HD
ENDROOT
BRANCH  12  17
HETATM   17  N3  UNL     1      24.053   3.298  52.583  1.00  0.00    -0.360 N 
HETATM   18  C11 UNL     1      24.914   3.036  53.726  1.00  0.00     0.152 C 
HETATM   19  C12 UNL     1      25.857   1.910  53.383  1.00  0.00    -0.005 C 
HETATM   20  C13 UNL     1      25.554   0.946  52.537  1.00  0.00    -0.084 C 
HETATM   21  C14 UNL     1      26.454  -0.194  52.164  1.00  0.00     0.043 C 
HETATM   22  C15 UNL     1      24.233   0.939  51.874  1.00  0.00     0.053 C 
HETATM   23  C16 UNL     1      23.326   2.042  52.358  1.00  0.00     0.129 C 
ENDBRANCH  12  17
BRANCH   1  24
HETATM   24  O1  UNL     1      28.471   8.516  46.780  1.00  0.00    -0.356 OA
HETATM   25  C1  UNL     1      28.801   9.759  47.370  1.00  0.00     0.210 C 
ENDBRANCH   1  24
TORSDOF 2
ENDMDL
MODEL 6
REMARK VINA RESULT:      -7.6      2.782      7.244
REMARK  2 active torsions:
REMARK  status: ('A' for Active; 'I' for Inactive)
REMARK    1  A    between atoms: O1_2  and  C2_3 
REMARK    2  A    between atoms: C10_14  and  N3_15 
ROOT
HETATM    1  C2  UNL     1      26.665  -0.017  54.383  1.00  0.00     0.070 A 
HETATM    2  C3  UNL     1      25.521  -0.655  54.799  1.00  0.00     0.037 A 
HETATM    3  C4  UNL     1      24.344  -0.491  54.114  1.00  0.00     0.014 A 
HETATM    4  C5  UNL     1      24.211   0.310  52.974  1.00  0.00    -0.006 A 
HETATM    5  C6  UNL     1      25.380   0.941  52.576  1.00  0.00     0.088 A 
HETATM    6  C7  UNL     1      26.580   0.782  53.264  1.00  0.00     0.074 A 
HETATM    7  O2  UNL     1      25.506   1.784  51.483  1.00  0.00    -0.289 OA
HETATM    8  C8  UNL     1      24.516   2.540  50.875  1.00  0.00     0.202 A 
HETATM    9  N1  UNL     1      24.975   3.472  50.036  1.00  0.00    -0.215 NA
HETATM   10  C9  UNL     1      24.169   4.311  49.346  1.00  0.00     0.238 A 
HETATM   11  N2  UNL     1      22.843   4.175  49.533  1.00  0.00    -0.222 NA
HETATM   12  C10 UNL     1      22.323   3.249  50.370  1.00  0.00     0.158 A 
HETATM   13  C17 UNL     1      23.164   2.402  51.065  1.00  0.00     0.128 A 
HETATM   14  N4  UNL     1      22.395   1.529  51.868  1.00  0.00    -0.379 N 
HETATM   15  C18 UNL     1      22.827   0.286  52.462  1.00  0.00     0.161 C 
HETATM   16  H18 UNL     1      21.413   1.842  52.032  1.00  0.00     0.160 HD
ENDROOT
BRANCH  12  17
HETATM   17  N3  UNL     1      20.902   3.235  50.456  1.00  0.00    -0.360 N 
HETATM   18  C11 UNL     1      19.884   3.675  51.396  1.00  0.00     0.152 C 
HETATM   19  C12 UNL     1      19.084   2.479  51.848  1.00  0.00    -0.005 C 
HETATM   20  C13 UNL     1      18.887   1.414  51.097  1.00  0.00    -0.084 C 
HETATM   21  C14 UNL     1      18.101   0.204  51.500  1.00  0.00     0.043 C 
HETATM   22  C15 UNL     1      19.466   1.358  49.739  1.00  0.00     0.053 C 
HETATM   23  C16 UNL     1      20.158   2.637  49.339  1.00  0.00     0.129 C 
ENDBRANCH  12  17
BRANCH   1  24
HETATM   24  O1  UNL     1      27.904  -0.089  54.968  1.00  0.00    -0.356 OA
HETATM   25  C1  UNL     1      29.045   0.645  54.568  1.00  0.00     0.210 C 
ENDBRANCH   1  24
TORSDOF 2
ENDMDL
MODEL 7
REMARK VINA RESULT:      -7.5      1.573      2.983
REMARK  2 active torsions:
REMARK  status: ('A' for Active; 'I' for Inactive)
REMARK    1  A    between atoms: O1_2  and  C2_3 
REMARK    2  A    between atoms: C10_14  and  N3_15 
ROOT
HETATM    1  C2  UNL     1      18.053   1.203  51.114  1.00  0.00     0.070 A 
HETATM    2  C3  UNL     1      18.824   1.803  50.148  1.00  0.00     0.037 A 
HETATM    3  C4  UNL     1      20.182   1.609  50.122  1.00  0.00     0.014 A 
HETATM    4  C5  UNL     1      20.873   0.814  51.043  1.00  0.00    -0.006 A 
HETATM    5  C6  UNL     1      20.071   0.220  52.005  1.00  0.00     0.088 A 
HETATM    6  C7  UNL     1      18.692   0.410  52.041  1.00  0.00     0.074 A 
HETATM    7  O2  UNL     1      20.516  -0.608  53.024  1.00  0.00    -0.289 OA
HETATM    8  C8  UNL     1      21.778  -0.647  53.596  1.00  0.00     0.202 A 
HETATM    9  N1  UNL     1      21.840  -1.332  54.740  1.00  0.00    -0.215 NA
HETATM   10  C9  UNL     1      22.980  -1.486  55.452  1.00  0.00     0.238 A 
HETATM   11  N2  UNL     1      24.090  -0.910  54.957  1.00  0.00    -0.222 NA
HETATM   12  C10 UNL     1      24.086  -0.206  53.804  1.00  0.00     0.158 A 
HETATM   13  C17 UNL     1      22.911  -0.061  53.093  1.00  0.00     0.128 A 
HETATM   14  N4  UNL     1      23.155   0.710  51.931  1.00  0.00    -0.379 N 
HETATM   15  C18 UNL     1      22.321   0.800  50.757  1.00  0.00     0.161 C 
HETATM   16  H18 UNL     1      24.040   1.261  51.955  1.00  0.00     0.160 HD
ENDROOT
BRANCH  12  17
HETATM   17  N3  UNL     1      25.343   0.340  53.418  1.00  0.00    -0.360 N 
HETATM   18  C11 UNL     1      26.107   0.500  52.192  1.00  0.00     0.152 C 
HETATM   19  C12 UNL     1      27.416  -0.236  52.328  1.00  0.00    -0.005 C 
HETATM   20  C13 UNL     1      28.029  -0.414  53.481  1.00  0.00    -0.084 C 
HETATM   21  C14 UNL     1      29.329  -1.137  53.668  1.00  0.00     0.043 C 
HETATM   22  C15 UNL     1      27.431   0.123  54.721  1.00  0.00     0.053 C 
HETATM   23  C16 UNL     1      26.182   0.930  54.470  1.00  0.00     0.129 C 
ENDBRANCH  12  17
BRANCH   1  24
HETATM   24  O1  UNL     1      16.692   1.308  51.260  1.00  0.00    -0.356 OA
HETATM   25  C1  UNL     1      15.869   2.268  50.625  1.00  0.00     0.210 C 
ENDBRANCH   1  24
TORSDOF 2
ENDMDL
MODEL 8
REMARK VINA RESULT:      -7.5      2.560      4.746
REMARK  2 active torsions:
REMARK  status: ('A' for Active; 'I' for Inactive)
REMARK    1  A    between atoms: O1_2  and  C2_3 
REMARK    2  A    between atoms: C10_14  and  N3_15 
ROOT
HETATM    1  C2  UNL     1      22.132   5.958  50.953  1.00  0.00     0.070 A 
HETATM    2  C3  UNL     1      23.493   6.142  50.959  1.00  0.00     0.037 A 
HETATM    3  C4  UNL     1      24.338   5.086  51.192  1.00  0.00     0.014 A 
HETATM    4  C5  UNL     1      23.902   3.779  51.433  1.00  0.00    -0.006 A 
HETATM    5  C6  UNL     1      22.524   3.621  51.421  1.00  0.00     0.088 A 
HETATM    6  C7  UNL     1      21.658   4.685  51.186  1.00  0.00     0.074 A 
HETATM    7  O2  UNL     1      21.850   2.429  51.633  1.00  0.00    -0.289 OA
HETATM    8  C8  UNL     1      22.288   1.319  52.339  1.00  0.00     0.202 A 
HETATM    9  N1  UNL     1      21.329   0.437  52.626  1.00  0.00    -0.215 NA
HETATM   10  C9  UNL     1      21.554  -0.710  53.307  1.00  0.00     0.238 A 
HETATM   11  N2  UNL     1      22.818  -0.946  53.702  1.00  0.00    -0.222 NA
HETATM   12  C10 UNL     1      23.829  -0.089  53.439  1.00  0.00     0.158 A 
HETATM   13  C17 UNL     1      23.577   1.076  52.741  1.00  0.00     0.128 A 
HETATM   14  N4  UNL     1      24.781   1.804  52.590  1.00  0.00    -0.379 N 
HETATM   15  C18 UNL     1      25.042   2.866  51.647  1.00  0.00     0.161 C 
HETATM   16  H18 UNL     1      25.543   1.522  53.243  1.00  0.00     0.160 HD
ENDROOT
BRANCH  12  17
HETATM   17  N3  UNL     1      25.107  -0.486  53.925  1.00  0.00    -0.360 N 
HETATM   18  C11 UNL     1      25.867  -0.361  55.158  1.00  0.00     0.152 C 
HETATM   19  C12 UNL     1      27.143   0.393  54.874  1.00  0.00    -0.005 C 
HETATM   20  C13 UNL     1      27.757   0.363  53.709  1.00  0.00    -0.084 C 
HETATM   21  C14 UNL     1      29.024   1.092  53.378  1.00  0.00     0.043 C 
HETATM   22  C15 UNL     1      27.193  -0.440  52.603  1.00  0.00     0.053 C 
HETATM   23  C16 UNL     1      25.980  -1.237  53.012  1.00  0.00     0.129 C 
ENDBRANCH  12  17
BRANCH   1  24
HETATM   24  O1  UNL     1      21.174   6.917  50.736  1.00  0.00    -0.356 OA
HETATM   25  C1  UNL     1      20.201   6.889  49.710  1.00  0.00     0.210 C 
ENDBRANCH   1  24
TORSDOF 2
ENDMDL
MODEL 9
REMARK VINA RESULT:      -7.5      3.984      7.280
REMARK  2 active torsions:
REMARK  status: ('A' for Active; 'I' for Inactive)
REMARK    1  A    between atoms: O1_2  and  C2_3 
REMARK    2  A    between atoms: C10_14  and  N3_15 
ROOT
HETATM    1  C2  UNL     1      25.889   7.328  47.754  1.00  0.00     0.070 A 
HETATM    2  C3  UNL     1      27.140   6.789  47.931  1.00  0.00     0.037 A 
HETATM    3  C4  UNL     1      27.299   5.611  48.615  1.00  0.00     0.014 A 
HETATM    4  C5  UNL     1      26.241   4.882  49.169  1.00  0.00    -0.006 A 
HETATM    5  C6  UNL     1      24.990   5.448  48.974  1.00  0.00     0.088 A 
HETATM    6  C7  UNL     1      24.817   6.644  48.283  1.00  0.00     0.074 A 
HETATM    7  O2  UNL     1      23.790   4.921  49.426  1.00  0.00    -0.289 OA
HETATM    8  C8  UNL     1      23.588   4.069  50.501  1.00  0.00     0.202 A 
HETATM    9  N1  UNL     1      22.313   3.957  50.879  1.00  0.00    -0.215 NA
HETATM   10  C9  UNL     1      21.910   3.176  51.907  1.00  0.00     0.238 A 
HETATM   11  N2  UNL     1      22.864   2.489  52.562  1.00  0.00    -0.222 NA
HETATM   12  C10 UNL     1      24.170   2.564  52.222  1.00  0.00     0.158 A 
HETATM   13  C17 UNL     1      24.560   3.368  51.169  1.00  0.00     0.128 A 
HETATM   14  N4  UNL     1      25.962   3.283  51.005  1.00  0.00    -0.379 N 
HETATM   15  C18 UNL     1      26.727   3.661  49.840  1.00  0.00     0.161 C 
HETATM   16  H18 UNL     1      26.473   2.902  51.832  1.00  0.00     0.160 HD
ENDROOT
BRANCH  12  17
HETATM   17  N3  UNL     1      25.052   1.775  53.013  1.00  0.00    -0.360 N 
HETATM   18  C11 UNL     1      26.465   1.768  53.353  1.00  0.00     0.152 C 
HETATM   19  C12 UNL     1      27.077   0.471  52.885  1.00  0.00    -0.005 C 
HETATM   20  C13 UNL     1      26.403  -0.658  52.801  1.00  0.00    -0.084 C 
HETATM   21  C14 UNL     1      26.964  -1.970  52.343  1.00  0.00     0.043 C 
HETATM   22  C15 UNL     1      24.974  -0.689  53.176  1.00  0.00     0.053 C 
HETATM   23  C16 UNL     1      24.481   0.625  53.728  1.00  0.00     0.129 C 
ENDBRANCH  12  17
BRANCH   1  24
HETATM   24  O1  UNL     1      25.583   8.493  47.096  1.00  0.00    -0.356 OA
HETATM   25  C1  UNL     1      25.989   9.790  47.489  1.00  0.00     0.210 C 
ENDBRANCH   1  24
TORSDOF 2
ENDMDL
