MODEL 1
REMARK VINA RESULT:      -8.1      0.000      0.000
REMARK  2 active torsions:
REMARK  status: ('A' for Active; 'I' for Inactive)
REMARK    1  A    between atoms: N1_1  and  C1_2 
REMARK    2  A    between atoms: C2_4  and  O2_5 
ROOT
HETATM    1  C1  UNL     1      24.373   3.285  52.771  1.00  0.00     0.399 C 
HETATM    2  O1  UNL     1      23.218   2.497  52.649  1.00  0.00    -0.289 OA
HETATM    3  C2  UNL     1      23.161   1.204  52.164  1.00  0.00     0.196 C 
HETATM    4  C3  UNL     1      24.117   0.339  52.458  1.00  0.00     0.081 C 
HETATM    5  C4  UNL     1      25.364   0.300  53.223  1.00  0.00     0.032 A 
HETATM    6  C5  UNL     1      25.460  -0.317  54.478  1.00  0.00     0.133 A 
HETATM    7  N2  UNL     1      26.620  -0.334  55.174  1.00  0.00    -0.253 NA
HETATM    8  C6  UNL     1      27.689   0.277  54.595  1.00  0.00     0.234 A 
HETATM    9  N3  UNL     1      27.645   0.883  53.389  1.00  0.00    -0.224 NA
HETATM   10  C7  UNL     1      26.494   0.897  52.705  1.00  0.00     0.141 A 
HETATM   11  N4  UNL     1      26.449   1.527  51.434  1.00  0.00    -0.340 N 
HETATM   12  C8  UNL     1      25.987   2.752  50.893  1.00  0.00     0.046 A 
HETATM   13  C9  UNL     1      26.561   3.096  49.692  1.00  0.00     0.031 A 
HETATM   14  C10 UNL     1      26.168   4.276  49.094  1.00  0.00     0.023 A 
HETATM   15  C11 UNL     1      25.224   5.097  49.677  1.00  0.00     0.033 A 
HETATM   16 BR2  UNL     1      24.744   6.702  48.780  1.00  0.00    -0.049 Br
HETATM   17  C12 UNL     1      24.667   4.723  50.881  1.00  0.00     0.064 A 
HETATM   18 CL1  UNL     1      23.487   5.823  51.535  1.00  0.00    -0.082 Cl
HETATM   19  C13 UNL     1      25.045   3.551  51.497  1.00  0.00     0.050 A 
HETATM   20  H7  UNL     1      26.897   0.804  50.828  1.00  0.00     0.167 HD
ENDROOT
BRANCH   1  21
HETATM   21  N1  UNL     1      23.984   4.505  53.459  1.00  0.00     0.112 N 
HETATM   22  H1  UNL     1      23.410   5.130  52.853  1.00  0.00     0.316 HD
HETATM   23  H2  UNL     1      23.514   4.352  54.367  1.00  0.00     0.316 HD
ENDBRANCH   1  21
BRANCH   3  24
HETATM   24  O2  UNL     1      22.185   0.640  51.356  1.00  0.00    -0.246 OA
HETATM   25 BR1  UNL     1      21.855   1.434  49.677  1.00  0.00     0.108 Br
ENDBRANCH   3  24
TORSDOF 2
ENDMDL
MODEL 2
REMARK VINA RESULT:      -7.7      2.407      3.201
REMARK  2 active torsions:
REMARK  status: ('A' for Active; 'I' for Inactive)
REMARK    1  A    between atoms: N1_1  and  C1_2 
REMARK    2  A    between atoms: C2_4  and  O2_5 
ROOT
HETATM    1  C1  UNL     1      24.705   5.695  50.892  1.00  0.00     0.399 C 
HETATM    2  O1  UNL     1      23.496   5.251  50.334  1.00  0.00    -0.289 OA
HETATM    3  C2  UNL     1      23.322   4.122  49.557  1.00  0.00     0.196 C 
HETATM    4  C3  UNL     1      23.976   3.009  49.842  1.00  0.00     0.081 C 
HETATM    5  C4  UNL     1      24.939   2.526  50.833  1.00  0.00     0.032 A 
HETATM    6  C5  UNL     1      24.573   1.689  51.895  1.00  0.00     0.133 A 
HETATM    7  N2  UNL     1      25.476   1.260  52.807  1.00  0.00    -0.253 NA
HETATM    8  C6  UNL     1      26.759   1.682  52.641  1.00  0.00     0.234 A 
HETATM    9  N3  UNL     1      27.160   2.488  51.633  1.00  0.00    -0.224 NA
HETATM   10  C7  UNL     1      26.261   2.909  50.735  1.00  0.00     0.141 A 
HETATM   11  N4  UNL     1      26.682   3.748  49.671  1.00  0.00    -0.340 N 
HETATM   12  C8  UNL     1      26.630   5.126  49.347  1.00  0.00     0.046 A 
HETATM   13  C9  UNL     1      27.562   5.529  48.419  1.00  0.00     0.031 A 
HETATM   14  C10 UNL     1      27.580   6.857  48.046  1.00  0.00     0.023 A 
HETATM   15  C11 UNL     1      26.692   7.767  48.582  1.00  0.00     0.033 A 
HETATM   16 BR2  UNL     1      26.792   9.576  48.006  1.00  0.00    -0.049 Br
HETATM   17  C12 UNL     1      25.770   7.331  49.509  1.00  0.00     0.064 A 
HETATM   18 CL1  UNL     1      24.694   8.552  50.127  1.00  0.00    -0.082 Cl
HETATM   19  C13 UNL     1      25.733   6.011  49.898  1.00  0.00     0.050 A 
HETATM   20  H7  UNL     1      27.128   3.059  49.026  1.00  0.00     0.167 HD
ENDROOT
BRANCH   1  21
HETATM   21  N1  UNL     1      24.389   6.828  51.745  1.00  0.00     0.112 N 
HETATM   22  H1  UNL     1      24.704   7.731  51.329  1.00  0.00     0.316 HD
HETATM   23  H2  UNL     1      23.396   6.887  52.026  1.00  0.00     0.316 HD
ENDBRANCH   1  21
BRANCH   3  24
HETATM   24  O2  UNL     1      22.509   3.972  48.443  1.00  0.00    -0.246 OA
HETATM   25 BR1  UNL     1      22.341   2.248  47.694  1.00  0.00     0.108 Br
ENDBRANCH   3  24
TORSDOF 2
ENDMDL
MODEL 3
REMARK VINA RESULT:      -7.6      1.757      2.162
REMARK  2 active torsions:
REMARK  status: ('A' for Active; 'I' for Inactive)
REMARK    1  A    between atoms: N1_1  and  C1_2 
REMARK    2  A    between atoms: C2_4  and  O2_5 
ROOT
HETATM    1  C1  UNL     1      24.186   4.855  51.499  1.00  0.00     0.399 C 
HETATM    2  O1  UNL     1      22.965   4.399  50.979  1.00  0.00    -0.289 OA
HETATM    3  C2  UNL     1      22.766   3.229  50.271  1.00  0.00     0.196 C 
HETATM    4  C3  UNL     1      23.405   2.125  50.616  1.00  0.00     0.081 C 
HETATM    5  C4  UNL     1      24.370   1.685  51.626  1.00  0.00     0.032 A 
HETATM    6  C5  UNL     1      24.000   0.919  52.739  1.00  0.00     0.133 A 
HETATM    7  N2  UNL     1      24.904   0.530  53.667  1.00  0.00    -0.253 NA
HETATM    8  C6  UNL     1      26.192   0.920  53.466  1.00  0.00     0.234 A 
HETATM    9  N3  UNL     1      26.596   1.658  52.409  1.00  0.00    -0.224 NA
HETATM   10  C7  UNL     1      25.696   2.040  51.494  1.00  0.00     0.141 A 
HETATM   11  N4  UNL     1      26.121   2.808  50.379  1.00  0.00    -0.340 N 
HETATM   12  C8  UNL     1      26.088   4.165  49.975  1.00  0.00     0.046 A 
HETATM   13  C9  UNL     1      27.017   4.497  49.016  1.00  0.00     0.031 A 
HETATM   14  C10 UNL     1      27.053   5.800  48.565  1.00  0.00     0.023 A 
HETATM   15  C11 UNL     1      26.184   6.754  49.054  1.00  0.00     0.033 A 
HETATM   16 BR2  UNL     1      26.307   8.524  48.371  1.00  0.00    -0.049 Br
HETATM   17  C12 UNL     1      25.264   6.390  50.013  1.00  0.00     0.064 A 
HETATM   18 CL1  UNL     1      24.213   7.663  50.566  1.00  0.00    -0.082 Cl
HETATM   19  C13 UNL     1      25.210   5.096  50.479  1.00  0.00     0.050 A 
HETATM   20  H7  UNL     1      26.550   2.075  49.772  1.00  0.00     0.167 HD
ENDROOT
BRANCH   1  21
HETATM   21  N1  UNL     1      23.896   6.042  52.286  1.00  0.00     0.112 N 
HETATM   22  H1  UNL     1      23.477   5.805  53.212  1.00  0.00     0.316 HD
HETATM   23  H2  UNL     1      24.698   6.681  52.407  1.00  0.00     0.316 HD
ENDBRANCH   1  21
BRANCH   3  24
HETATM   24  O2  UNL     1      21.941   3.026  49.174  1.00  0.00    -0.246 OA
HETATM   25 BR1  UNL     1      21.415   1.259  48.775  1.00  0.00     0.108 Br
ENDBRANCH   3  24
TORSDOF 2
ENDMDL
MODEL 4
REMARK VINA RESULT:      -7.4      3.127      5.306
REMARK  2 active torsions:
REMARK  status: ('A' for Active; 'I' for Inactive)
REMARK    1  A    between atoms: N1_1  and  C1_2 
REMARK    2  A    between atoms: C2_4  and  O2_5 
ROOT
HETATM    1  C1  UNL     1      22.283   1.369  50.711  1.00  0.00     0.399 C 
HETATM    2  O1  UNL     1      22.345   2.767  50.814  1.00  0.00    -0.289 OA
HETATM    3  C2  UNL     1      22.840   3.484  51.887  1.00  0.00     0.196 C 
HETATM    4  C3  UNL     1      23.914   3.062  52.532  1.00  0.00     0.081 C 
HETATM    5  C4  UNL     1      24.864   1.949  52.471  1.00  0.00     0.032 A 
HETATM    6  C5  UNL     1      26.158   2.090  51.950  1.00  0.00     0.133 A 
HETATM    7  N2  UNL     1      27.018   1.047  51.894  1.00  0.00    -0.253 NA
HETATM    8  C6  UNL     1      26.565  -0.145  52.368  1.00  0.00     0.234 A 
HETATM    9  N3  UNL     1      25.328  -0.329  52.879  1.00  0.00    -0.224 NA
HETATM   10  C7  UNL     1      24.482   0.707  52.932  1.00  0.00     0.141 A 
HETATM   11  N4  UNL     1      23.185   0.518  53.477  1.00  0.00    -0.340 N 
HETATM   12  C8  UNL     1      21.865   0.349  52.992  1.00  0.00     0.046 A 
HETATM   13  C9  UNL     1      21.001  -0.242  53.884  1.00  0.00     0.031 A 
HETATM   14  C10 UNL     1      19.694  -0.443  53.492  1.00  0.00     0.023 A 
HETATM   15  C11 UNL     1      19.252  -0.065  52.240  1.00  0.00     0.033 A 
HETATM   16 BR2  UNL     1      17.433  -0.381  51.789  1.00  0.00    -0.049 Br
HETATM   17  C12 UNL     1      20.143   0.526  51.369  1.00  0.00     0.064 A 
HETATM   18 CL1  UNL     1      19.491   0.967  49.816  1.00  0.00    -0.082 Cl
HETATM   19  C13 UNL     1      21.452   0.736  51.738  1.00  0.00     0.050 A 
HETATM   20  H7  UNL     1      23.386   0.523  54.501  1.00  0.00     0.167 HD
ENDROOT
BRANCH   1  21
HETATM   21  N1  UNL     1      21.831   1.062  49.364  1.00  0.00     0.112 N 
HETATM   22  H1  UNL     1      21.189   0.240  49.344  1.00  0.00     0.316 HD
HETATM   23  H2  UNL     1      21.409   1.862  48.863  1.00  0.00     0.316 HD
ENDBRANCH   1  21
BRANCH   3  24
HETATM   24  O2  UNL     1      22.343   4.661  52.428  1.00  0.00    -0.246 OA
HETATM   25 BR1  UNL     1      21.787   6.016  51.240  1.00  0.00     0.108 Br
ENDBRANCH   3  24
TORSDOF 2
ENDMDL
MODEL 5
REMARK VINA RESULT:      -6.9      7.243      9.066
REMARK  2 active torsions:
REMARK  status: ('A' for Active; 'I' for Inactive)
REMARK    1  A    between atoms: N1_1  and  C1_2 
REMARK    2  A    between atoms: C2_4  and  O2_5 
ROOT
HETATM    1  C1  UNL     1      29.846   8.220  46.668  1.00  0.00     0.399 C 
HETATM    2  O1  UNL     1      30.370   9.322  47.362  1.00  0.00    -0.289 OA
HETATM    3  C2  UNL     1      30.763   9.340  48.687  1.00  0.00     0.196 C 
HETATM    4  C3  UNL     1      31.387   8.299  49.211  1.00  0.00     0.081 C 
HETATM    5  C4  UNL     1      31.854   6.976  48.794  1.00  0.00     0.032 A 
HETATM    6  C5  UNL     1      33.203   6.699  48.536  1.00  0.00     0.133 A 
HETATM    7  N2  UNL     1      33.614   5.472  48.143  1.00  0.00    -0.253 NA
HETATM    8  C6  UNL     1      32.652   4.518  48.011  1.00  0.00     0.234 A 
HETATM    9  N3  UNL     1      31.341   4.737  48.249  1.00  0.00    -0.224 NA
HETATM   10  C7  UNL     1      30.940   5.954  48.638  1.00  0.00     0.141 A 
HETATM   11  N4  UNL     1      29.564   6.184  48.897  1.00  0.00    -0.340 N 
HETATM   12  C8  UNL     1      28.465   6.787  48.237  1.00  0.00     0.046 A 
HETATM   13  C9  UNL     1      27.233   6.375  48.688  1.00  0.00     0.031 A 
HETATM   14  C10 UNL     1      26.108   6.914  48.099  1.00  0.00     0.023 A 
HETATM   15  C11 UNL     1      26.204   7.844  47.084  1.00  0.00     0.033 A 
HETATM   16 BR2  UNL     1      24.599   8.533  46.334  1.00  0.00    -0.049 Br
HETATM   17  C12 UNL     1      27.454   8.238  46.655  1.00  0.00     0.064 A 
HETATM   18 CL1  UNL     1      27.470   9.414  45.372  1.00  0.00    -0.082 Cl
HETATM   19  C13 UNL     1      28.590   7.712  47.227  1.00  0.00     0.050 A 
HETATM   20  H7  UNL     1      29.455   5.755  49.843  1.00  0.00     0.167 HD
ENDROOT
BRANCH   1  21
HETATM   21  N1  UNL     1      29.716   8.616  45.277  1.00  0.00     0.112 N 
HETATM   22  H1  UNL     1      29.242   9.540  45.175  1.00  0.00     0.316 HD
HETATM   23  H2  UNL     1      30.602   8.606  44.745  1.00  0.00     0.316 HD
ENDBRANCH   1  21
BRANCH   3  24
HETATM   24  O2  UNL     1      30.586  10.357  49.614  1.00  0.00    -0.246 OA
HETATM   25 BR1  UNL     1      30.675  12.139  49.002  1.00  0.00     0.108 Br
ENDBRANCH   3  24
TORSDOF 2
ENDMDL
MODEL 6
REMARK VINA RESULT:      -6.6      3.087      3.798
REMARK  2 active torsions:
REMARK  status: ('A' for Active; 'I' for Inactive)
REMARK    1  A    between atoms: N1_1  and  C1_2 
REMARK    2  A    between atoms: C2_4  and  O2_5 
ROOT
HETATM    1  C1  UNL     1      23.222   4.979  49.707  1.00  0.00     0.399 C 
HETATM    2  O1  UNL     1      22.407   4.504  48.668  1.00  0.00    -0.289 OA
HETATM    3  C2  UNL     1      22.386   3.214  48.174  1.00  0.00     0.196 C 
HETATM    4  C3  UNL     1      22.498   2.184  48.995  1.00  0.00     0.081 C 
HETATM    5  C4  UNL     1      22.657   1.936  50.429  1.00  0.00     0.032 A 
HETATM    6  C5  UNL     1      21.601   1.502  51.241  1.00  0.00     0.133 A 
HETATM    7  N2  UNL     1      21.765   1.288  52.566  1.00  0.00    -0.253 NA
HETATM    8  C6  UNL     1      23.007   1.514  53.073  1.00  0.00     0.234 A 
HETATM    9  N3  UNL     1      24.056   1.932  52.330  1.00  0.00    -0.224 NA
HETATM   10  C7  UNL     1      23.887   2.143  51.019  1.00  0.00     0.141 A 
HETATM   11  N4  UNL     1      24.989   2.574  50.236  1.00  0.00    -0.340 N 
HETATM   12  C8  UNL     1      25.456   3.786  49.671  1.00  0.00     0.046 A 
HETATM   13  C9  UNL     1      26.799   3.795  49.373  1.00  0.00     0.031 A 
HETATM   14  C10 UNL     1      27.336   4.938  48.817  1.00  0.00     0.023 A 
HETATM   15  C11 UNL     1      26.558   6.048  48.563  1.00  0.00     0.033 A 
HETATM   16 BR2  UNL     1      27.386   7.577  47.795  1.00  0.00    -0.049 Br
HETATM   17  C12 UNL     1      25.215   6.007  48.873  1.00  0.00     0.064 A 
HETATM   18 CL1  UNL     1      24.318   7.455  48.514  1.00  0.00    -0.082 Cl
HETATM   19  C13 UNL     1      24.657   4.878  49.428  1.00  0.00     0.050 A 
HETATM   20  H7  UNL     1      25.516   1.681  50.110  1.00  0.00     0.167 HD
ENDROOT
BRANCH   1  21
HETATM   21  N1  UNL     1      22.804   6.343  49.985  1.00  0.00     0.112 N 
HETATM   22  H1  UNL     1      22.714   6.525  51.008  1.00  0.00     0.316 HD
HETATM   23  H2  UNL     1      23.392   7.068  49.540  1.00  0.00     0.316 HD
ENDBRANCH   1  21
BRANCH   3  24
HETATM   24  O2  UNL     1      22.256   2.809  46.853  1.00  0.00    -0.246 OA
HETATM   25 BR1  UNL     1      21.756   4.103  45.575  1.00  0.00     0.108 Br
ENDBRANCH   3  24
TORSDOF 2
ENDMDL
MODEL 7
REMARK VINA RESULT:      -6.3      4.035      5.298
REMARK  2 active torsions:
REMARK  status: ('A' for Active; 'I' for Inactive)
REMARK    1  A    between atoms: N1_1  and  C1_2 
REMARK    2  A    between atoms: C2_4  and  O2_5 
ROOT
HETATM    1  C1  UNL     1      21.680   1.278  50.086  1.00  0.00     0.399 C 
HETATM    2  O1  UNL     1      23.025   1.638  50.259  1.00  0.00    -0.289 OA
HETATM    3  C2  UNL     1      23.603   2.096  51.428  1.00  0.00     0.196 C 
HETATM    4  C3  UNL     1      23.253   1.576  52.592  1.00  0.00     0.081 C 
HETATM    5  C4  UNL     1      22.345   0.551  53.107  1.00  0.00     0.032 A 
HETATM    6  C5  UNL     1      22.792  -0.706  53.536  1.00  0.00     0.133 A 
HETATM    7  N2  UNL     1      21.935  -1.644  54.000  1.00  0.00    -0.253 NA
HETATM    8  C6  UNL     1      20.617  -1.306  54.032  1.00  0.00     0.234 A 
HETATM    9  N3  UNL     1      20.140  -0.108  53.631  1.00  0.00    -0.224 NA
HETATM   10  C7  UNL     1      20.993   0.816  53.172  1.00  0.00     0.141 A 
HETATM   11  N4  UNL     1      20.494   2.079  52.759  1.00  0.00    -0.340 N 
HETATM   12  C8  UNL     1      20.201   2.735  51.538  1.00  0.00     0.046 A 
HETATM   13  C9  UNL     1      19.320   3.785  51.653  1.00  0.00     0.031 A 
HETATM   14  C10 UNL     1      18.981   4.481  50.511  1.00  0.00     0.023 A 
HETATM   15  C11 UNL     1      19.505   4.142  49.280  1.00  0.00     0.033 A 
HETATM   16 BR2  UNL     1      18.981   5.159  47.762  1.00  0.00    -0.049 Br
HETATM   17  C12 UNL     1      20.386   3.085  49.199  1.00  0.00     0.064 A 
HETATM   18 CL1  UNL     1      20.993   2.736  47.605  1.00  0.00    -0.082 Cl
HETATM   19  C13 UNL     1      20.739   2.376  50.325  1.00  0.00     0.050 A 
HETATM   20  H7  UNL     1      20.342   2.553  53.676  1.00  0.00     0.167 HD
ENDROOT
BRANCH   1  21
HETATM   21  N1  UNL     1      21.557   0.721  48.750  1.00  0.00     0.112 N 
HETATM   22  H1  UNL     1      20.650   0.975  48.301  1.00  0.00     0.316 HD
HETATM   23  H2  UNL     1      22.346   0.944  48.120  1.00  0.00     0.316 HD
ENDBRANCH   1  21
BRANCH   3  24
HETATM   24  O2  UNL     1      24.561   3.089  51.572  1.00  0.00    -0.246 OA
HETATM   25 BR1  UNL     1      26.297   2.749  50.918  1.00  0.00     0.108 Br
ENDBRANCH   3  24
TORSDOF 2
ENDMDL
MODEL 8
REMARK VINA RESULT:      -6.2      6.895      8.491
REMARK  2 active torsions:
REMARK  status: ('A' for Active; 'I' for Inactive)
REMARK    1  A    between atoms: N1_1  and  C1_2 
REMARK    2  A    between atoms: C2_4  and  O2_5 
ROOT
HETATM    1  C1  UNL     1      28.655   9.018  48.993  1.00  0.00     0.399 C 
HETATM    2  O1  UNL     1      28.290   9.818  47.898  1.00  0.00    -0.289 OA
HETATM    3  C2  UNL     1      27.400   9.474  46.899  1.00  0.00     0.196 C 
HETATM    4  C3  UNL     1      26.302   8.797  47.188  1.00  0.00     0.081 C 
HETATM    5  C4  UNL     1      25.643   8.226  48.364  1.00  0.00     0.032 A 
HETATM    6  C5  UNL     1      24.529   8.822  48.968  1.00  0.00     0.133 A 
HETATM    7  N2  UNL     1      23.939   8.284  50.060  1.00  0.00    -0.253 NA
HETATM    8  C6  UNL     1      24.482   7.133  50.542  1.00  0.00     0.234 A 
HETATM    9  N3  UNL     1      25.554   6.521  49.994  1.00  0.00    -0.224 NA
HETATM   10  C7  UNL     1      26.133   7.059  48.913  1.00  0.00     0.141 A 
HETATM   11  N4  UNL     1      27.254   6.413  48.330  1.00  0.00    -0.340 N 
HETATM   12  C8  UNL     1      28.661   6.577  48.317  1.00  0.00     0.046 A 
HETATM   13  C9  UNL     1      29.363   5.444  47.975  1.00  0.00     0.031 A 
HETATM   14  C10 UNL     1      30.740   5.517  47.936  1.00  0.00     0.023 A 
HETATM   15  C11 UNL     1      31.407   6.688  48.231  1.00  0.00     0.033 A 
HETATM   16 BR2  UNL     1      33.306   6.693  48.150  1.00  0.00    -0.049 Br
HETATM   17  C12 UNL     1      30.674   7.806  48.569  1.00  0.00     0.064 A 
HETATM   18 CL1  UNL     1      31.605   9.234  48.922  1.00  0.00    -0.082 Cl
HETATM   19  C13 UNL     1      29.299   7.757  48.615  1.00  0.00     0.050 A 
HETATM   20  H7  UNL     1      26.796   5.638  47.802  1.00  0.00     0.167 HD
ENDROOT
BRANCH   1  21
HETATM   21  N1  UNL     1      29.494   9.834  49.854  1.00  0.00     0.112 N 
HETATM   22  H1  UNL     1      30.499   9.793  49.576  1.00  0.00     0.316 HD
HETATM   23  H2  UNL     1      29.185  10.816  49.945  1.00  0.00     0.316 HD
ENDBRANCH   1  21
BRANCH   3  24
HETATM   24  O2  UNL     1      27.494   9.751  45.542  1.00  0.00    -0.246 OA
HETATM   25 BR1  UNL     1      26.675   8.556  44.335  1.00  0.00     0.108 Br
ENDBRANCH   3  24
TORSDOF 2
ENDMDL
MODEL 9
REMARK VINA RESULT:      -6.0      3.813      5.836
REMARK  2 active torsions:
REMARK  status: ('A' for Active; 'I' for Inactive)
REMARK    1  A    between atoms: N1_1  and  C1_2 
REMARK    2  A    between atoms: C2_4  and  O2_5 
ROOT
HETATM    1  C1  UNL     1      22.676   4.012  51.520  1.00  0.00     0.399 C 
HETATM    2  O1  UNL     1      23.835   3.501  52.125  1.00  0.00    -0.289 OA
HETATM    3  C2  UNL     1      24.976   3.076  51.471  1.00  0.00     0.196 C 
HETATM    4  C3  UNL     1      25.423   3.734  50.415  1.00  0.00     0.081 C 
HETATM    5  C4  UNL     1      25.059   4.907  49.618  1.00  0.00     0.032 A 
HETATM    6  C5  UNL     1      25.735   6.129  49.723  1.00  0.00     0.133 A 
HETATM    7  N2  UNL     1      25.378   7.205  48.985  1.00  0.00    -0.253 NA
HETATM    8  C6  UNL     1      24.330   7.040  48.133  1.00  0.00     0.234 A 
HETATM    9  N3  UNL     1      23.649   5.882  47.996  1.00  0.00    -0.224 NA
HETATM   10  C7  UNL     1      24.007   4.821  48.730  1.00  0.00     0.141 A 
HETATM   11  N4  UNL     1      23.298   3.601  48.582  1.00  0.00    -0.340 N 
HETATM   12  C8  UNL     1      22.298   2.884  49.284  1.00  0.00     0.046 A 
HETATM   13  C9  UNL     1      21.612   1.968  48.521  1.00  0.00     0.031 A 
HETATM   14  C10 UNL     1      20.620   1.225  49.127  1.00  0.00     0.023 A 
HETATM   15  C11 UNL     1      20.315   1.387  50.463  1.00  0.00     0.033 A 
HETATM   16 BR2  UNL     1      18.934   0.318  51.212  1.00  0.00    -0.049 Br
HETATM   17  C12 UNL     1      21.022   2.314  51.201  1.00  0.00     0.064 A 
HETATM   18 CL1  UNL     1      20.564   2.445  52.875  1.00  0.00    -0.082 Cl
HETATM   19  C13 UNL     1      22.015   3.067  50.617  1.00  0.00     0.050 A 
HETATM   20  H7  UNL     1      23.705   3.230  47.695  1.00  0.00     0.167 HD
ENDROOT
BRANCH   1  21
HETATM   21  N1  UNL     1      21.802   4.463  52.590  1.00  0.00     0.112 N 
HETATM   22  H1  UNL     1      22.221   4.302  53.532  1.00  0.00     0.316 HD
HETATM   23  H2  UNL     1      21.486   5.443  52.499  1.00  0.00     0.316 HD
ENDBRANCH   1  21
BRANCH   3  24
HETATM   24  O2  UNL     1      25.778   1.986  51.778  1.00  0.00    -0.246 OA
HETATM   25 BR1  UNL     1      25.011   0.572  52.764  1.00  0.00     0.108 Br
ENDBRANCH   3  24
TORSDOF 2
ENDMDL
