MODEL 1
REMARK VINA RESULT:      -8.1      0.000      0.000
REMARK  6 active torsions:
REMARK  status: ('A' for Active; 'I' for Inactive)
REMARK    1  A    between atoms: C2_2  and  C3_3 
REMARK    2  A    between atoms: C3_3  and  O1_4 
REMARK    3  A    between atoms: O1_4  and  C4_5 
REMARK    4  A    between atoms: C7_8  and  N1_9 
REMARK    5  A    between atoms: N1_9  and  C8_10 
REMARK    6  A    between atoms: C22_27  and  O3_28 
ROOT
HETATM    1  C4  UNL     1      25.729   0.937  52.138  1.00  0.00     0.103 A 
HETATM    2  C5  UNL     1      24.435   1.386  52.302  1.00  0.00     0.057 A 
HETATM    3  C6  UNL     1      23.466   0.758  53.052  1.00  0.00     0.041 A 
HETATM    4  C7  UNL     1      22.191   1.265  53.173  1.00  0.00     0.138 A 
HETATM    5  N2  UNL     1      21.411   0.517  53.933  1.00  0.00    -0.224 NA
HETATM    6  C19 UNL     1      21.759  -0.623  54.550  1.00  0.00     0.235 A 
HETATM    7  N3  UNL     1      23.022  -1.097  54.411  1.00  0.00    -0.241 NA
HETATM    8  C20 UNL     1      23.898  -0.394  53.646  1.00  0.00     0.075 A 
HETATM    9  C21 UNL     1      25.170  -0.906  53.529  1.00  0.00     0.072 A 
HETATM   10  C22 UNL     1      26.105  -0.236  52.765  1.00  0.00     0.103 A 
ENDROOT
BRANCH   4  11
HETATM   11  N1  UNL     1      21.803   2.490  52.516  1.00  0.00    -0.358 N 
HETATM   12  H9  UNL     1      21.552   3.332  53.034  1.00  0.00     0.162 HD
BRANCH  11  13
HETATM   13  C8  UNL     1      21.829   2.354  51.089  1.00  0.00     0.186 C 
HETATM   14  C9  UNL     1      20.443   2.077  50.541  1.00  0.00     0.153 C 
HETATM   15  O2  UNL     1      19.397   2.027  51.193  1.00  0.00    -0.295 OA
HETATM   16  C10 UNL     1      20.297   1.837  49.064  1.00  0.00     0.081 C 
HETATM   17  C11 UNL     1      21.480   1.180  48.442  1.00  0.00     0.012 C 
HETATM   18  C12 UNL     1      22.586   2.135  48.039  1.00  0.00     0.039 C 
HETATM   19  C13 UNL     1      22.664   3.316  48.965  1.00  0.00    -0.049 A 
HETATM   20  C14 UNL     1      23.150   4.384  48.238  1.00  0.00     0.007 A 
HETATM   21  C18 UNL     1      22.343   3.482  50.324  1.00  0.00    -0.022 A 
HETATM   22  C15 UNL     1      23.345   5.622  48.763  1.00  0.00     0.001 A 
HETATM   23  C16 UNL     1      23.030   5.782  50.094  1.00  0.00     0.001 A 
HETATM   24  C17 UNL     1      22.551   4.745  50.828  1.00  0.00     0.010 A 
ENDBRANCH  11  13
ENDBRANCH   4  11
BRANCH   1  25
HETATM   25  O1  UNL     1      26.675   1.587  51.382  1.00  0.00    -0.348 OA
BRANCH  25  26
HETATM   26  C3  UNL     1      26.788   2.951  51.140  1.00  0.00     0.175 C 
BRANCH  26  27
HETATM   27  C2  UNL     1      26.394   3.115  49.665  1.00  0.00     0.022 C 
HETATM   28  C1  UNL     1      26.887   4.404  49.081  1.00  0.00     0.007 C 
ENDBRANCH  26  27
ENDBRANCH  25  26
ENDBRANCH   1  25
BRANCH  10  29
HETATM   29  O3  UNL     1      27.400  -0.709  52.615  1.00  0.00    -0.353 OA
HETATM   30  C23 UNL     1      28.410  -0.555  53.563  1.00  0.00     0.210 C 
ENDBRANCH  10  29
TORSDOF 6
ENDMDL
MODEL 2
REMARK VINA RESULT:      -7.8      2.248      4.842
REMARK  6 active torsions:
REMARK  status: ('A' for Active; 'I' for Inactive)
REMARK    1  A    between atoms: C2_2  and  C3_3 
REMARK    2  A    between atoms: C3_3  and  O1_4 
REMARK    3  A    between atoms: O1_4  and  C4_5 
REMARK    4  A    between atoms: C7_8  and  N1_9 
REMARK    5  A    between atoms: N1_9  and  C8_10 
REMARK    6  A    between atoms: C22_27  and  O3_28 
ROOT
HETATM    1  C4  UNL     1      23.873   0.396  52.852  1.00  0.00     0.103 A 
HETATM    2  C5  UNL     1      24.050   1.316  51.839  1.00  0.00     0.057 A 
HETATM    3  C6  UNL     1      23.053   1.793  51.017  1.00  0.00     0.041 A 
HETATM    4  C7  UNL     1      23.302   2.714  50.023  1.00  0.00     0.138 A 
HETATM    5  N2  UNL     1      22.217   3.043  49.346  1.00  0.00    -0.224 NA
HETATM    6  C19 UNL     1      20.978   2.571  49.551  1.00  0.00     0.235 A 
HETATM    7  N3  UNL     1      20.765   1.665  50.537  1.00  0.00    -0.241 NA
HETATM    8  C20 UNL     1      21.823   1.264  51.289  1.00  0.00     0.075 A 
HETATM    9  C21 UNL     1      21.569   0.344  52.279  1.00  0.00     0.072 A 
HETATM   10  C22 UNL     1      22.603  -0.101  53.077  1.00  0.00     0.103 A 
ENDROOT
BRANCH   4  11
HETATM   11  N1  UNL     1      24.630   3.230  49.793  1.00  0.00    -0.358 N 
HETATM   12  H9  UNL     1      25.457   2.633  49.803  1.00  0.00     0.162 HD
BRANCH  11  13
HETATM   13  C8  UNL     1      24.612   4.643  49.553  1.00  0.00     0.186 C 
HETATM   14  C9  UNL     1      24.288   5.408  50.821  1.00  0.00     0.153 C 
HETATM   15  O2  UNL     1      24.115   4.924  51.942  1.00  0.00    -0.295 OA
HETATM   16  C10 UNL     1      24.160   6.904  50.736  1.00  0.00     0.081 C 
HETATM   17  C11 UNL     1      23.636   7.389  49.429  1.00  0.00     0.012 C 
HETATM   18  C12 UNL     1      24.693   7.555  48.354  1.00  0.00     0.039 C 
HETATM   19  C13 UNL     1      25.798   6.547  48.502  1.00  0.00    -0.049 A 
HETATM   20  C14 UNL     1      26.951   7.117  48.003  1.00  0.00     0.007 A 
HETATM   21  C18 UNL     1      25.830   5.242  49.025  1.00  0.00    -0.022 A 
HETATM   22  C15 UNL     1      28.153   6.482  47.982  1.00  0.00     0.001 A 
HETATM   23  C16 UNL     1      28.182   5.204  48.495  1.00  0.00     0.001 A 
HETATM   24  C17 UNL     1      27.060   4.625  48.991  1.00  0.00     0.010 A 
ENDBRANCH  11  13
ENDBRANCH   4  11
BRANCH   1  25
HETATM   25  O1  UNL     1      24.889  -0.060  53.657  1.00  0.00    -0.348 OA
BRANCH  25  26
HETATM   26  C3  UNL     1      26.132   0.519  53.880  1.00  0.00     0.175 C 
BRANCH  26  27
HETATM   27  C2  UNL     1      27.057  -0.141  52.847  1.00  0.00     0.022 C 
HETATM   28  C1  UNL     1      26.810  -1.614  52.718  1.00  0.00     0.007 C 
ENDBRANCH  26  27
ENDBRANCH  25  26
ENDBRANCH   1  25
BRANCH  10  29
HETATM   29  O3  UNL     1      22.400  -1.028  54.089  1.00  0.00    -0.353 OA
HETATM   30  C23 UNL     1      21.179  -1.641  54.363  1.00  0.00     0.210 C 
ENDBRANCH  10  29
TORSDOF 6
ENDMDL
MODEL 3
REMARK VINA RESULT:      -7.8      2.517      5.030
REMARK  6 active torsions:
REMARK  status: ('A' for Active; 'I' for Inactive)
REMARK    1  A    between atoms: C2_2  and  C3_3 
REMARK    2  A    between atoms: C3_3  and  O1_4 
REMARK    3  A    between atoms: O1_4  and  C4_5 
REMARK    4  A    between atoms: C7_8  and  N1_9 
REMARK    5  A    between atoms: N1_9  and  C8_10 
REMARK    6  A    between atoms: C22_27  and  O3_28 
ROOT
HETATM    1  C4  UNL     1      23.284   0.847  52.236  1.00  0.00     0.103 A 
HETATM    2  C5  UNL     1      24.329   1.457  51.575  1.00  0.00     0.057 A 
HETATM    3  C6  UNL     1      25.565   1.725  52.122  1.00  0.00     0.041 A 
HETATM    4  C7  UNL     1      26.566   2.339  51.402  1.00  0.00     0.138 A 
HETATM    5  N2  UNL     1      27.673   2.507  52.103  1.00  0.00    -0.224 NA
HETATM    6  C19 UNL     1      27.869   2.144  53.379  1.00  0.00     0.235 A 
HETATM    7  N3  UNL     1      26.863   1.542  54.062  1.00  0.00    -0.241 NA
HETATM    8  C20 UNL     1      25.684   1.326  53.423  1.00  0.00     0.075 A 
HETATM    9  C21 UNL     1      24.688   0.713  54.147  1.00  0.00     0.072 A 
HETATM   10  C22 UNL     1      23.467   0.467  53.552  1.00  0.00     0.103 A 
ENDROOT
BRANCH   4  11
HETATM   11  N1  UNL     1      26.369   2.734  50.027  1.00  0.00    -0.358 N 
HETATM   12  H9  UNL     1      26.555   2.105  49.246  1.00  0.00     0.162 HD
BRANCH  11  13
HETATM   13  C8  UNL     1      25.890   4.082  49.930  1.00  0.00     0.186 C 
HETATM   14  C9  UNL     1      26.830   4.938  49.105  1.00  0.00     0.153 C 
HETATM   15  O2  UNL     1      27.850   4.554  48.527  1.00  0.00    -0.295 OA
HETATM   16  C10 UNL     1      26.516   6.401  48.957  1.00  0.00     0.081 C 
HETATM   17  C11 UNL     1      25.830   6.990  50.140  1.00  0.00     0.012 C 
HETATM   18  C12 UNL     1      24.324   6.807  50.146  1.00  0.00     0.039 C 
HETATM   19  C13 UNL     1      23.921   5.516  49.489  1.00  0.00    -0.049 A 
HETATM   20  C14 UNL     1      22.666   5.703  48.944  1.00  0.00     0.007 A 
HETATM   21  C18 UNL     1      24.566   4.275  49.355  1.00  0.00    -0.022 A 
HETATM   22  C15 UNL     1      21.992   4.736  48.266  1.00  0.00     0.001 A 
HETATM   23  C16 UNL     1      22.627   3.521  48.136  1.00  0.00     0.001 A 
HETATM   24  C17 UNL     1      23.860   3.316  48.664  1.00  0.00     0.010 A 
ENDBRANCH  11  13
ENDBRANCH   4  11
BRANCH   1  25
HETATM   25  O1  UNL     1      22.061   0.593  51.663  1.00  0.00    -0.348 OA
BRANCH  25  26
HETATM   26  C3  UNL     1      20.850   1.229  51.908  1.00  0.00     0.175 C 
BRANCH  26  27
HETATM   27  C2  UNL     1      20.933   2.537  51.109  1.00  0.00     0.022 C 
HETATM   28  C1  UNL     1      21.067   3.740  51.993  1.00  0.00     0.007 C 
ENDBRANCH  26  27
ENDBRANCH  25  26
ENDBRANCH   1  25
BRANCH  10  29
HETATM   29  O3  UNL     1      22.430  -0.148  54.238  1.00  0.00    -0.353 OA
HETATM   30  C23 UNL     1      22.518  -1.402  54.842  1.00  0.00     0.210 C 
ENDBRANCH  10  29
TORSDOF 6
ENDMDL
MODEL 4
REMARK VINA RESULT:      -7.7      2.846      6.127
REMARK  6 active torsions:
REMARK  status: ('A' for Active; 'I' for Inactive)
REMARK    1  A    between atoms: C2_2  and  C3_3 
REMARK    2  A    between atoms: C3_3  and  O1_4 
REMARK    3  A    between atoms: O1_4  and  C4_5 
REMARK    4  A    between atoms: C7_8  and  N1_9 
REMARK    5  A    between atoms: N1_9  and  C8_10 
REMARK    6  A    between atoms: C22_27  and  O3_28 
ROOT
HETATM    1  C4  UNL     1      26.039   6.481  49.342  1.00  0.00     0.103 A 
HETATM    2  C5  UNL     1      25.200   5.432  49.657  1.00  0.00     0.057 A 
HETATM    3  C6  UNL     1      23.935   5.560  50.187  1.00  0.00     0.041 A 
HETATM    4  C7  UNL     1      23.149   4.467  50.479  1.00  0.00     0.138 A 
HETATM    5  N2  UNL     1      21.973   4.799  50.979  1.00  0.00    -0.224 NA
HETATM    6  C19 UNL     1      21.528   6.045  51.204  1.00  0.00     0.235 A 
HETATM    7  N3  UNL     1      22.325   7.101  50.907  1.00  0.00    -0.241 NA
HETATM    8  C20 UNL     1      23.556   6.858  50.386  1.00  0.00     0.075 A 
HETATM    9  C21 UNL     1      24.336   7.954  50.098  1.00  0.00     0.072 A 
HETATM   10  C22 UNL     1      25.597   7.771  49.567  1.00  0.00     0.103 A 
ENDROOT
BRANCH   4  11
HETATM   11  N1  UNL     1      23.616   3.122  50.241  1.00  0.00    -0.358 N 
HETATM   12  H9  UNL     1      24.324   2.905  49.539  1.00  0.00     0.162 HD
BRANCH  11  13
HETATM   13  C8  UNL     1      22.968   2.179  51.105  1.00  0.00     0.186 C 
HETATM   14  C9  UNL     1      22.073   1.242  50.319  1.00  0.00     0.153 C 
HETATM   15  O2  UNL     1      21.936   1.220  49.094  1.00  0.00    -0.295 OA
HETATM   16  C10 UNL     1      21.261   0.230  51.078  1.00  0.00     0.081 C 
HETATM   17  C11 UNL     1      20.839   0.690  52.431  1.00  0.00     0.012 C 
HETATM   18  C12 UNL     1      21.875   0.472  53.517  1.00  0.00     0.039 C 
HETATM   19  C13 UNL     1      23.274   0.590  52.980  1.00  0.00    -0.049 A 
HETATM   20  C14 UNL     1      24.084  -0.221  53.749  1.00  0.00     0.007 A 
HETATM   21  C18 UNL     1      23.826   1.325  51.916  1.00  0.00    -0.022 A 
HETATM   22  C15 UNL     1      25.420  -0.361  53.541  1.00  0.00     0.001 A 
HETATM   23  C16 UNL     1      25.957   0.360  52.497  1.00  0.00     0.001 A 
HETATM   24  C17 UNL     1      25.179   1.163  51.729  1.00  0.00     0.010 A 
ENDBRANCH  11  13
ENDBRANCH   4  11
BRANCH   1  25
HETATM   25  O1  UNL     1      27.297   6.321  48.813  1.00  0.00    -0.348 OA
BRANCH  25  26
HETATM   26  C3  UNL     1      27.959   5.134  48.517  1.00  0.00     0.175 C 
BRANCH  26  27
HETATM   27  C2  UNL     1      29.366   5.573  48.090  1.00  0.00     0.022 C 
HETATM   28  C1  UNL     1      29.391   6.974  47.557  1.00  0.00     0.007 C 
ENDBRANCH  26  27
ENDBRANCH  25  26
ENDBRANCH   1  25
BRANCH  10  29
HETATM   29  O3  UNL     1      26.423   8.841  49.258  1.00  0.00    -0.353 OA
HETATM   30  C23 UNL     1      27.444   9.312  50.082  1.00  0.00     0.210 C 
ENDBRANCH  10  29
TORSDOF 6
ENDMDL
MODEL 5
REMARK VINA RESULT:      -7.4      2.221      4.070
REMARK  6 active torsions:
REMARK  status: ('A' for Active; 'I' for Inactive)
REMARK    1  A    between atoms: C2_2  and  C3_3 
REMARK    2  A    between atoms: C3_3  and  O1_4 
REMARK    3  A    between atoms: O1_4  and  C4_5 
REMARK    4  A    between atoms: C7_8  and  N1_9 
REMARK    5  A    between atoms: N1_9  and  C8_10 
REMARK    6  A    between atoms: C22_27  and  O3_28 
ROOT
HETATM    1  C4  UNL     1      24.509   0.408  53.225  1.00  0.00     0.103 A 
HETATM    2  C5  UNL     1      24.062   1.640  52.793  1.00  0.00     0.057 A 
HETATM    3  C6  UNL     1      24.732   2.464  51.916  1.00  0.00     0.041 A 
HETATM    4  C7  UNL     1      24.226   3.684  51.527  1.00  0.00     0.138 A 
HETATM    5  N2  UNL     1      25.017   4.322  50.684  1.00  0.00    -0.224 NA
HETATM    6  C19 UNL     1      26.197   3.887  50.216  1.00  0.00     0.235 A 
HETATM    7  N3  UNL     1      26.669   2.682  50.619  1.00  0.00    -0.241 NA
HETATM    8  C20 UNL     1      25.924   1.950  51.488  1.00  0.00     0.075 A 
HETATM    9  C21 UNL     1      26.435   0.733  51.874  1.00  0.00     0.072 A 
HETATM   10  C22 UNL     1      25.723  -0.056  52.754  1.00  0.00     0.103 A 
ENDROOT
BRANCH   4  11
HETATM   11  N1  UNL     1      22.957   4.164  52.021  1.00  0.00    -0.358 N 
HETATM   12  H9  UNL     1      22.822   4.447  52.992  1.00  0.00     0.162 HD
BRANCH  11  13
HETATM   13  C8  UNL     1      21.964   4.188  50.989  1.00  0.00     0.186 C 
HETATM   14  C9  UNL     1      20.622   3.715  51.511  1.00  0.00     0.153 C 
HETATM   15  O2  UNL     1      20.360   3.399  52.674  1.00  0.00    -0.295 OA
HETATM   16  C10 UNL     1      19.477   3.611  50.541  1.00  0.00     0.081 C 
HETATM   17  C11 UNL     1      19.895   3.258  49.155  1.00  0.00     0.012 C 
HETATM   18  C12 UNL     1      20.325   4.442  48.311  1.00  0.00     0.039 C 
HETATM   19  C13 UNL     1      20.974   5.511  49.144  1.00  0.00    -0.049 A 
HETATM   20  C14 UNL     1      20.732   6.722  48.528  1.00  0.00     0.007 A 
HETATM   21  C18 UNL     1      21.712   5.467  50.340  1.00  0.00    -0.022 A 
HETATM   22  C15 UNL     1      21.174   7.912  49.015  1.00  0.00     0.001 A 
HETATM   23  C16 UNL     1      21.896   7.867  50.187  1.00  0.00     0.001 A 
HETATM   24  C17 UNL     1      22.145   6.687  50.809  1.00  0.00     0.010 A 
ENDBRANCH  11  13
ENDBRANCH   4  11
BRANCH   1  25
HETATM   25  O1  UNL     1      23.816  -0.393  54.101  1.00  0.00    -0.348 OA
BRANCH  25  26
HETATM   26  C3  UNL     1      22.697  -1.176  53.846  1.00  0.00     0.175 C 
BRANCH  26  27
HETATM   27  C2  UNL     1      21.657  -0.710  54.875  1.00  0.00     0.022 C 
HETATM   28  C1  UNL     1      20.745   0.347  54.329  1.00  0.00     0.007 C 
ENDBRANCH  26  27
ENDBRANCH  25  26
ENDBRANCH   1  25
BRANCH  10  29
HETATM   29  O3  UNL     1      26.193  -1.292  53.175  1.00  0.00    -0.353 OA
HETATM   30  C23 UNL     1      26.943  -2.160  52.383  1.00  0.00     0.210 C 
ENDBRANCH  10  29
TORSDOF 6
ENDMDL
MODEL 6
REMARK VINA RESULT:      -7.3      5.698      9.978
REMARK  6 active torsions:
REMARK  status: ('A' for Active; 'I' for Inactive)
REMARK    1  A    between atoms: C2_2  and  C3_3 
REMARK    2  A    between atoms: C3_3  and  O1_4 
REMARK    3  A    between atoms: O1_4  and  C4_5 
REMARK    4  A    between atoms: C7_8  and  N1_9 
REMARK    5  A    between atoms: N1_9  and  C8_10 
REMARK    6  A    between atoms: C22_27  and  O3_28 
ROOT
HETATM    1  C4  UNL     1      26.252   4.292  49.443  1.00  0.00     0.103 A 
HETATM    2  C5  UNL     1      27.499   4.664  48.985  1.00  0.00     0.057 A 
HETATM    3  C6  UNL     1      27.785   5.844  48.334  1.00  0.00     0.041 A 
HETATM    4  C7  UNL     1      29.057   6.152  47.902  1.00  0.00     0.138 A 
HETATM    5  N2  UNL     1      29.124   7.326  47.302  1.00  0.00    -0.224 NA
HETATM    6  C19 UNL     1      28.106   8.177  47.101  1.00  0.00     0.235 A 
HETATM    7  N3  UNL     1      26.865   7.845  47.537  1.00  0.00    -0.241 NA
HETATM    8  C20 UNL     1      26.697   6.653  48.169  1.00  0.00     0.075 A 
HETATM    9  C21 UNL     1      25.425   6.351  48.597  1.00  0.00     0.072 A 
HETATM   10  C22 UNL     1      25.191   5.155  49.245  1.00  0.00     0.103 A 
ENDROOT
BRANCH   4  11
HETATM   11  N1  UNL     1      30.162   5.247  48.112  1.00  0.00    -0.358 N 
HETATM   12  H9  UNL     1      30.035   4.314  48.505  1.00  0.00     0.162 HD
BRANCH  11  13
HETATM   13  C8  UNL     1      31.405   5.828  47.700  1.00  0.00     0.186 C 
HETATM   14  C9  UNL     1      32.067   6.570  48.844  1.00  0.00     0.153 C 
HETATM   15  O2  UNL     1      31.657   6.639  50.005  1.00  0.00    -0.295 OA
HETATM   16  C10 UNL     1      33.352   7.301  48.569  1.00  0.00     0.081 C 
HETATM   17  C11 UNL     1      33.450   7.843  47.184  1.00  0.00     0.012 C 
HETATM   18  C12 UNL     1      33.956   6.847  46.158  1.00  0.00     0.039 C 
HETATM   19  C13 UNL     1      33.532   5.444  46.491  1.00  0.00    -0.049 A 
HETATM   20  C14 UNL     1      34.493   4.589  45.990  1.00  0.00     0.007 A 
HETATM   21  C18 UNL     1      32.417   4.924  47.171  1.00  0.00    -0.022 A 
HETATM   22  C15 UNL     1      34.432   3.237  46.114  1.00  0.00     0.001 A 
HETATM   23  C16 UNL     1      33.339   2.730  46.782  1.00  0.00     0.001 A 
HETATM   24  C17 UNL     1      32.382   3.553  47.282  1.00  0.00     0.010 A 
ENDBRANCH  11  13
ENDBRANCH   4  11
BRANCH   1  25
HETATM   25  O1  UNL     1      25.998   3.106  50.090  1.00  0.00    -0.348 OA
BRANCH  25  26
HETATM   26  C3  UNL     1      26.640   2.585  51.208  1.00  0.00     0.175 C 
BRANCH  26  27
HETATM   27  C2  UNL     1      25.626   1.601  51.810  1.00  0.00     0.022 C 
HETATM   28  C1  UNL     1      24.743   2.246  52.835  1.00  0.00     0.007 C 
ENDBRANCH  26  27
ENDBRANCH  25  26
ENDBRANCH   1  25
BRANCH  10  29
HETATM   29  O3  UNL     1      23.928   4.803  49.697  1.00  0.00    -0.353 OA
HETATM   30  C23 UNL     1      22.897   4.345  48.877  1.00  0.00     0.210 C 
ENDBRANCH  10  29
TORSDOF 6
ENDMDL
MODEL 7
REMARK VINA RESULT:      -7.2      6.086      9.058
REMARK  6 active torsions:
REMARK  status: ('A' for Active; 'I' for Inactive)
REMARK    1  A    between atoms: C2_2  and  C3_3 
REMARK    2  A    between atoms: C3_3  and  O1_4 
REMARK    3  A    between atoms: O1_4  and  C4_5 
REMARK    4  A    between atoms: C7_8  and  N1_9 
REMARK    5  A    between atoms: N1_9  and  C8_10 
REMARK    6  A    between atoms: C22_27  and  O3_28 
ROOT
HETATM    1  C4  UNL     1      32.142   5.872  48.053  1.00  0.00     0.103 A 
HETATM    2  C5  UNL     1      30.810   6.230  48.093  1.00  0.00     0.057 A 
HETATM    3  C6  UNL     1      30.326   7.438  48.544  1.00  0.00     0.041 A 
HETATM    4  C7  UNL     1      28.980   7.729  48.555  1.00  0.00     0.138 A 
HETATM    5  N2  UNL     1      28.720   8.936  49.025  1.00  0.00    -0.224 NA
HETATM    6  C19 UNL     1      29.620   9.831  49.460  1.00  0.00     0.235 A 
HETATM    7  N3  UNL     1      30.939   9.514  49.437  1.00  0.00    -0.241 NA
HETATM    8  C20 UNL     1      31.304   8.292  48.970  1.00  0.00     0.075 A 
HETATM    9  C21 UNL     1      32.650   8.007  48.962  1.00  0.00     0.072 A 
HETATM   10  C22 UNL     1      33.083   6.781  48.498  1.00  0.00     0.103 A 
ENDROOT
BRANCH   4  11
HETATM   11  N1  UNL     1      28.001   6.776  48.089  1.00  0.00    -0.358 N 
HETATM   12  H9  UNL     1      28.204   6.102  47.350  1.00  0.00     0.162 HD
BRANCH  11  13
HETATM   13  C8  UNL     1      26.760   6.908  48.794  1.00  0.00     0.186 C 
HETATM   14  C9  UNL     1      25.686   7.499  47.903  1.00  0.00     0.153 C 
HETATM   15  O2  UNL     1      25.804   7.787  46.709  1.00  0.00    -0.295 OA
HETATM   16  C10 UNL     1      24.334   7.772  48.502  1.00  0.00     0.081 C 
HETATM   17  C11 UNL     1      24.380   8.141  49.945  1.00  0.00     0.012 C 
HETATM   18  C12 UNL     1      24.411   6.957  50.892  1.00  0.00     0.039 C 
HETATM   19  C13 UNL     1      25.139   5.787  50.294  1.00  0.00    -0.049 A 
HETATM   20  C14 UNL     1      24.593   4.639  50.830  1.00  0.00     0.007 A 
HETATM   21  C18 UNL     1      26.186   5.695  49.360  1.00  0.00    -0.022 A 
HETATM   22  C15 UNL     1      25.011   3.387  50.506  1.00  0.00     0.001 A 
HETATM   23  C16 UNL     1      26.037   3.299  49.591  1.00  0.00     0.001 A 
HETATM   24  C17 UNL     1      26.588   4.415  49.051  1.00  0.00     0.010 A 
ENDBRANCH  11  13
ENDBRANCH   4  11
BRANCH   1  25
HETATM   25  O1  UNL     1      32.594   4.657  47.596  1.00  0.00    -0.348 OA
BRANCH  25  26
HETATM   26  C3  UNL     1      32.770   4.248  46.279  1.00  0.00     0.175 C 
BRANCH  26  27
HETATM   27  C2  UNL     1      33.918   3.231  46.342  1.00  0.00     0.022 C 
HETATM   28  C1  UNL     1      34.514   3.124  47.713  1.00  0.00     0.007 C 
ENDBRANCH  26  27
ENDBRANCH  25  26
ENDBRANCH   1  25
BRANCH  10  29
HETATM   29  O3  UNL     1      34.428   6.443  48.469  1.00  0.00    -0.353 OA
HETATM   30  C23 UNL     1      35.473   7.363  48.553  1.00  0.00     0.210 C 
ENDBRANCH  10  29
TORSDOF 6
ENDMDL
MODEL 8
REMARK VINA RESULT:      -6.9     11.274     14.785
REMARK  6 active torsions:
REMARK  status: ('A' for Active; 'I' for Inactive)
REMARK    1  A    between atoms: C2_2  and  C3_3 
REMARK    2  A    between atoms: C3_3  and  O1_4 
REMARK    3  A    between atoms: O1_4  and  C4_5 
REMARK    4  A    between atoms: C7_8  and  N1_9 
REMARK    5  A    between atoms: N1_9  and  C8_10 
REMARK    6  A    between atoms: C22_27  and  O3_28 
ROOT
HETATM    1  C4  UNL     1      34.262   4.621  41.249  1.00  0.00     0.103 A 
HETATM    2  C5  UNL     1      33.936   5.353  42.372  1.00  0.00     0.057 A 
HETATM    3  C6  UNL     1      34.502   6.558  42.726  1.00  0.00     0.041 A 
HETATM    4  C7  UNL     1      34.128   7.236  43.865  1.00  0.00     0.138 A 
HETATM    5  N2  UNL     1      34.786   8.369  44.027  1.00  0.00    -0.224 NA
HETATM    6  C19 UNL     1      35.727   8.866  43.210  1.00  0.00     0.235 A 
HETATM    7  N3  UNL     1      36.074   8.175  42.096  1.00  0.00    -0.241 NA
HETATM    8  C20 UNL     1      35.450   6.994  41.844  1.00  0.00     0.075 A 
HETATM    9  C21 UNL     1      35.828   6.322  40.705  1.00  0.00     0.072 A 
HETATM   10  C22 UNL     1      35.229   5.117  40.396  1.00  0.00     0.103 A 
ENDROOT
BRANCH   4  11
HETATM   11  N1  UNL     1      33.116   6.714  44.753  1.00  0.00    -0.358 N 
HETATM   12  H9  UNL     1      32.140   6.620  44.472  1.00  0.00     0.162 HD
BRANCH  11  13
HETATM   13  C8  UNL     1      33.666   6.357  46.027  1.00  0.00     0.186 C 
HETATM   14  C9  UNL     1      33.102   7.230  47.130  1.00  0.00     0.153 C 
HETATM   15  O2  UNL     1      32.240   8.103  47.001  1.00  0.00    -0.295 OA
HETATM   16  C10 UNL     1      33.624   7.038  48.527  1.00  0.00     0.081 C 
HETATM   17  C11 UNL     1      35.049   6.610  48.582  1.00  0.00     0.012 C 
HETATM   18  C12 UNL     1      35.259   5.114  48.444  1.00  0.00     0.039 C 
HETATM   19  C13 UNL     1      34.221   4.489  47.555  1.00  0.00    -0.049 A 
HETATM   20  C14 UNL     1      34.042   3.187  47.978  1.00  0.00     0.007 A 
HETATM   21  C18 UNL     1      33.476   4.982  46.470  1.00  0.00    -0.022 A 
HETATM   22  C15 UNL     1      33.167   2.324  47.398  1.00  0.00     0.001 A 
HETATM   23  C16 UNL     1      32.439   2.810  46.334  1.00  0.00     0.001 A 
HETATM   24  C17 UNL     1      32.599   4.086  45.903  1.00  0.00     0.010 A 
ENDBRANCH  11  13
ENDBRANCH   4  11
BRANCH   1  25
HETATM   25  O1  UNL     1      33.678   3.420  40.923  1.00  0.00    -0.348 OA
BRANCH  25  26
HETATM   26  C3  UNL     1      32.439   3.202  40.333  1.00  0.00     0.175 C 
BRANCH  26  27
HETATM   27  C2  UNL     1      32.478   1.733  39.887  1.00  0.00     0.022 C 
HETATM   28  C1  UNL     1      33.866   1.271  39.561  1.00  0.00     0.007 C 
ENDBRANCH  26  27
ENDBRANCH  25  26
ENDBRANCH   1  25
BRANCH  10  29
HETATM   29  O3  UNL     1      35.574   4.399  39.260  1.00  0.00    -0.353 OA
HETATM   30  C23 UNL     1      35.140   4.708  37.971  1.00  0.00     0.210 C 
ENDBRANCH  10  29
TORSDOF 6
ENDMDL
MODEL 9
REMARK VINA RESULT:      -6.9      2.525      5.670
REMARK  6 active torsions:
REMARK  status: ('A' for Active; 'I' for Inactive)
REMARK    1  A    between atoms: C2_2  and  C3_3 
REMARK    2  A    between atoms: C3_3  and  O1_4 
REMARK    3  A    between atoms: O1_4  and  C4_5 
REMARK    4  A    between atoms: C7_8  and  N1_9 
REMARK    5  A    between atoms: N1_9  and  C8_10 
REMARK    6  A    between atoms: C22_27  and  O3_28 
ROOT
HETATM    1  C4  UNL     1      19.054   0.142  51.294  1.00  0.00     0.103 A 
HETATM    2  C5  UNL     1      20.400   0.333  51.523  1.00  0.00     0.057 A 
HETATM    3  C6  UNL     1      21.086  -0.105  52.634  1.00  0.00     0.041 A 
HETATM    4  C7  UNL     1      22.435   0.122  52.798  1.00  0.00     0.138 A 
HETATM    5  N2  UNL     1      22.905  -0.376  53.928  1.00  0.00    -0.224 NA
HETATM    6  C19 UNL     1      22.202  -1.041  54.857  1.00  0.00     0.235 A 
HETATM    7  N3  UNL     1      20.876  -1.249  54.667  1.00  0.00    -0.241 NA
HETATM    8  C20 UNL     1      20.301  -0.772  53.531  1.00  0.00     0.075 A 
HETATM    9  C21 UNL     1      18.954  -1.001  53.373  1.00  0.00     0.072 A 
HETATM   10  C22 UNL     1      18.314  -0.541  52.240  1.00  0.00     0.103 A 
ENDROOT
BRANCH   4  11
HETATM   11  N1  UNL     1      23.203   0.836  51.806  1.00  0.00    -0.358 N 
HETATM   12  H9  UNL     1      23.935   0.386  51.255  1.00  0.00     0.162 HD
BRANCH  11  13
HETATM   13  C8  UNL     1      22.799   2.208  51.713  1.00  0.00     0.186 C 
HETATM   14  C9  UNL     1      23.881   3.133  52.231  1.00  0.00     0.153 C 
HETATM   15  O2  UNL     1      24.998   2.798  52.633  1.00  0.00    -0.295 OA
HETATM   16  C10 UNL     1      23.597   4.610  52.271  1.00  0.00     0.081 C 
HETATM   17  C11 UNL     1      22.165   4.938  52.518  1.00  0.00     0.012 C 
HETATM   18  C12 UNL     1      21.300   4.943  51.273  1.00  0.00     0.039 C 
HETATM   19  C13 UNL     1      21.775   3.935  50.264  1.00  0.00    -0.049 A 
HETATM   20  C14 UNL     1      21.440   4.411  49.012  1.00  0.00     0.007 A 
HETATM   21  C18 UNL     1      22.446   2.707  50.391  1.00  0.00    -0.022 A 
HETATM   22  C15 UNL     1      21.725   3.751  47.858  1.00  0.00     0.001 A 
HETATM   23  C16 UNL     1      22.382   2.547  47.986  1.00  0.00     0.001 A 
HETATM   24  C17 UNL     1      22.720   2.061  49.207  1.00  0.00     0.010 A 
ENDBRANCH  11  13
ENDBRANCH   4  11
BRANCH   1  25
HETATM   25  O1  UNL     1      18.397   0.592  50.173  1.00  0.00    -0.348 OA
BRANCH  25  26
HETATM   26  C3  UNL     1      18.524   1.823  49.542  1.00  0.00     0.175 C 
BRANCH  26  27
HETATM   27  C2  UNL     1      17.940   2.831  50.542  1.00  0.00     0.022 C 
HETATM   28  C1  UNL     1      17.855   4.216  49.975  1.00  0.00     0.007 C 
ENDBRANCH  26  27
ENDBRANCH  25  26
ENDBRANCH   1  25
BRANCH  10  29
HETATM   29  O3  UNL     1      16.958  -0.746  52.032  1.00  0.00    -0.353 OA
HETATM   30  C23 UNL     1      15.948   0.043  52.581  1.00  0.00     0.210 C 
ENDBRANCH  10  29
TORSDOF 6
ENDMDL
