MODEL 1
REMARK VINA RESULT:      -7.0      0.000      0.000
REMARK  8 active torsions:
REMARK  status: ('A' for Active; 'I' for Inactive)
REMARK    1  A    between atoms: O1_2  and  C2_3 
REMARK    2  A    between atoms: C2_3  and  C3_4 
REMARK    3  A    between atoms: C3_4  and  C4_5 
REMARK    4  A    between atoms: C7_8  and  O2_9 
REMARK    5  A    between atoms: C10_14  and  N2_15 
REMARK    6  A    between atoms: N2_15  and  C11_16 
REMARK    7  A    between atoms: C13_18  and  O3_19 
REMARK    8  A    between atoms: C16_22  and  O4_23 
ROOT
HETATM    1  C4  UNL     1      25.486   1.992  52.058  1.00  0.00     0.006 C 
HETATM    2  C5  UNL     1      24.777   0.997  52.815  1.00  0.00     0.165 A 
HETATM    3  C6  UNL     1      24.438  -0.012  53.652  1.00  0.00     0.316 A 
HETATM    4  C7  UNL     1      22.919  -0.072  53.573  1.00  0.00     0.369 A 
HETATM    5  C9  UNL     1      22.701   0.897  52.416  1.00  0.00     0.286 A 
HETATM    6  N1  UNL     1      23.550   0.394  53.084  1.00  0.00     0.030 N 
HETATM    7  S1  UNL     1      23.028   2.056  51.091  1.00  0.00    -0.091 SA
HETATM    8  C10 UNL     1      24.623   2.902  51.289  1.00  0.00     0.182 C 
ENDROOT
BRANCH   8   9
HETATM    9  N2  UNL     1      25.136   3.079  49.924  1.00  0.00    -0.372 N 
HETATM   10  H13 UNL     1      24.988   2.269  49.247  1.00  0.00     0.161 HD
BRANCH   9  11
HETATM   11  C11 UNL     1      25.807   4.238  49.438  1.00  0.00     0.034 A 
HETATM   12  C12 UNL     1      25.145   5.452  49.346  1.00  0.00     0.066 A 
HETATM   13  C13 UNL     1      25.860   6.531  48.870  1.00  0.00     0.073 A 
HETATM   14  C15 UNL     1      27.183   6.428  48.493  1.00  0.00     0.073 A 
HETATM   15  C16 UNL     1      27.849   5.226  48.581  1.00  0.00     0.073 A 
HETATM   16  C18 UNL     1      27.130   4.143  49.059  1.00  0.00     0.066 A 
BRANCH  13  17
HETATM   17  O3  UNL     1      25.267   7.779  48.749  1.00  0.00    -0.356 OA
HETATM   18  C14 UNL     1      24.694   8.473  49.829  1.00  0.00     0.210 C 
ENDBRANCH  13  17
BRANCH  15  19
HETATM   19  O4  UNL     1      29.169   4.995  48.235  1.00  0.00    -0.356 OA
HETATM   20  C17 UNL     1      30.148   5.992  48.059  1.00  0.00     0.210 C 
ENDBRANCH  15  19
ENDBRANCH   9  11
ENDBRANCH   8   9
BRANCH   1  21
HETATM   21  C3  UNL     1      26.736   1.763  52.305  1.00  0.00     0.011 C 
BRANCH  21  22
HETATM   22  C2  UNL     1      27.999   1.687  53.021  1.00  0.00     0.195 C 
BRANCH  22  23
HETATM   23  O1  UNL     1      27.833   1.585  54.407  1.00  0.00    -0.392 OA
HETATM   24  C1  UNL     1      28.172   0.275  54.734  1.00  0.00     0.201 C 
ENDBRANCH  22  23
ENDBRANCH  21  22
ENDBRANCH   1  21
BRANCH   4  25
HETATM   25  O2  UNL     1      22.460  -1.332  53.194  1.00  0.00    -0.362 OA
HETATM   26  C8  UNL     1      21.587  -1.743  54.227  1.00  0.00     0.204 C 
ENDBRANCH   4  25
TORSDOF 8
ENDMDL
MODEL 2
REMARK VINA RESULT:      -6.9      0.212      2.439
REMARK  8 active torsions:
REMARK  status: ('A' for Active; 'I' for Inactive)
REMARK    1  A    between atoms: O1_2  and  C2_3 
REMARK    2  A    between atoms: C2_3  and  C3_4 
REMARK    3  A    between atoms: C3_4  and  C4_5 
REMARK    4  A    between atoms: C7_8  and  O2_9 
REMARK    5  A    between atoms: C10_14  and  N2_15 
REMARK    6  A    between atoms: N2_15  and  C11_16 
REMARK    7  A    between atoms: C13_18  and  O3_19 
REMARK    8  A    between atoms: C16_22  and  O4_23 
ROOT
HETATM    1  C4  UNL     1      25.385   2.240  51.959  1.00  0.00     0.006 C 
HETATM    2  C5  UNL     1      24.712   1.227  52.723  1.00  0.00     0.165 A 
HETATM    3  C6  UNL     1      24.406   0.222  53.578  1.00  0.00     0.316 A 
HETATM    4  C7  UNL     1      22.895   0.076  53.463  1.00  0.00     0.369 A 
HETATM    5  C9  UNL     1      22.655   1.002  52.276  1.00  0.00     0.286 A 
HETATM    6  N1  UNL     1      23.513   0.564  52.978  1.00  0.00     0.030 N 
HETATM    7  S1  UNL     1      22.953   2.144  50.929  1.00  0.00    -0.091 SA
HETATM    8  C10 UNL     1      24.494   3.081  51.144  1.00  0.00     0.182 C 
ENDROOT
BRANCH   8   9
HETATM    9  N2  UNL     1      25.032   3.252  49.788  1.00  0.00    -0.372 N 
HETATM   10  H13 UNL     1      24.789   2.497  49.077  1.00  0.00     0.161 HD
BRANCH   9  11
HETATM   11  C11 UNL     1      25.845   4.339  49.354  1.00  0.00     0.034 A 
HETATM   12  C12 UNL     1      27.168   4.134  48.996  1.00  0.00     0.066 A 
HETATM   13  C13 UNL     1      27.892   5.233  48.582  1.00  0.00     0.073 A 
HETATM   14  C15 UNL     1      27.341   6.495  48.522  1.00  0.00     0.073 A 
HETATM   15  C16 UNL     1      26.028   6.710  48.876  1.00  0.00     0.073 A 
HETATM   16  C18 UNL     1      25.302   5.606  49.291  1.00  0.00     0.066 A 
BRANCH  13  17
HETATM   17  O3  UNL     1      29.222   5.107  48.208  1.00  0.00    -0.356 OA
HETATM   18  C14 UNL     1      30.139   6.170  48.240  1.00  0.00     0.210 C 
ENDBRANCH  13  17
BRANCH  15  19
HETATM   19  O4  UNL     1      25.362   7.923  48.859  1.00  0.00    -0.356 OA
HETATM   20  C17 UNL     1      24.500   8.389  49.870  1.00  0.00     0.210 C 
ENDBRANCH  15  19
ENDBRANCH   9  11
ENDBRANCH   8   9
BRANCH   1  21
HETATM   21  C3  UNL     1      26.638   2.087  52.242  1.00  0.00     0.011 C 
BRANCH  21  22
HETATM   22  C2  UNL     1      27.845   1.616  52.902  1.00  0.00     0.195 C 
BRANCH  22  23
HETATM   23  O1  UNL     1      27.719   1.563  54.295  1.00  0.00    -0.392 OA
HETATM   24  C1  UNL     1      27.934   0.233  54.645  1.00  0.00     0.201 C 
ENDBRANCH  22  23
ENDBRANCH  21  22
ENDBRANCH   1  21
BRANCH   4  25
HETATM   25  O2  UNL     1      22.515  -1.217  53.106  1.00  0.00    -0.362 OA
HETATM   26  C8  UNL     1      21.629  -1.644  54.120  1.00  0.00     0.204 C 
ENDBRANCH   4  25
TORSDOF 8
ENDMDL
MODEL 3
REMARK VINA RESULT:      -6.7      1.896      7.705
REMARK  8 active torsions:
REMARK  status: ('A' for Active; 'I' for Inactive)
REMARK    1  A    between atoms: O1_2  and  C2_3 
REMARK    2  A    between atoms: C2_3  and  C3_4 
REMARK    3  A    between atoms: C3_4  and  C4_5 
REMARK    4  A    between atoms: C7_8  and  O2_9 
REMARK    5  A    between atoms: C10_14  and  N2_15 
REMARK    6  A    between atoms: N2_15  and  C11_16 
REMARK    7  A    between atoms: C13_18  and  O3_19 
REMARK    8  A    between atoms: C16_22  and  O4_23 
ROOT
HETATM    1  C4  UNL     1      24.623   1.897  51.584  1.00  0.00     0.006 C 
HETATM    2  C5  UNL     1      25.486   2.781  50.851  1.00  0.00     0.165 A 
HETATM    3  C6  UNL     1      26.555   3.443  50.346  1.00  0.00     0.316 A 
HETATM    4  C7  UNL     1      25.963   4.358  49.282  1.00  0.00     0.369 A 
HETATM    5  C9  UNL     1      24.483   4.146  49.582  1.00  0.00     0.286 A 
HETATM    6  N1  UNL     1      25.576   3.824  49.931  1.00  0.00     0.030 N 
HETATM    7  S1  UNL     1      22.975   3.546  50.339  1.00  0.00    -0.091 SA
HETATM    8  C10 UNL     1      23.209   1.953  51.180  1.00  0.00     0.182 C 
ENDROOT
BRANCH   8   9
HETATM    9  N2  UNL     1      22.332   2.008  52.357  1.00  0.00    -0.372 N 
HETATM   10  H13 UNL     1      22.235   2.952  52.840  1.00  0.00     0.161 HD
BRANCH   9  11
HETATM   11  C11 UNL     1      21.605   0.907  52.896  1.00  0.00     0.034 A 
HETATM   12  C12 UNL     1      20.313   0.637  52.473  1.00  0.00     0.066 A 
HETATM   13  C13 UNL     1      19.673  -0.447  53.037  1.00  0.00     0.073 A 
HETATM   14  C15 UNL     1      20.276  -1.243  53.988  1.00  0.00     0.073 A 
HETATM   15  C16 UNL     1      21.559  -0.983  54.415  1.00  0.00     0.073 A 
HETATM   16  C18 UNL     1      22.201   0.105  53.848  1.00  0.00     0.066 A 
BRANCH  13  17
HETATM   17  O3  UNL     1      18.379  -0.781  52.665  1.00  0.00    -0.356 OA
HETATM   18  C14 UNL     1      17.625  -1.782  53.299  1.00  0.00     0.210 C 
ENDBRANCH  13  17
BRANCH  15  19
HETATM   19  O4  UNL     1      22.270  -1.704  55.359  1.00  0.00    -0.356 OA
HETATM   20  C17 UNL     1      23.612  -1.469  55.715  1.00  0.00     0.210 C 
ENDBRANCH  15  19
ENDBRANCH   9  11
ENDBRANCH   8   9
BRANCH   1  21
HETATM   21  C3  UNL     1      25.405   1.292  52.419  1.00  0.00     0.011 C 
BRANCH  21  22
HETATM   22  C2  UNL     1      26.067   0.937  53.663  1.00  0.00     0.195 C 
BRANCH  22  23
HETATM   23  O1  UNL     1      26.798   1.997  54.213  1.00  0.00    -0.392 OA
HETATM   24  C1  UNL     1      27.997   2.037  53.506  1.00  0.00     0.201 C 
ENDBRANCH  22  23
ENDBRANCH  21  22
ENDBRANCH   1  21
BRANCH   4  25
HETATM   25  O2  UNL     1      26.277   5.697  49.505  1.00  0.00    -0.362 OA
HETATM   26  C8  UNL     1      27.103   6.076  48.423  1.00  0.00     0.204 C 
ENDBRANCH   4  25
TORSDOF 8
ENDMDL
MODEL 4
REMARK VINA RESULT:      -6.7      3.377      5.778
REMARK  8 active torsions:
REMARK  status: ('A' for Active; 'I' for Inactive)
REMARK    1  A    between atoms: O1_2  and  C2_3 
REMARK    2  A    between atoms: C2_3  and  C3_4 
REMARK    3  A    between atoms: C3_4  and  C4_5 
REMARK    4  A    between atoms: C7_8  and  O2_9 
REMARK    5  A    between atoms: C10_14  and  N2_15 
REMARK    6  A    between atoms: N2_15  and  C11_16 
REMARK    7  A    between atoms: C13_18  and  O3_19 
REMARK    8  A    between atoms: C16_22  and  O4_23 
ROOT
HETATM    1  C4  UNL     1      24.315   0.637  52.740  1.00  0.00     0.006 C 
HETATM    2  C5  UNL     1      25.431  -0.228  53.011  1.00  0.00     0.165 A 
HETATM    3  C6  UNL     1      26.223  -1.264  53.377  1.00  0.00     0.316 A 
HETATM    4  C7  UNL     1      27.625  -0.827  52.974  1.00  0.00     0.369 A 
HETATM    5  C9  UNL     1      27.327   0.622  52.605  1.00  0.00     0.286 A 
HETATM    6  N1  UNL     1      26.817  -0.379  53.003  1.00  0.00     0.030 N 
HETATM    7  S1  UNL     1      26.440   2.152  52.325  1.00  0.00    -0.091 SA
HETATM    8  C10 UNL     1      24.667   1.883  52.042  1.00  0.00     0.182 C 
ENDROOT
BRANCH   8   9
HETATM    9  N2  UNL     1      23.999   3.035  52.662  1.00  0.00    -0.372 N 
HETATM   10  H13 UNL     1      24.361   3.343  53.616  1.00  0.00     0.161 HD
BRANCH   9  11
HETATM   11  C11 UNL     1      22.917   3.766  52.093  1.00  0.00     0.034 A 
HETATM   12  C12 UNL     1      23.152   4.904  51.337  1.00  0.00     0.066 A 
HETATM   13  C13 UNL     1      22.056   5.559  50.815  1.00  0.00     0.073 A 
HETATM   14  C15 UNL     1      20.767   5.117  51.026  1.00  0.00     0.073 A 
HETATM   15  C16 UNL     1      20.523   3.989  51.776  1.00  0.00     0.073 A 
HETATM   16  C18 UNL     1      21.624   3.332  52.299  1.00  0.00     0.066 A 
BRANCH  13  17
HETATM   17  O3  UNL     1      22.211   6.704  50.047  1.00  0.00    -0.356 OA
HETATM   18  C14 UNL     1      23.080   7.754  50.389  1.00  0.00     0.210 C 
ENDBRANCH  13  17
BRANCH  15  19
HETATM   19  O4  UNL     1      19.281   3.446  52.059  1.00  0.00    -0.356 OA
HETATM   20  C17 UNL     1      18.812   2.205  51.587  1.00  0.00     0.210 C 
ENDBRANCH  15  19
ENDBRANCH   9  11
ENDBRANCH   8   9
BRANCH   1  21
HETATM   21  C3  UNL     1      23.291   0.011  53.224  1.00  0.00     0.011 C 
BRANCH  21  22
HETATM   22  C2  UNL     1      22.328  -1.048  53.480  1.00  0.00     0.195 C 
BRANCH  22  23
HETATM   23  O1  UNL     1      21.566  -0.823  54.633  1.00  0.00    -0.392 OA
HETATM   24  C1  UNL     1      20.767   0.282  54.349  1.00  0.00     0.201 C 
ENDBRANCH  22  23
ENDBRANCH  21  22
ENDBRANCH   1  21
BRANCH   4  25
HETATM   25  O2  UNL     1      28.511  -0.841  54.050  1.00  0.00    -0.362 OA
HETATM   26  C8  UNL     1      29.711  -1.388  53.543  1.00  0.00     0.204 C 
ENDBRANCH   4  25
TORSDOF 8
ENDMDL
MODEL 5
REMARK VINA RESULT:      -6.6      3.286      6.471
REMARK  8 active torsions:
REMARK  status: ('A' for Active; 'I' for Inactive)
REMARK    1  A    between atoms: O1_2  and  C2_3 
REMARK    2  A    between atoms: C2_3  and  C3_4 
REMARK    3  A    between atoms: C3_4  and  C4_5 
REMARK    4  A    between atoms: C7_8  and  O2_9 
REMARK    5  A    between atoms: C10_14  and  N2_15 
REMARK    6  A    between atoms: N2_15  and  C11_16 
REMARK    7  A    between atoms: C13_18  and  O3_19 
REMARK    8  A    between atoms: C16_22  and  O4_23 
ROOT
HETATM    1  C4  UNL     1      21.435   0.473  51.552  1.00  0.00     0.006 C 
HETATM    2  C5  UNL     1      20.019   0.225  51.530  1.00  0.00     0.165 A 
HETATM    3  C6  UNL     1      18.706   0.173  51.202  1.00  0.00     0.316 A 
HETATM    4  C7  UNL     1      18.081  -0.696  52.284  1.00  0.00     0.369 A 
HETATM    5  C9  UNL     1      19.276  -0.802  53.225  1.00  0.00     0.286 A 
HETATM    6  N1  UNL     1      18.923  -0.324  52.193  1.00  0.00     0.030 N 
HETATM    7  S1  UNL     1      20.916  -0.594  53.913  1.00  0.00    -0.091 SA
HETATM    8  C10 UNL     1      22.154  -0.201  52.644  1.00  0.00     0.182 C 
ENDROOT
BRANCH   8   9
HETATM    9  N2  UNL     1      23.094   0.721  53.296  1.00  0.00    -0.372 N 
HETATM   10  H13 UNL     1      22.679   1.425  53.981  1.00  0.00     0.161 HD
BRANCH   9  11
HETATM   11  C11 UNL     1      24.503   0.746  53.089  1.00  0.00     0.034 A 
HETATM   12  C12 UNL     1      25.353   0.031  53.919  1.00  0.00     0.066 A 
HETATM   13  C13 UNL     1      26.705   0.100  53.656  1.00  0.00     0.073 A 
HETATM   14  C15 UNL     1      27.214   0.847  52.614  1.00  0.00     0.073 A 
HETATM   15  C16 UNL     1      26.378   1.561  51.785  1.00  0.00     0.073 A 
HETATM   16  C18 UNL     1      25.021   1.491  52.050  1.00  0.00     0.066 A 
BRANCH  13  17
HETATM   17  O3  UNL     1      27.618  -0.588  54.441  1.00  0.00    -0.356 OA
HETATM   18  C14 UNL     1      28.979  -0.251  54.523  1.00  0.00     0.210 C 
ENDBRANCH  13  17
BRANCH  15  19
HETATM   19  O4  UNL     1      26.764   2.344  50.711  1.00  0.00    -0.356 OA
HETATM   20  C17 UNL     1      26.027   3.426  50.191  1.00  0.00     0.210 C 
ENDBRANCH  15  19
ENDBRANCH   9  11
ENDBRANCH   8   9
BRANCH   1  21
HETATM   21  C3  UNL     1      21.646   1.257  50.544  1.00  0.00     0.011 C 
BRANCH  21  22
HETATM   22  C2  UNL     1      22.154   1.748  49.273  1.00  0.00     0.195 C 
BRANCH  22  23
HETATM   23  O1  UNL     1      21.269   1.525  48.211  1.00  0.00    -0.392 OA
HETATM   24  C1  UNL     1      20.991   2.781  47.680  1.00  0.00     0.201 C 
ENDBRANCH  22  23
ENDBRANCH  21  22
ENDBRANCH   1  21
BRANCH   4  25
HETATM   25  O2  UNL     1      17.044  -0.045  52.950  1.00  0.00    -0.362 OA
HETATM   26  C8  UNL     1      15.868  -0.737  52.584  1.00  0.00     0.204 C 
ENDBRANCH   4  25
TORSDOF 8
ENDMDL
MODEL 6
REMARK VINA RESULT:      -6.6      3.135      5.082
REMARK  8 active torsions:
REMARK  status: ('A' for Active; 'I' for Inactive)
REMARK    1  A    between atoms: O1_2  and  C2_3 
REMARK    2  A    between atoms: C2_3  and  C3_4 
REMARK    3  A    between atoms: C3_4  and  C4_5 
REMARK    4  A    between atoms: C7_8  and  O2_9 
REMARK    5  A    between atoms: C10_14  and  N2_15 
REMARK    6  A    between atoms: N2_15  and  C11_16 
REMARK    7  A    between atoms: C13_18  and  O3_19 
REMARK    8  A    between atoms: C16_22  and  O4_23 
ROOT
HETATM    1  C4  UNL     1      24.381   1.213  52.588  1.00  0.00     0.006 C 
HETATM    2  C5  UNL     1      25.325   0.169  52.876  1.00  0.00     0.165 A 
HETATM    3  C6  UNL     1      25.921  -0.984  53.266  1.00  0.00     0.316 A 
HETATM    4  C7  UNL     1      27.374  -0.819  52.841  1.00  0.00     0.369 A 
HETATM    5  C9  UNL     1      27.338   0.649  52.432  1.00  0.00     0.286 A 
HETATM    6  N1  UNL     1      26.660  -0.231  52.863  1.00  0.00     0.030 N 
HETATM    7  S1  UNL     1      26.739   2.307  52.114  1.00  0.00    -0.091 SA
HETATM    8  C10 UNL     1      24.943   2.355  51.851  1.00  0.00     0.182 C 
ENDROOT
BRANCH   8   9
HETATM    9  N2  UNL     1      24.502   3.626  52.443  1.00  0.00    -0.372 N 
HETATM   10  H13 UNL     1      24.962   3.913  53.360  1.00  0.00     0.161 HD
BRANCH   9  11
HETATM   11  C11 UNL     1      23.518   4.496  51.890  1.00  0.00     0.034 A 
HETATM   12  C12 UNL     1      22.213   4.066  51.713  1.00  0.00     0.066 A 
HETATM   13  C13 UNL     1      21.315   4.964  51.175  1.00  0.00     0.073 A 
HETATM   14  C15 UNL     1      21.681   6.245  50.819  1.00  0.00     0.073 A 
HETATM   15  C16 UNL     1      22.976   6.682  50.990  1.00  0.00     0.073 A 
HETATM   16  C18 UNL     1      23.876   5.779  51.531  1.00  0.00     0.066 A 
BRANCH  13  17
HETATM   17  O3  UNL     1      19.990   4.608  50.968  1.00  0.00    -0.356 OA
HETATM   18  C14 UNL     1      19.385   3.492  51.569  1.00  0.00     0.210 C 
ENDBRANCH  13  17
BRANCH  15  19
HETATM   19  O4  UNL     1      23.466   7.937  50.674  1.00  0.00    -0.356 OA
HETATM   20  C17 UNL     1      23.551   8.469  49.373  1.00  0.00     0.210 C 
ENDBRANCH  15  19
ENDBRANCH   9  11
ENDBRANCH   8   9
BRANCH   1  21
HETATM   21  C3  UNL     1      23.266   0.797  53.097  1.00  0.00     0.011 C 
BRANCH  21  22
HETATM   22  C2  UNL     1      22.003   0.089  53.236  1.00  0.00     0.195 C 
BRANCH  22  23
HETATM   23  O1  UNL     1      22.170  -1.259  53.574  1.00  0.00    -0.392 OA
HETATM   24  C1  UNL     1      22.404  -1.279  54.947  1.00  0.00     0.201 C 
ENDBRANCH  22  23
ENDBRANCH  21  22
ENDBRANCH   1  21
BRANCH   4  25
HETATM   25  O2  UNL     1      28.256  -0.964  53.911  1.00  0.00    -0.362 OA
HETATM   26  C8  UNL     1      29.358  -1.683  53.396  1.00  0.00     0.204 C 
ENDBRANCH   4  25
TORSDOF 8
ENDMDL
MODEL 7
REMARK VINA RESULT:      -6.6      1.736      7.448
REMARK  8 active torsions:
REMARK  status: ('A' for Active; 'I' for Inactive)
REMARK    1  A    between atoms: O1_2  and  C2_3 
REMARK    2  A    between atoms: C2_3  and  C3_4 
REMARK    3  A    between atoms: C3_4  and  C4_5 
REMARK    4  A    between atoms: C7_8  and  O2_9 
REMARK    5  A    between atoms: C10_14  and  N2_15 
REMARK    6  A    between atoms: N2_15  and  C11_16 
REMARK    7  A    between atoms: C13_18  and  O3_19 
REMARK    8  A    between atoms: C16_22  and  O4_23 
ROOT
HETATM    1  C4  UNL     1      26.437   4.393  49.424  1.00  0.00     0.006 C 
HETATM    2  C5  UNL     1      25.524   5.400  48.959  1.00  0.00     0.165 A 
HETATM    3  C6  UNL     1      24.947   6.447  48.321  1.00  0.00     0.316 A 
HETATM    4  C7  UNL     1      23.498   6.420  48.790  1.00  0.00     0.369 A 
HETATM    5  C9  UNL     1      23.620   5.362  49.881  1.00  0.00     0.286 A 
HETATM    6  N1  UNL     1      24.250   5.955  49.062  1.00  0.00     0.030 N 
HETATM    7  S1  UNL     1      24.316   4.130  50.978  1.00  0.00    -0.091 SA
HETATM    8  C10 UNL     1      25.832   3.387  50.311  1.00  0.00     0.182 C 
ENDROOT
BRANCH   8   9
HETATM    9  N2  UNL     1      26.687   3.140  51.481  1.00  0.00    -0.372 N 
HETATM   10  H13 UNL     1      27.323   3.939  51.787  1.00  0.00     0.161 HD
BRANCH   9  11
HETATM   11  C11 UNL     1      26.730   1.930  52.231  1.00  0.00     0.034 A 
HETATM   12  C12 UNL     1      27.892   1.540  52.879  1.00  0.00     0.066 A 
HETATM   13  C13 UNL     1      27.858   0.358  53.589  1.00  0.00     0.073 A 
HETATM   14  C15 UNL     1      26.723  -0.422  53.663  1.00  0.00     0.073 A 
HETATM   15  C16 UNL     1      25.564  -0.044  53.023  1.00  0.00     0.073 A 
HETATM   16  C18 UNL     1      25.599   1.144  52.311  1.00  0.00     0.066 A 
BRANCH  13  17
HETATM   17  O3  UNL     1      28.981  -0.098  54.263  1.00  0.00    -0.356 OA
HETATM   18  C14 UNL     1      29.929  -0.963  53.693  1.00  0.00     0.210 C 
ENDBRANCH  13  17
BRANCH  15  19
HETATM   19  O4  UNL     1      24.366  -0.736  53.022  1.00  0.00    -0.356 OA
HETATM   20  C17 UNL     1      23.318  -0.545  53.944  1.00  0.00     0.210 C 
ENDBRANCH  15  19
ENDBRANCH   9  11
ENDBRANCH   8   9
BRANCH   1  21
HETATM   21  C3  UNL     1      27.572   4.705  48.886  1.00  0.00     0.011 C 
BRANCH  21  22
HETATM   22  C2  UNL     1      28.613   5.490  48.242  1.00  0.00     0.195 C 
BRANCH  22  23
HETATM   23  O1  UNL     1      29.874   5.299  48.819  1.00  0.00    -0.392 OA
HETATM   24  C1  UNL     1      30.790   5.430  47.779  1.00  0.00     0.201 C 
ENDBRANCH  22  23
ENDBRANCH  21  22
ENDBRANCH   1  21
BRANCH   4  25
HETATM   25  O2  UNL     1      23.112   7.625  49.377  1.00  0.00    -0.362 OA
HETATM   26  C8  UNL     1      21.972   8.047  48.656  1.00  0.00     0.204 C 
ENDBRANCH   4  25
TORSDOF 8
ENDMDL
MODEL 8
REMARK VINA RESULT:      -6.3      1.804      7.386
REMARK  8 active torsions:
REMARK  status: ('A' for Active; 'I' for Inactive)
REMARK    1  A    between atoms: O1_2  and  C2_3 
REMARK    2  A    between atoms: C2_3  and  C3_4 
REMARK    3  A    between atoms: C3_4  and  C4_5 
REMARK    4  A    between atoms: C7_8  and  O2_9 
REMARK    5  A    between atoms: C10_14  and  N2_15 
REMARK    6  A    between atoms: N2_15  and  C11_16 
REMARK    7  A    between atoms: C13_18  and  O3_19 
REMARK    8  A    between atoms: C16_22  and  O4_23 
ROOT
HETATM    1  C4  UNL     1      27.054   4.973  48.896  1.00  0.00     0.006 C 
HETATM    2  C5  UNL     1      26.465   6.201  48.436  1.00  0.00     0.165 A 
HETATM    3  C6  UNL     1      26.234   7.400  47.852  1.00  0.00     0.316 A 
HETATM    4  C7  UNL     1      24.764   7.680  48.135  1.00  0.00     0.369 A 
HETATM    5  C9  UNL     1      24.488   6.540  49.109  1.00  0.00     0.286 A 
HETATM    6  N1  UNL     1      25.346   7.030  48.444  1.00  0.00     0.030 N 
HETATM    7  S1  UNL     1      24.726   5.097  50.142  1.00  0.00    -0.091 SA
HETATM    8  C10 UNL     1      26.118   4.071  49.587  1.00  0.00     0.182 C 
ENDROOT
BRANCH   8   9
HETATM    9  N2  UNL     1      26.719   3.540  50.818  1.00  0.00    -0.372 N 
HETATM   10  H13 UNL     1      27.596   4.029  51.174  1.00  0.00     0.161 HD
BRANCH   9  11
HETATM   11  C11 UNL     1      26.224   2.433  51.566  1.00  0.00     0.034 A 
HETATM   12  C12 UNL     1      24.893   2.058  51.479  1.00  0.00     0.066 A 
HETATM   13  C13 UNL     1      24.486   0.975  52.230  1.00  0.00     0.073 A 
HETATM   14  C15 UNL     1      25.354   0.278  53.043  1.00  0.00     0.073 A 
HETATM   15  C16 UNL     1      26.679   0.642  53.138  1.00  0.00     0.073 A 
HETATM   16  C18 UNL     1      27.086   1.730  52.383  1.00  0.00     0.066 A 
BRANCH  13  17
HETATM   17  O3  UNL     1      23.170   0.540  52.195  1.00  0.00    -0.356 OA
HETATM   18  C14 UNL     1      22.169   1.028  53.052  1.00  0.00     0.210 C 
ENDBRANCH  13  17
BRANCH  15  19
HETATM   19  O4  UNL     1      27.644   0.026  53.915  1.00  0.00    -0.356 OA
HETATM   20  C17 UNL     1      28.805  -0.598  53.420  1.00  0.00     0.210 C 
ENDBRANCH  15  19
ENDBRANCH   9  11
ENDBRANCH   8   9
BRANCH   1  21
HETATM   21  C3  UNL     1      28.295   5.050  48.539  1.00  0.00     0.011 C 
BRANCH  21  22
HETATM   22  C2  UNL     1      29.535   5.587  48.001  1.00  0.00     0.195 C 
BRANCH  22  23
HETATM   23  O1  UNL     1      30.644   5.305  48.807  1.00  0.00    -0.392 OA
HETATM   24  C1  UNL     1      31.269   6.528  49.033  1.00  0.00     0.201 C 
ENDBRANCH  22  23
ENDBRANCH  21  22
ENDBRANCH   1  21
BRANCH   4  25
HETATM   25  O2  UNL     1      24.575   8.891  48.798  1.00  0.00    -0.362 OA
HETATM   26  C8  UNL     1      23.727   9.651  47.963  1.00  0.00     0.204 C 
ENDBRANCH   4  25
TORSDOF 8
ENDMDL
MODEL 9
REMARK VINA RESULT:      -6.3      1.814      3.275
REMARK  8 active torsions:
REMARK  status: ('A' for Active; 'I' for Inactive)
REMARK    1  A    between atoms: O1_2  and  C2_3 
REMARK    2  A    between atoms: C2_3  and  C3_4 
REMARK    3  A    between atoms: C3_4  and  C4_5 
REMARK    4  A    between atoms: C7_8  and  O2_9 
REMARK    5  A    between atoms: C10_14  and  N2_15 
REMARK    6  A    between atoms: N2_15  and  C11_16 
REMARK    7  A    between atoms: C13_18  and  O3_19 
REMARK    8  A    between atoms: C16_22  and  O4_23 
ROOT
HETATM    1  C4  UNL     1      23.812   0.628  52.583  1.00  0.00     0.006 C 
HETATM    2  C5  UNL     1      22.561   0.034  52.969  1.00  0.00     0.165 A 
HETATM    3  C6  UNL     1      21.599  -0.779  53.465  1.00  0.00     0.316 A 
HETATM    4  C7  UNL     1      20.302  -0.019  53.221  1.00  0.00     0.369 A 
HETATM    5  C9  UNL     1      20.846   1.109  52.352  1.00  0.00     0.286 A 
HETATM    6  N1  UNL     1      21.171   0.126  52.941  1.00  0.00     0.030 N 
HETATM    7  S1  UNL     1      21.980   2.141  51.428  1.00  0.00    -0.091 SA
HETATM    8  C10 UNL     1      23.694   1.975  52.005  1.00  0.00     0.182 C 
ENDROOT
BRANCH   8   9
HETATM    9  N2  UNL     1      24.520   2.099  50.796  1.00  0.00    -0.372 N 
HETATM   10  H13 UNL     1      24.685   1.209  50.234  1.00  0.00     0.161 HD
BRANCH   9  11
HETATM   11  C11 UNL     1      25.111   3.305  50.321  1.00  0.00     0.034 A 
HETATM   12  C12 UNL     1      26.325   3.283  49.653  1.00  0.00     0.066 A 
HETATM   13  C13 UNL     1      26.835   4.488  49.218  1.00  0.00     0.073 A 
HETATM   14  C15 UNL     1      26.178   5.683  49.431  1.00  0.00     0.073 A 
HETATM   15  C16 UNL     1      24.972   5.716  50.094  1.00  0.00     0.073 A 
HETATM   16  C18 UNL     1      24.461   4.504  50.529  1.00  0.00     0.066 A 
BRANCH  13  17
HETATM   17  O3  UNL     1      28.044   4.547  48.542  1.00  0.00    -0.356 OA
HETATM   18  C14 UNL     1      28.681   5.750  48.196  1.00  0.00     0.210 C 
ENDBRANCH  13  17
BRANCH  15  19
HETATM   19  O4  UNL     1      24.219   6.844  50.368  1.00  0.00    -0.356 OA
HETATM   20  C17 UNL     1      22.876   6.839  50.794  1.00  0.00     0.210 C 
ENDBRANCH  15  19
ENDBRANCH   9  11
ENDBRANCH   8   9
BRANCH   1  21
HETATM   21  C3  UNL     1      24.703  -0.262  52.883  1.00  0.00     0.011 C 
BRANCH  21  22
HETATM   22  C2  UNL     1      25.926  -0.855  53.398  1.00  0.00     0.195 C 
BRANCH  22  23
HETATM   23  O1  UNL     1      26.047  -0.733  54.787  1.00  0.00    -0.392 OA
HETATM   24  C1  UNL     1      26.797   0.420  55.002  1.00  0.00     0.201 C 
ENDBRANCH  22  23
ENDBRANCH  21  22
ENDBRANCH   1  21
BRANCH   4  25
HETATM   25  O2  UNL     1      19.389  -0.761  52.472  1.00  0.00    -0.362 OA
HETATM   26  C8  UNL     1      18.271  -0.945  53.315  1.00  0.00     0.204 C 
ENDBRANCH   4  25
TORSDOF 8
ENDMDL
