MODEL 1
REMARK VINA RESULT:      -8.2      0.000      0.000
REMARK  6 active torsions:
REMARK  status: ('A' for Active; 'I' for Inactive)
REMARK    1  A    between atoms: C2_2  and  C3_3 
REMARK    2  A    between atoms: C2_2  and  C6_7 
REMARK    3  A    between atoms: C3_3  and  N1_4 
REMARK    4  A    between atoms: C6_7  and  C7_9 
REMARK    5  A    between atoms: C15_18  and  C16_19 
REMARK    6  A    between atoms: C16_19  and  O4_21 
ROOT
HETATM    1  C7  UNL     1      24.202  -0.077  53.718  1.00  0.00     0.015 A 
HETATM    2  C8  UNL     1      22.981  -0.670  53.810  1.00  0.00     0.017 A 
HETATM    3  C9  UNL     1      21.816  -0.028  53.330  1.00  0.00     0.021 A 
HETATM    4  C10 UNL     1      21.817   1.249  52.730  1.00  0.00     0.023 A 
HETATM    5  C11 UNL     1      23.064   1.881  52.631  1.00  0.00    -0.006 A 
HETATM    6  C12 UNL     1      24.177   1.186  53.126  1.00  0.00     0.029 A 
HETATM    7  O2  UNL     1      23.619   3.026  52.183  1.00  0.00     0.000 OA
HETATM    8  C13 UNL     1      23.201   4.209  51.770  1.00  0.00     0.026 C 
HETATM    9  C14 UNL     1      23.747   5.337  51.479  1.00  0.00    -0.003 C 
HETATM   10  C15 UNL     1      22.395   5.785  51.200  1.00  0.00     0.031 C 
HETATM   11  C17 UNL     1      21.265   5.137  51.294  1.00  0.00    -0.002 C 
HETATM   12  C18 UNL     1      20.318   4.140  51.515  1.00  0.00     0.036 C 
HETATM   13  C19 UNL     1      19.717   3.024  51.798  1.00  0.00     0.258 C 
HETATM   14  S1  UNL     1      20.059   1.327  52.320  1.00  0.00    -0.047 S 
HETATM   15  O5  UNL     1      19.864   0.327  51.132  1.00  0.00    -0.274 OA
ENDROOT
BRANCH   1  16
HETATM   16  C6  UNL     1      25.452  -0.733  54.116  1.00  0.00     0.186 C 
HETATM   17  O1  UNL     1      25.657  -0.929  55.318  1.00  0.00    -0.287 OA
BRANCH  16  18
HETATM   18  C2  UNL     1      26.444  -1.152  53.167  1.00  0.00    -0.011 C 
HETATM   19  C1  UNL     1      26.901  -2.068  52.347  1.00  0.00     0.044 C 
BRANCH  18  20
HETATM   20  C3  UNL     1      27.471  -0.162  52.729  1.00  0.00     0.154 C 
BRANCH  20  21
HETATM   21  N1  UNL     1      27.873   0.770  53.712  1.00  0.00    -0.417 N 
HETATM   22  C4  UNL     1      27.933   2.140  53.365  1.00  0.00     0.142 C 
HETATM   23  C5  UNL     1      28.948   0.370  54.574  1.00  0.00     0.142 C 
ENDBRANCH  20  21
ENDBRANCH  18  20
ENDBRANCH  16  18
ENDBRANCH   1  16
BRANCH  10  24
HETATM   24  C16 UNL     1      22.084   7.158  50.738  1.00  0.00     0.175 C 
HETATM   25  O3  UNL     1      21.036   7.796  50.403  1.00  0.00    -0.646 OA
BRANCH  24  26
HETATM   26  O4  UNL     1      23.176   7.983  50.637  1.00  0.00    -0.773 OA
HETATM   27  H16 UNL     1      23.971   7.849  50.033  1.00  0.00     0.167 HD
ENDBRANCH  24  26
ENDBRANCH  10  24
TORSDOF 6
ENDMDL
MODEL 2
REMARK VINA RESULT:      -8.2      2.439      5.098
REMARK  6 active torsions:
REMARK  status: ('A' for Active; 'I' for Inactive)
REMARK    1  A    between atoms: C2_2  and  C3_3 
REMARK    2  A    between atoms: C2_2  and  C6_7 
REMARK    3  A    between atoms: C3_3  and  N1_4 
REMARK    4  A    between atoms: C6_7  and  C7_9 
REMARK    5  A    between atoms: C15_18  and  C16_19 
REMARK    6  A    between atoms: C16_19  and  O4_21 
ROOT
HETATM    1  C7  UNL     1      24.205  -0.008  53.203  1.00  0.00     0.015 A 
HETATM    2  C8  UNL     1      24.351   1.122  52.460  1.00  0.00     0.017 A 
HETATM    3  C9  UNL     1      23.230   1.802  51.931  1.00  0.00     0.021 A 
HETATM    4  C10 UNL     1      21.897   1.382  52.123  1.00  0.00     0.023 A 
HETATM    5  C11 UNL     1      21.723   0.216  52.881  1.00  0.00    -0.006 A 
HETATM    6  C12 UNL     1      22.879  -0.407  53.375  1.00  0.00     0.029 A 
HETATM    7  O2  UNL     1      20.745  -0.588  53.347  1.00  0.00     0.000 OA
HETATM    8  C13 UNL     1      19.450  -0.753  53.148  1.00  0.00     0.026 C 
HETATM    9  C14 UNL     1      18.559  -1.615  53.495  1.00  0.00    -0.003 C 
HETATM   10  C15 UNL     1      17.637  -0.791  52.735  1.00  0.00     0.031 C 
HETATM   11  C17 UNL     1      17.858   0.304  52.061  1.00  0.00    -0.002 C 
HETATM   12  C18 UNL     1      18.482   1.404  51.479  1.00  0.00     0.036 C 
HETATM   13  C19 UNL     1      19.341   2.301  51.099  1.00  0.00     0.258 C 
HETATM   14  S1  UNL     1      21.084   2.751  51.269  1.00  0.00    -0.047 S 
HETATM   15  O5  UNL     1      21.253   3.989  52.211  1.00  0.00    -0.274 OA
ENDROOT
BRANCH   1  16
HETATM   16  C6  UNL     1      25.324  -0.702  53.849  1.00  0.00     0.186 C 
HETATM   17  O1  UNL     1      25.284  -0.870  55.072  1.00  0.00    -0.287 OA
BRANCH  16  18
HETATM   18  C2  UNL     1      26.462  -1.186  53.119  1.00  0.00    -0.011 C 
HETATM   19  C1  UNL     1      27.046  -2.159  52.461  1.00  0.00     0.044 C 
BRANCH  18  20
HETATM   20  C3  UNL     1      27.558  -0.227  52.794  1.00  0.00     0.154 C 
BRANCH  20  21
HETATM   21  N1  UNL     1      27.834   0.738  53.788  1.00  0.00    -0.417 N 
HETATM   22  C4  UNL     1      28.033   2.082  53.393  1.00  0.00     0.142 C 
HETATM   23  C5  UNL     1      28.718   0.336  54.845  1.00  0.00     0.142 C 
ENDBRANCH  20  21
ENDBRANCH  18  20
ENDBRANCH  16  18
ENDBRANCH   1  16
BRANCH  10  24
HETATM   24  C16 UNL     1      16.196  -1.113  52.605  1.00  0.00     0.175 C 
HETATM   25  O3  UNL     1      15.498  -1.932  51.928  1.00  0.00    -0.646 OA
BRANCH  24  26
HETATM   26  O4  UNL     1      15.373  -0.360  53.405  1.00  0.00    -0.773 OA
HETATM   27  H16 UNL     1      15.628   0.477  53.903  1.00  0.00     0.167 HD
ENDBRANCH  24  26
ENDBRANCH  10  24
TORSDOF 6
ENDMDL
MODEL 3
REMARK VINA RESULT:      -8.0      2.714      5.070
REMARK  6 active torsions:
REMARK  status: ('A' for Active; 'I' for Inactive)
REMARK    1  A    between atoms: C2_2  and  C3_3 
REMARK    2  A    between atoms: C2_2  and  C6_7 
REMARK    3  A    between atoms: C3_3  and  N1_4 
REMARK    4  A    between atoms: C6_7  and  C7_9 
REMARK    5  A    between atoms: C15_18  and  C16_19 
REMARK    6  A    between atoms: C16_19  and  O4_21 
ROOT
HETATM    1  C7  UNL     1      26.732   1.865  52.722  1.00  0.00     0.015 A 
HETATM    2  C8  UNL     1      26.689   2.467  51.504  1.00  0.00     0.017 A 
HETATM    3  C9  UNL     1      25.480   2.569  50.778  1.00  0.00     0.021 A 
HETATM    4  C10 UNL     1      24.245   2.068  51.240  1.00  0.00     0.023 A 
HETATM    5  C11 UNL     1      24.267   1.437  52.492  1.00  0.00    -0.006 A 
HETATM    6  C12 UNL     1      25.500   1.373  53.157  1.00  0.00     0.029 A 
HETATM    7  O2  UNL     1      23.442   0.817  53.360  1.00  0.00     0.000 OA
HETATM    8  C13 UNL     1      22.211   0.340  53.355  1.00  0.00     0.026 C 
HETATM    9  C14 UNL     1      21.487  -0.373  54.145  1.00  0.00    -0.003 C 
HETATM   10  C15 UNL     1      20.455  -0.233  53.135  1.00  0.00     0.031 C 
HETATM   11  C17 UNL     1      20.490   0.389  51.988  1.00  0.00    -0.002 C 
HETATM   12  C18 UNL     1      20.914   1.136  50.892  1.00  0.00     0.036 C 
HETATM   13  C19 UNL     1      21.602   1.857  50.058  1.00  0.00     0.258 C 
HETATM   14  S1  UNL     1      23.220   2.640  49.867  1.00  0.00    -0.047 S 
HETATM   15  O5  UNL     1      23.114   4.191  50.044  1.00  0.00    -0.274 OA
ENDROOT
BRANCH   1  16
HETATM   16  C6  UNL     1      27.937   1.812  53.557  1.00  0.00     0.186 C 
HETATM   17  O1  UNL     1      28.198   2.783  54.275  1.00  0.00    -0.287 OA
BRANCH  16  18
HETATM   18  C2  UNL     1      28.823   0.683  53.568  1.00  0.00    -0.011 C 
HETATM   19  C1  UNL     1      30.034   0.201  53.414  1.00  0.00     0.044 C 
BRANCH  18  20
HETATM   20  C3  UNL     1      28.294  -0.632  54.036  1.00  0.00     0.154 C 
BRANCH  20  21
HETATM   21  N1  UNL     1      28.118  -1.608  53.030  1.00  0.00    -0.417 N 
HETATM   22  C4  UNL     1      26.821  -1.817  52.506  1.00  0.00     0.142 C 
HETATM   23  C5  UNL     1      28.855  -2.829  53.186  1.00  0.00     0.142 C 
ENDBRANCH  20  21
ENDBRANCH  18  20
ENDBRANCH  16  18
ENDBRANCH   1  16
BRANCH  10  24
HETATM   24  C16 UNL     1      19.107  -0.833  53.276  1.00  0.00     0.175 C 
HETATM   25  O3  UNL     1      17.942  -0.581  52.835  1.00  0.00    -0.646 OA
BRANCH  24  26
HETATM   26  O4  UNL     1      19.065  -1.949  54.075  1.00  0.00    -0.773 OA
HETATM   27  H16 UNL     1      19.812  -2.297  54.653  1.00  0.00     0.167 HD
ENDBRANCH  24  26
ENDBRANCH  10  24
TORSDOF 6
ENDMDL
MODEL 4
REMARK VINA RESULT:      -7.8      3.242      6.819
REMARK  6 active torsions:
REMARK  status: ('A' for Active; 'I' for Inactive)
REMARK    1  A    between atoms: C2_2  and  C3_3 
REMARK    2  A    between atoms: C2_2  and  C6_7 
REMARK    3  A    between atoms: C3_3  and  N1_4 
REMARK    4  A    between atoms: C6_7  and  C7_9 
REMARK    5  A    between atoms: C15_18  and  C16_19 
REMARK    6  A    between atoms: C16_19  and  O4_21 
ROOT
HETATM    1  C7  UNL     1      24.204   2.914  50.527  1.00  0.00     0.015 A 
HETATM    2  C8  UNL     1      25.215   2.581  51.374  1.00  0.00     0.017 A 
HETATM    3  C9  UNL     1      25.043   1.591  52.369  1.00  0.00     0.021 A 
HETATM    4  C10 UNL     1      23.840   0.880  52.566  1.00  0.00     0.023 A 
HETATM    5  C11 UNL     1      22.783   1.212  51.708  1.00  0.00    -0.006 A 
HETATM    6  C12 UNL     1      23.024   2.201  50.743  1.00  0.00     0.029 A 
HETATM    7  O2  UNL     1      21.499   0.880  51.460  1.00  0.00     0.000 OA
HETATM    8  C13 UNL     1      20.547   0.182  52.052  1.00  0.00     0.026 C 
HETATM    9  C14 UNL     1      19.287  -0.010  51.873  1.00  0.00    -0.003 C 
HETATM   10  C15 UNL     1      19.371  -0.867  53.040  1.00  0.00     0.031 C 
HETATM   11  C17 UNL     1      20.399  -1.153  53.793  1.00  0.00    -0.002 C 
HETATM   12  C18 UNL     1      21.685  -1.205  54.324  1.00  0.00     0.036 C 
HETATM   13  C19 UNL     1      22.954  -1.045  54.550  1.00  0.00     0.258 C 
HETATM   14  S1  UNL     1      24.414  -0.211  53.886  1.00  0.00    -0.047 S 
HETATM   15  O5  UNL     1      25.375  -1.234  53.192  1.00  0.00    -0.274 OA
ENDROOT
BRANCH   1  16
HETATM   16  C6  UNL     1      24.356   3.865  49.422  1.00  0.00     0.186 C 
HETATM   17  O1  UNL     1      23.409   4.020  48.645  1.00  0.00    -0.287 OA
BRANCH  16  18
HETATM   18  C2  UNL     1      25.560   4.617  49.206  1.00  0.00    -0.011 C 
HETATM   19  C1  UNL     1      26.856   4.632  49.002  1.00  0.00     0.044 C 
BRANCH  18  20
HETATM   20  C3  UNL     1      25.452   6.093  49.016  1.00  0.00     0.154 C 
BRANCH  20  21
HETATM   21  N1  UNL     1      25.564   6.866  50.194  1.00  0.00    -0.417 N 
HETATM   22  C4  UNL     1      24.439   6.975  51.044  1.00  0.00     0.142 C 
HETATM   23  C5  UNL     1      26.298   8.094  50.088  1.00  0.00     0.142 C 
ENDBRANCH  20  21
ENDBRANCH  18  20
ENDBRANCH  16  18
ENDBRANCH   1  16
BRANCH  10  24
HETATM   24  C16 UNL     1      18.201  -1.592  53.589  1.00  0.00     0.175 C 
HETATM   25  O3  UNL     1      17.940  -2.790  53.923  1.00  0.00    -0.646 OA
BRANCH  24  26
HETATM   26  O4  UNL     1      17.100  -0.803  53.814  1.00  0.00    -0.773 OA
HETATM   27  H16 UNL     1      17.058   0.006  54.413  1.00  0.00     0.167 HD
ENDBRANCH  24  26
ENDBRANCH  10  24
TORSDOF 6
ENDMDL
MODEL 5
REMARK VINA RESULT:      -7.7      4.138      7.601
REMARK  6 active torsions:
REMARK  status: ('A' for Active; 'I' for Inactive)
REMARK    1  A    between atoms: C2_2  and  C3_3 
REMARK    2  A    between atoms: C2_2  and  C6_7 
REMARK    3  A    between atoms: C3_3  and  N1_4 
REMARK    4  A    between atoms: C6_7  and  C7_9 
REMARK    5  A    between atoms: C15_18  and  C16_19 
REMARK    6  A    between atoms: C16_19  and  O4_21 
ROOT
HETATM    1  C7  UNL     1      25.774   5.728  48.823  1.00  0.00     0.015 A 
HETATM    2  C8  UNL     1      24.422   5.849  48.735  1.00  0.00     0.017 A 
HETATM    3  C9  UNL     1      23.560   4.982  49.447  1.00  0.00     0.021 A 
HETATM    4  C10 UNL     1      24.014   3.944  50.287  1.00  0.00     0.023 A 
HETATM    5  C11 UNL     1      25.404   3.798  50.388  1.00  0.00    -0.006 A 
HETATM    6  C12 UNL     1      26.199   4.693  49.657  1.00  0.00     0.029 A 
HETATM    7  O2  UNL     1      26.330   3.030  51.000  1.00  0.00     0.000 OA
HETATM    8  C13 UNL     1      26.354   1.899  51.680  1.00  0.00     0.026 C 
HETATM    9  C14 UNL     1      27.261   1.108  52.137  1.00  0.00    -0.003 C 
HETATM   10  C15 UNL     1      26.152   0.313  52.630  1.00  0.00     0.031 C 
HETATM   11  C17 UNL     1      24.867   0.514  52.520  1.00  0.00    -0.002 C 
HETATM   12  C18 UNL     1      23.630   1.066  52.198  1.00  0.00     0.036 C 
HETATM   13  C19 UNL     1      22.675   1.829  51.757  1.00  0.00     0.258 C 
HETATM   14  S1  UNL     1      22.401   3.383  50.875  1.00  0.00    -0.047 S 
HETATM   15  O5  UNL     1      21.902   4.500  51.851  1.00  0.00    -0.274 OA
ENDROOT
BRANCH   1  16
HETATM   16  C6  UNL     1      26.712   6.655  48.181  1.00  0.00     0.186 C 
HETATM   17  O1  UNL     1      26.260   7.669  47.641  1.00  0.00    -0.287 OA
BRANCH  16  18
HETATM   18  C2  UNL     1      28.130   6.427  48.153  1.00  0.00    -0.011 C 
HETATM   19  C1  UNL     1      29.137   5.591  48.237  1.00  0.00     0.044 C 
BRANCH  18  20
HETATM   20  C3  UNL     1      29.025   7.563  47.783  1.00  0.00     0.154 C 
BRANCH  20  21
HETATM   21  N1  UNL     1      29.576   8.279  48.869  1.00  0.00    -0.417 N 
HETATM   22  C4  UNL     1      28.796   9.288  49.482  1.00  0.00     0.142 C 
HETATM   23  C5  UNL     1      30.961   8.637  48.764  1.00  0.00     0.142 C 
ENDBRANCH  20  21
ENDBRANCH  18  20
ENDBRANCH  16  18
ENDBRANCH   1  16
BRANCH  10  24
HETATM   24  C16 UNL     1      26.343  -0.947  53.387  1.00  0.00     0.175 C 
HETATM   25  O3  UNL     1      27.013  -2.016  53.231  1.00  0.00    -0.646 OA
BRANCH  24  26
HETATM   26  O4  UNL     1      25.639  -1.015  54.563  1.00  0.00    -0.773 OA
HETATM   27  H16 UNL     1      25.303  -0.233  55.103  1.00  0.00     0.167 HD
ENDBRANCH  24  26
ENDBRANCH  10  24
TORSDOF 6
ENDMDL
MODEL 6
REMARK VINA RESULT:      -7.5      3.034      7.017
REMARK  6 active torsions:
REMARK  status: ('A' for Active; 'I' for Inactive)
REMARK    1  A    between atoms: C2_2  and  C3_3 
REMARK    2  A    between atoms: C2_2  and  C6_7 
REMARK    3  A    between atoms: C3_3  and  N1_4 
REMARK    4  A    between atoms: C6_7  and  C7_9 
REMARK    5  A    between atoms: C15_18  and  C16_19 
REMARK    6  A    between atoms: C16_19  and  O4_21 
ROOT
HETATM    1  C7  UNL     1      21.765   1.720  50.058  1.00  0.00     0.015 A 
HETATM    2  C8  UNL     1      20.965   0.796  50.655  1.00  0.00     0.017 A 
HETATM    3  C9  UNL     1      21.388   0.095  51.808  1.00  0.00     0.021 A 
HETATM    4  C10 UNL     1      22.642   0.287  52.425  1.00  0.00     0.023 A 
HETATM    5  C11 UNL     1      23.485   1.231  51.822  1.00  0.00    -0.006 A 
HETATM    6  C12 UNL     1      23.001   1.890  50.682  1.00  0.00     0.029 A 
HETATM    7  O2  UNL     1      24.709   1.780  51.970  1.00  0.00     0.000 OA
HETATM    8  C13 UNL     1      25.797   1.545  52.680  1.00  0.00     0.026 C 
HETATM    9  C14 UNL     1      27.003   1.992  52.708  1.00  0.00    -0.003 C 
HETATM   10  C15 UNL     1      27.202   1.049  53.792  1.00  0.00     0.031 C 
HETATM   11  C17 UNL     1      26.365   0.202  54.326  1.00  0.00    -0.002 C 
HETATM   12  C18 UNL     1      25.217  -0.534  54.610  1.00  0.00     0.036 C 
HETATM   13  C19 UNL     1      24.013  -1.021  54.624  1.00  0.00     0.258 C 
HETATM   14  S1  UNL     1      22.406  -0.841  53.816  1.00  0.00    -0.047 S 
HETATM   15  O5  UNL     1      21.382  -0.128  54.760  1.00  0.00    -0.274 OA
ENDROOT
BRANCH   1  16
HETATM   16  C6  UNL     1      21.342   2.540  48.917  1.00  0.00     0.186 C 
HETATM   17  O1  UNL     1      20.574   2.042  48.089  1.00  0.00    -0.287 OA
BRANCH  16  18
HETATM   18  C2  UNL     1      21.789   3.891  48.726  1.00  0.00    -0.011 C 
HETATM   19  C1  UNL     1      22.588   4.736  48.119  1.00  0.00     0.044 C 
BRANCH  18  20
HETATM   20  C3  UNL     1      21.041   4.990  49.402  1.00  0.00     0.154 C 
BRANCH  20  21
HETATM   21  N1  UNL     1      21.747   5.668  50.421  1.00  0.00    -0.417 N 
HETATM   22  C4  UNL     1      21.831   5.072  51.701  1.00  0.00     0.142 C 
HETATM   23  C5  UNL     1      21.575   7.091  50.483  1.00  0.00     0.142 C 
ENDBRANCH  20  21
ENDBRANCH  18  20
ENDBRANCH  16  18
ENDBRANCH   1  16
BRANCH  10  24
HETATM   24  C16 UNL     1      28.497   0.901  54.499  1.00  0.00     0.175 C 
HETATM   25  O3  UNL     1      29.401   1.685  54.927  1.00  0.00    -0.646 OA
BRANCH  24  26
HETATM   26  O4  UNL     1      28.842  -0.397  54.786  1.00  0.00    -0.773 OA
HETATM   27  H16 UNL     1      29.713  -0.846  54.557  1.00  0.00     0.167 HD
ENDBRANCH  24  26
ENDBRANCH  10  24
TORSDOF 6
ENDMDL
MODEL 7
REMARK VINA RESULT:      -7.2      6.951      9.438
REMARK  6 active torsions:
REMARK  status: ('A' for Active; 'I' for Inactive)
REMARK    1  A    between atoms: C2_2  and  C3_3 
REMARK    2  A    between atoms: C2_2  and  C6_7 
REMARK    3  A    between atoms: C3_3  and  N1_4 
REMARK    4  A    between atoms: C6_7  and  C7_9 
REMARK    5  A    between atoms: C15_18  and  C16_19 
REMARK    6  A    between atoms: C16_19  and  O4_21 
ROOT
HETATM    1  C7  UNL     1      26.468   4.657  49.139  1.00  0.00     0.015 A 
HETATM    2  C8  UNL     1      25.856   5.837  48.850  1.00  0.00     0.017 A 
HETATM    3  C9  UNL     1      26.575   6.918  48.289  1.00  0.00     0.021 A 
HETATM    4  C10 UNL     1      27.952   6.869  47.986  1.00  0.00     0.023 A 
HETATM    5  C11 UNL     1      28.603   5.663  48.280  1.00  0.00    -0.006 A 
HETATM    6  C12 UNL     1      27.829   4.633  48.835  1.00  0.00     0.029 A 
HETATM    7  O2  UNL     1      29.825   5.094  48.208  1.00  0.00     0.000 OA
HETATM    8  C13 UNL     1      31.064   5.486  47.978  1.00  0.00     0.026 C 
HETATM    9  C14 UNL     1      32.235   4.956  48.050  1.00  0.00    -0.003 C 
HETATM   10  C15 UNL     1      32.718   6.249  47.602  1.00  0.00     0.031 C 
HETATM   11  C17 UNL     1      32.053   7.337  47.324  1.00  0.00    -0.002 C 
HETATM   12  C18 UNL     1      31.023   8.253  47.130  1.00  0.00     0.036 C 
HETATM   13  C19 UNL     1      29.866   8.836  47.041  1.00  0.00     0.258 C 
HETATM   14  S1  UNL     1      28.099   8.512  47.251  1.00  0.00    -0.047 S 
HETATM   15  O5  UNL     1      27.381   8.414  45.864  1.00  0.00    -0.274 OA
ENDROOT
BRANCH   1  16
HETATM   16  C6  UNL     1      25.753   3.476  49.636  1.00  0.00     0.186 C 
HETATM   17  O1  UNL     1      26.405   2.582  50.184  1.00  0.00    -0.287 OA
BRANCH  16  18
HETATM   18  C2  UNL     1      24.332   3.318  49.505  1.00  0.00    -0.011 C 
HETATM   19  C1  UNL     1      23.279   3.202  48.731  1.00  0.00     0.044 C 
BRANCH  18  20
HETATM   20  C3  UNL     1      23.527   3.074  50.738  1.00  0.00     0.154 C 
BRANCH  20  21
HETATM   21  N1  UNL     1      23.897   3.842  51.865  1.00  0.00    -0.417 N 
HETATM   22  C4  UNL     1      24.241   3.169  53.061  1.00  0.00     0.142 C 
HETATM   23  C5  UNL     1      23.142   5.039  52.101  1.00  0.00     0.142 C 
ENDBRANCH  20  21
ENDBRANCH  18  20
ENDBRANCH  16  18
ENDBRANCH   1  16
BRANCH  10  24
HETATM   24  C16 UNL     1      34.156   6.537  47.387  1.00  0.00     0.175 C 
HETATM   25  O3  UNL     1      35.234   6.351  48.036  1.00  0.00    -0.646 OA
BRANCH  24  26
HETATM   26  O4  UNL     1      34.438   7.157  46.195  1.00  0.00    -0.773 OA
HETATM   27  H16 UNL     1      33.918   7.912  45.779  1.00  0.00     0.167 HD
ENDBRANCH  24  26
ENDBRANCH  10  24
TORSDOF 6
ENDMDL
MODEL 8
REMARK VINA RESULT:      -7.2      4.624      8.339
REMARK  6 active torsions:
REMARK  status: ('A' for Active; 'I' for Inactive)
REMARK    1  A    between atoms: C2_2  and  C3_3 
REMARK    2  A    between atoms: C2_2  and  C6_7 
REMARK    3  A    between atoms: C3_3  and  N1_4 
REMARK    4  A    between atoms: C6_7  and  C7_9 
REMARK    5  A    between atoms: C15_18  and  C16_19 
REMARK    6  A    between atoms: C16_19  and  O4_21 
ROOT
HETATM    1  C7  UNL     1      18.635  -0.485  52.489  1.00  0.00     0.015 A 
HETATM    2  C8  UNL     1      18.546   0.385  51.447  1.00  0.00     0.017 A 
HETATM    3  C9  UNL     1      19.695   1.027  50.928  1.00  0.00     0.021 A 
HETATM    4  C10 UNL     1      20.998   0.827  51.432  1.00  0.00     0.023 A 
HETATM    5  C11 UNL     1      21.110  -0.061  52.510  1.00  0.00    -0.006 A 
HETATM    6  C12 UNL     1      19.931  -0.663  52.973  1.00  0.00     0.029 A 
HETATM    7  O2  UNL     1      22.041  -0.589  53.331  1.00  0.00     0.000 OA
HETATM    8  C13 UNL     1      23.310  -0.372  53.626  1.00  0.00     0.026 C 
HETATM    9  C14 UNL     1      24.144  -0.793  54.511  1.00  0.00    -0.003 C 
HETATM   10  C15 UNL     1      25.095   0.091  53.862  1.00  0.00     0.031 C 
HETATM   11  C17 UNL     1      24.933   0.886  52.840  1.00  0.00    -0.002 C 
HETATM   12  C18 UNL     1      24.375   1.577  51.769  1.00  0.00     0.036 C 
HETATM   13  C19 UNL     1      23.573   2.036  50.855  1.00  0.00     0.258 C 
HETATM   14  S1  UNL     1      21.879   1.867  50.246  1.00  0.00    -0.047 S 
HETATM   15  O5  UNL     1      21.847   1.077  48.896  1.00  0.00    -0.274 OA
ENDROOT
BRANCH   1  16
HETATM   16  C6  UNL     1      17.492  -1.246  53.006  1.00  0.00     0.186 C 
HETATM   17  O1  UNL     1      17.714  -2.224  53.727  1.00  0.00    -0.287 OA
BRANCH  16  18
HETATM   18  C2  UNL     1      16.131  -0.903  52.703  1.00  0.00    -0.011 C 
HETATM   19  C1  UNL     1      15.118  -0.082  52.850  1.00  0.00     0.044 C 
BRANCH  18  20
HETATM   20  C3  UNL     1      15.401  -1.719  51.690  1.00  0.00     0.154 C 
BRANCH  20  21
HETATM   21  N1  UNL     1      14.430  -2.604  52.209  1.00  0.00    -0.417 N 
HETATM   22  C4  UNL     1      14.854  -3.855  52.716  1.00  0.00     0.142 C 
HETATM   23  C5  UNL     1      13.190  -2.690  51.491  1.00  0.00     0.142 C 
ENDBRANCH  20  21
ENDBRANCH  18  20
ENDBRANCH  16  18
ENDBRANCH   1  16
BRANCH  10  24
HETATM   24  C16 UNL     1      26.501   0.226  54.315  1.00  0.00     0.175 C 
HETATM   25  O3  UNL     1      27.470  -0.564  54.540  1.00  0.00    -0.646 OA
BRANCH  24  26
HETATM   26  O4  UNL     1      26.895   1.518  54.559  1.00  0.00    -0.773 OA
HETATM   27  H16 UNL     1      27.419   1.841  55.356  1.00  0.00     0.167 HD
ENDBRANCH  24  26
ENDBRANCH  10  24
TORSDOF 6
ENDMDL
MODEL 9
REMARK VINA RESULT:      -7.0      4.432      8.744
REMARK  6 active torsions:
REMARK  status: ('A' for Active; 'I' for Inactive)
REMARK    1  A    between atoms: C2_2  and  C3_3 
REMARK    2  A    between atoms: C2_2  and  C6_7 
REMARK    3  A    between atoms: C3_3  and  N1_4 
REMARK    4  A    between atoms: C6_7  and  C7_9 
REMARK    5  A    between atoms: C15_18  and  C16_19 
REMARK    6  A    between atoms: C16_19  and  O4_21 
ROOT
HETATM    1  C7  UNL     1      17.760   0.208  51.763  1.00  0.00     0.015 A 
HETATM    2  C8  UNL     1      18.070   1.037  50.731  1.00  0.00     0.017 A 
HETATM    3  C9  UNL     1      19.411   1.385  50.446  1.00  0.00     0.021 A 
HETATM    4  C10 UNL     1      20.515   0.915  51.188  1.00  0.00     0.023 A 
HETATM    5  C11 UNL     1      20.218   0.063  52.261  1.00  0.00    -0.006 A 
HETATM    6  C12 UNL     1      18.867  -0.241  52.485  1.00  0.00     0.029 A 
HETATM    7  O2  UNL     1      20.833  -0.631  53.240  1.00  0.00     0.000 OA
HETATM    8  C13 UNL     1      22.039  -0.695  53.773  1.00  0.00     0.026 C 
HETATM    9  C14 UNL     1      22.574  -1.260  54.798  1.00  0.00    -0.003 C 
HETATM   10  C15 UNL     1      23.806  -0.638  54.350  1.00  0.00     0.031 C 
HETATM   11  C17 UNL     1      24.025   0.136  53.323  1.00  0.00    -0.002 C 
HETATM   12  C18 UNL     1      23.849   0.897  52.169  1.00  0.00     0.036 C 
HETATM   13  C19 UNL     1      23.360   1.491  51.123  1.00  0.00     0.258 C 
HETATM   14  S1  UNL     1      21.817   1.686  50.201  1.00  0.00    -0.047 S 
HETATM   15  O5  UNL     1      21.860   0.876  48.863  1.00  0.00    -0.274 OA
ENDROOT
BRANCH   1  16
HETATM   16  C6  UNL     1      16.398  -0.258  52.046  1.00  0.00     0.186 C 
HETATM   17  O1  UNL     1      16.068  -0.429  53.224  1.00  0.00    -0.287 OA
BRANCH  16  18
HETATM   18  C2  UNL     1      15.440  -0.525  51.011  1.00  0.00    -0.011 C 
HETATM   19  C1  UNL     1      15.027  -1.293  50.030  1.00  0.00     0.044 C 
BRANCH  18  20
HETATM   20  C3  UNL     1      14.227   0.340  50.925  1.00  0.00     0.154 C 
BRANCH  20  21
HETATM   21  N1  UNL     1      14.457   1.725  51.081  1.00  0.00    -0.417 N 
HETATM   22  C4  UNL     1      13.731   2.427  52.072  1.00  0.00     0.142 C 
HETATM   23  C5  UNL     1      14.627   2.486  49.876  1.00  0.00     0.142 C 
ENDBRANCH  20  21
ENDBRANCH  18  20
ENDBRANCH  16  18
ENDBRANCH   1  16
BRANCH  10  24
HETATM   24  C16 UNL     1      25.094  -0.806  55.064  1.00  0.00     0.175 C 
HETATM   25  O3  UNL     1      26.317  -0.564  54.815  1.00  0.00    -0.646 OA
BRANCH  24  26
HETATM   26  O4  UNL     1      24.981  -1.355  56.317  1.00  0.00    -0.773 OA
HETATM   27  H16 UNL     1      24.541  -2.232  56.546  1.00  0.00     0.167 HD
ENDBRANCH  24  26
ENDBRANCH  10  24
TORSDOF 6
ENDMDL
