MODEL 1
REMARK VINA RESULT:      -7.2      0.000      0.000
REMARK  3 active torsions:
REMARK  status: ('A' for Active; 'I' for Inactive)
REMARK    1  A    between atoms: O1_2  and  C2_3 
REMARK    2  A    between atoms: C4_6  and  C5_7 
REMARK    3  A    between atoms: C6_8  and  C7_9 
ROOT
HETATM    1  C2  UNL     1      21.463   0.899  52.749  1.00  0.00     0.078 C 
HETATM    2  C3  UNL     1      22.666   0.206  52.730  1.00  0.00     0.198 C 
HETATM    3  N1  UNL     1      23.809   1.032  52.199  1.00  0.00    -0.268 NA
HETATM    4  C4  UNL     1      25.014   1.647  51.543  1.00  0.00     0.106 C 
HETATM    5  N2  UNL     1      24.603   2.462  50.472  1.00  0.00    -0.209 NA
HETATM    6  C12 UNL     1      23.117   2.349  50.477  1.00  0.00     0.195 C 
HETATM    7  S1  UNL     1      21.897   1.730  49.664  1.00  0.00    -0.039 SA
HETATM    8  N3  UNL     1      22.808   3.204  51.600  1.00  0.00    -0.362 N 
HETATM    9  C13 UNL     1      21.608   3.173  52.230  1.00  0.00     0.149 C 
HETATM   10  C14 UNL     1      20.260   3.268  52.350  1.00  0.00    -0.009 C 
HETATM   11  C15 UNL     1      20.305   1.919  52.665  1.00  0.00     0.004 C 
HETATM   12  H5  UNL     1      24.200   0.191  51.610  1.00  0.00     0.129 HD
HETATM   13  H13 UNL     1      23.558   3.829  51.846  1.00  0.00     0.162 HD
ENDROOT
BRANCH   4  14
HETATM   14  C5  UNL     1      26.331   1.348  52.076  1.00  0.00     0.045 C 
HETATM   15  C6  UNL     1      26.485   0.103  52.433  1.00  0.00     0.011 C 
BRANCH  15  16
HETATM   16  C7  UNL     1      27.821  -0.150  52.959  1.00  0.00    -0.055 A 
HETATM   17  C8  UNL     1      28.446  -1.309  53.083  1.00  0.00     0.007 A 
HETATM   18  C9  UNL     1      29.795  -1.162  53.661  1.00  0.00    -0.003 A 
HETATM   19  C10 UNL     1      29.923   0.138  53.866  1.00  0.00    -0.022 A 
HETATM   20  C11 UNL     1      28.724   0.917  53.460  1.00  0.00     0.065 A 
ENDBRANCH  15  16
ENDBRANCH   4  14
BRANCH   1  21
HETATM   21  O1  UNL     1      21.053  -0.368  53.248  1.00  0.00    -0.385 OA
HETATM   22  C1  UNL     1      21.454  -0.656  54.566  1.00  0.00     0.202 C 
ENDBRANCH   1  21
TORSDOF 3
ENDMDL
MODEL 2
REMARK VINA RESULT:      -7.1      2.652      3.946
REMARK  3 active torsions:
REMARK  status: ('A' for Active; 'I' for Inactive)
REMARK    1  A    between atoms: O1_2  and  C2_3 
REMARK    2  A    between atoms: C4_6  and  C5_7 
REMARK    3  A    between atoms: C6_8  and  C7_9 
ROOT
HETATM    1  C2  UNL     1      24.693   4.217  49.571  1.00  0.00     0.078 C 
HETATM    2  C3  UNL     1      25.654   3.709  50.434  1.00  0.00     0.198 C 
HETATM    3  N1  UNL     1      25.219   2.436  51.113  1.00  0.00    -0.268 NA
HETATM    4  C4  UNL     1      24.884   1.269  51.998  1.00  0.00     0.106 C 
HETATM    5  N2  UNL     1      23.520   1.310  52.338  1.00  0.00    -0.209 NA
HETATM    6  C12 UNL     1      23.007   2.524  51.643  1.00  0.00     0.195 C 
HETATM    7  S1  UNL     1      22.484   4.004  51.909  1.00  0.00    -0.039 SA
HETATM    8  N3  UNL     1      22.931   2.021  50.291  1.00  0.00    -0.362 N 
HETATM    9  C13 UNL     1      22.839   2.839  49.213  1.00  0.00     0.149 C 
HETATM   10  C14 UNL     1      22.302   3.799  48.418  1.00  0.00    -0.009 C 
HETATM   11  C15 UNL     1      23.458   4.513  48.690  1.00  0.00     0.004 C 
HETATM   12  H5  UNL     1      25.628   2.760  52.079  1.00  0.00     0.129 HD
HETATM   13  H13 UNL     1      22.932   1.016  50.237  1.00  0.00     0.162 HD
ENDROOT
BRANCH   4  14
HETATM   14  C5  UNL     1      25.932   0.323  52.338  1.00  0.00     0.045 C 
HETATM   15  C6  UNL     1      27.047   0.887  52.717  1.00  0.00     0.011 C 
BRANCH  15  16
HETATM   16  C7  UNL     1      28.068  -0.099  53.050  1.00  0.00    -0.055 A 
HETATM   17  C8  UNL     1      28.014  -1.413  52.907  1.00  0.00     0.007 A 
HETATM   18  C9  UNL     1      29.251  -2.078  53.359  1.00  0.00    -0.003 A 
HETATM   19  C10 UNL     1      30.025  -1.087  53.770  1.00  0.00    -0.022 A 
HETATM   20  C11 UNL     1      29.390   0.249  53.630  1.00  0.00     0.065 A 
ENDBRANCH  15  16
ENDBRANCH   4  14
BRANCH   1  21
HETATM   21  O1  UNL     1      25.716   5.196  49.441  1.00  0.00    -0.385 OA
HETATM   22  C1  UNL     1      26.958   4.715  48.984  1.00  0.00     0.202 C 
ENDBRANCH   1  21
TORSDOF 3
ENDMDL
MODEL 3
REMARK VINA RESULT:      -7.1      2.070      3.160
REMARK  3 active torsions:
REMARK  status: ('A' for Active; 'I' for Inactive)
REMARK    1  A    between atoms: O1_2  and  C2_3 
REMARK    2  A    between atoms: C4_6  and  C5_7 
REMARK    3  A    between atoms: C6_8  and  C7_9 
ROOT
HETATM    1  C2  UNL     1      22.189   2.744  51.847  1.00  0.00     0.078 C 
HETATM    2  C3  UNL     1      23.266   2.532  52.698  1.00  0.00     0.198 C 
HETATM    3  N1  UNL     1      23.567   1.071  52.910  1.00  0.00    -0.268 NA
HETATM    4  C4  UNL     1      23.895  -0.324  53.365  1.00  0.00     0.106 C 
HETATM    5  N2  UNL     1      22.714  -1.083  53.450  1.00  0.00    -0.209 NA
HETATM    6  C12 UNL     1      21.641  -0.136  53.033  1.00  0.00     0.195 C 
HETATM    7  S1  UNL     1      20.410   0.702  53.595  1.00  0.00    -0.039 SA
HETATM    8  N3  UNL     1      21.855  -0.132  51.604  1.00  0.00    -0.362 N 
HETATM    9  C13 UNL     1      21.352   0.832  50.795  1.00  0.00     0.149 C 
HETATM   10  C14 UNL     1      20.395   1.595  50.210  1.00  0.00    -0.009 C 
HETATM   11  C15 UNL     1      20.994   2.655  50.873  1.00  0.00     0.004 C 
HETATM   12  H5  UNL     1      23.733   1.217  53.986  1.00  0.00     0.129 HD
HETATM   13  H13 UNL     1      22.390  -0.921  51.278  1.00  0.00     0.162 HD
ENDROOT
BRANCH   4  14
HETATM   14  C5  UNL     1      25.282  -0.671  53.617  1.00  0.00     0.045 C 
HETATM   15  C6  UNL     1      26.112  -0.200  52.726  1.00  0.00     0.011 C 
BRANCH  15  16
HETATM   16  C7  UNL     1      27.491  -0.571  53.021  1.00  0.00    -0.055 A 
HETATM   17  C8  UNL     1      28.487   0.215  53.397  1.00  0.00     0.007 A 
HETATM   18  C9  UNL     1      29.744  -0.530  53.603  1.00  0.00    -0.003 A 
HETATM   19  C10 UNL     1      29.429  -1.785  53.328  1.00  0.00    -0.022 A 
HETATM   20  C11 UNL     1      28.006  -1.961  52.937  1.00  0.00     0.065 A 
ENDBRANCH  15  16
ENDBRANCH   4  14
BRANCH   1  21
HETATM   21  O1  UNL     1      22.538   4.082  52.180  1.00  0.00    -0.385 OA
HETATM   22  C1  UNL     1      21.868   5.080  51.446  1.00  0.00     0.202 C 
ENDBRANCH   1  21
TORSDOF 3
ENDMDL
MODEL 4
REMARK VINA RESULT:      -7.0      2.174      3.372
REMARK  3 active torsions:
REMARK  status: ('A' for Active; 'I' for Inactive)
REMARK    1  A    between atoms: O1_2  and  C2_3 
REMARK    2  A    between atoms: C4_6  and  C5_7 
REMARK    3  A    between atoms: C6_8  and  C7_9 
ROOT
HETATM    1  C2  UNL     1      22.930   2.818  49.788  1.00  0.00     0.078 C 
HETATM    2  C3  UNL     1      24.021   2.839  50.646  1.00  0.00     0.198 C 
HETATM    3  N1  UNL     1      23.996   1.720  51.655  1.00  0.00    -0.268 NA
HETATM    4  C4  UNL     1      24.041   0.779  52.827  1.00  0.00     0.106 C 
HETATM    5  N2  UNL     1      22.734   0.532  53.284  1.00  0.00    -0.209 NA
HETATM    6  C12 UNL     1      21.870   1.332  52.370  1.00  0.00     0.195 C 
HETATM    7  S1  UNL     1      20.945   2.626  52.321  1.00  0.00    -0.039 SA
HETATM    8  N3  UNL     1      21.907   0.492  51.196  1.00  0.00    -0.362 N 
HETATM    9  C13 UNL     1      21.550   0.941  49.967  1.00  0.00     0.149 C 
HETATM   10  C14 UNL     1      20.734   1.472  49.022  1.00  0.00    -0.009 C 
HETATM   11  C15 UNL     1      21.639   2.522  48.993  1.00  0.00     0.004 C 
HETATM   12  H5  UNL     1      24.319   2.385  52.467  1.00  0.00     0.129 HD
HETATM   13  H13 UNL     1      22.200  -0.452  51.388  1.00  0.00     0.162 HD
ENDROOT
BRANCH   4  14
HETATM   14  C5  UNL     1      25.328   0.282  53.277  1.00  0.00     0.045 C 
HETATM   15  C6  UNL     1      26.201   0.137  52.318  1.00  0.00     0.011 C 
BRANCH  15  16
HETATM   16  C7  UNL     1      27.478  -0.361  52.817  1.00  0.00    -0.055 A 
HETATM   17  C8  UNL     1      27.920  -1.608  52.834  1.00  0.00     0.007 A 
HETATM   18  C9  UNL     1      29.268  -1.718  53.421  1.00  0.00    -0.003 A 
HETATM   19  C10 UNL     1      29.588  -0.476  53.744  1.00  0.00    -0.022 A 
HETATM   20  C11 UNL     1      28.525   0.508  53.411  1.00  0.00     0.065 A 
ENDBRANCH  15  16
ENDBRANCH   4  14
BRANCH   1  21
HETATM   21  O1  UNL     1      23.619   3.972  49.322  1.00  0.00    -0.385 OA
HETATM   22  C1  UNL     1      22.995   4.659  48.263  1.00  0.00     0.202 C 
ENDBRANCH   1  21
TORSDOF 3
ENDMDL
MODEL 5
REMARK VINA RESULT:      -6.7      3.588      4.831
REMARK  3 active torsions:
REMARK  status: ('A' for Active; 'I' for Inactive)
REMARK    1  A    between atoms: O1_2  and  C2_3 
REMARK    2  A    between atoms: C4_6  and  C5_7 
REMARK    3  A    between atoms: C6_8  and  C7_9 
ROOT
HETATM    1  C2  UNL     1      19.571   2.473  51.790  1.00  0.00     0.078 C 
HETATM    2  C3  UNL     1      20.716   3.256  51.839  1.00  0.00     0.198 C 
HETATM    3  N1  UNL     1      21.982   2.454  51.681  1.00  0.00    -0.268 NA
HETATM    4  C4  UNL     1      23.334   1.798  51.710  1.00  0.00     0.106 C 
HETATM    5  N2  UNL     1      23.244   0.562  52.376  1.00  0.00    -0.209 NA
HETATM    6  C12 UNL     1      21.807   0.457  52.757  1.00  0.00     0.195 C 
HETATM    7  S1  UNL     1      20.828   0.503  54.011  1.00  0.00    -0.039 SA
HETATM    8  N3  UNL     1      21.236   0.113  51.475  1.00  0.00    -0.362 N 
HETATM    9  C13 UNL     1      19.912   0.234  51.211  1.00  0.00     0.149 C 
HETATM   10  C14 UNL     1      18.583   0.010  51.369  1.00  0.00    -0.009 C 
HETATM   11  C15 UNL     1      18.506   1.359  51.677  1.00  0.00     0.004 C 
HETATM   12  H5  UNL     1      22.491   3.019  52.474  1.00  0.00     0.129 HD
HETATM   13  H13 UNL     1      21.912  -0.241  50.818  1.00  0.00     0.162 HD
ENDROOT
BRANCH   4  14
HETATM   14  C5  UNL     1      24.455   2.472  51.080  1.00  0.00     0.045 C 
HETATM   15  C6  UNL     1      24.108   3.487  50.336  1.00  0.00     0.011 C 
BRANCH  15  16
HETATM   16  C7  UNL     1      25.264   4.133  49.727  1.00  0.00    -0.055 A 
HETATM   17  C8  UNL     1      26.467   3.627  49.514  1.00  0.00     0.007 A 
HETATM   18  C9  UNL     1      27.378   4.593  48.872  1.00  0.00    -0.003 A 
HETATM   19  C10 UNL     1      26.646   5.684  48.722  1.00  0.00    -0.022 A 
HETATM   20  C11 UNL     1      25.257   5.532  49.230  1.00  0.00     0.065 A 
ENDBRANCH  15  16
ENDBRANCH   4  14
BRANCH   1  21
HETATM   21  O1  UNL     1      19.008   3.762  52.004  1.00  0.00    -0.385 OA
HETATM   22  C1  UNL     1      17.768   3.989  51.378  1.00  0.00     0.202 C 
ENDBRANCH   1  21
TORSDOF 3
ENDMDL
MODEL 6
REMARK VINA RESULT:      -6.7      8.312     10.948
REMARK  3 active torsions:
REMARK  status: ('A' for Active; 'I' for Inactive)
REMARK    1  A    between atoms: O1_2  and  C2_3 
REMARK    2  A    between atoms: C4_6  and  C5_7 
REMARK    3  A    between atoms: C6_8  and  C7_9 
ROOT
HETATM    1  C2  UNL     1      33.066   4.649  46.555  1.00  0.00     0.078 C 
HETATM    2  C3  UNL     1      32.151   4.080  47.431  1.00  0.00     0.198 C 
HETATM    3  N1  UNL     1      30.970   4.975  47.707  1.00  0.00    -0.268 NA
HETATM    4  C4  UNL     1      29.822   5.798  48.222  1.00  0.00     0.106 C 
HETATM    5  N2  UNL     1      30.212   7.146  48.318  1.00  0.00    -0.209 NA
HETATM    6  C12 UNL     1      31.626   7.150  47.846  1.00  0.00     0.195 C 
HETATM    7  S1  UNL     1      33.124   7.323  48.354  1.00  0.00    -0.039 SA
HETATM    8  N3  UNL     1      31.412   7.033  46.422  1.00  0.00    -0.362 N 
HETATM    9  C13 UNL     1      32.394   6.657  45.567  1.00  0.00     0.149 C 
HETATM   10  C14 UNL     1      33.593   6.727  44.936  1.00  0.00    -0.009 C 
HETATM   11  C15 UNL     1      33.867   5.523  45.566  1.00  0.00     0.004 C 
HETATM   12  H5  UNL     1      30.983   4.736  48.779  1.00  0.00     0.129 HD
HETATM   13  H13 UNL     1      30.478   7.279  46.137  1.00  0.00     0.162 HD
ENDROOT
BRANCH   4  14
HETATM   14  C5  UNL     1      28.561   5.138  48.511  1.00  0.00     0.045 C 
HETATM   15  C6  UNL     1      27.548   5.955  48.603  1.00  0.00     0.011 C 
BRANCH  15  16
HETATM   16  C7  UNL     1      26.305   5.249  48.891  1.00  0.00    -0.055 A 
HETATM   17  C8  UNL     1      25.065   5.688  48.758  1.00  0.00     0.007 A 
HETATM   18  C9  UNL     1      24.065   4.677  49.152  1.00  0.00    -0.003 A 
HETATM   19  C10 UNL     1      24.785   3.630  49.519  1.00  0.00    -0.022 A 
HETATM   20  C11 UNL     1      26.249   3.856  49.403  1.00  0.00     0.065 A 
ENDBRANCH  15  16
ENDBRANCH   4  14
BRANCH   1  21
HETATM   21  O1  UNL     1      33.699   3.407  46.840  1.00  0.00    -0.385 OA
HETATM   22  C1  UNL     1      34.715   3.458  47.813  1.00  0.00     0.202 C 
ENDBRANCH   1  21
TORSDOF 3
ENDMDL
MODEL 7
REMARK VINA RESULT:      -6.6      2.547      3.370
REMARK  3 active torsions:
REMARK  status: ('A' for Active; 'I' for Inactive)
REMARK    1  A    between atoms: O1_2  and  C2_3 
REMARK    2  A    between atoms: C4_6  and  C5_7 
REMARK    3  A    between atoms: C6_8  and  C7_9 
ROOT
HETATM    1  C2  UNL     1      22.411   4.898  51.630  1.00  0.00     0.078 C 
HETATM    2  C3  UNL     1      23.073   3.695  51.838  1.00  0.00     0.198 C 
HETATM    3  N1  UNL     1      24.448   3.669  51.221  1.00  0.00    -0.268 NA
HETATM    4  C4  UNL     1      25.758   3.410  50.530  1.00  0.00     0.106 C 
HETATM    5  N2  UNL     1      25.775   4.068  49.288  1.00  0.00    -0.209 NA
HETATM    6  C12 UNL     1      24.450   4.749  49.218  1.00  0.00     0.195 C 
HETATM    7  S1  UNL     1      23.044   4.699  48.476  1.00  0.00    -0.039 SA
HETATM    8  N3  UNL     1      24.695   5.857  50.112  1.00  0.00    -0.362 N 
HETATM    9  C13 UNL     1      23.692   6.591  50.654  1.00  0.00     0.149 C 
HETATM   10  C14 UNL     1      22.601   7.397  50.662  1.00  0.00    -0.009 C 
HETATM   11  C15 UNL     1      21.953   6.325  51.257  1.00  0.00     0.004 C 
HETATM   12  H5  UNL     1      24.310   2.644  50.850  1.00  0.00     0.129 HD
HETATM   13  H13 UNL     1      25.674   6.036  50.269  1.00  0.00     0.162 HD
ENDROOT
BRANCH   4  14
HETATM   14  C5  UNL     1      26.753   2.592  51.200  1.00  0.00     0.045 C 
HETATM   15  C6  UNL     1      26.247   1.710  52.018  1.00  0.00     0.011 C 
BRANCH  15  16
HETATM   16  C7  UNL     1      27.281   0.912  52.664  1.00  0.00    -0.055 A 
HETATM   17  C8  UNL     1      28.331   1.333  53.350  1.00  0.00     0.007 A 
HETATM   18  C9  UNL     1      29.157   0.220  53.854  1.00  0.00    -0.003 A 
HETATM   19  C10 UNL     1      28.536  -0.868  53.428  1.00  0.00    -0.022 A 
HETATM   20  C11 UNL     1      27.308  -0.572  52.645  1.00  0.00     0.065 A 
ENDBRANCH  15  16
ENDBRANCH   4  14
BRANCH   1  21
HETATM   21  O1  UNL     1      21.429   4.170  52.358  1.00  0.00    -0.385 OA
HETATM   22  C1  UNL     1      20.266   3.840  51.635  1.00  0.00     0.202 C 
ENDBRANCH   1  21
TORSDOF 3
ENDMDL
MODEL 8
REMARK VINA RESULT:      -6.6      3.933      5.898
REMARK  3 active torsions:
REMARK  status: ('A' for Active; 'I' for Inactive)
REMARK    1  A    between atoms: O1_2  and  C2_3 
REMARK    2  A    between atoms: C4_6  and  C5_7 
REMARK    3  A    between atoms: C6_8  and  C7_9 
ROOT
HETATM    1  C2  UNL     1      22.370   6.998  50.764  1.00  0.00     0.078 C 
HETATM    2  C3  UNL     1      21.789   5.816  51.201  1.00  0.00     0.198 C 
HETATM    3  N1  UNL     1      22.797   4.724  51.450  1.00  0.00    -0.268 NA
HETATM    4  C4  UNL     1      23.637   3.484  51.581  1.00  0.00     0.106 C 
HETATM    5  N2  UNL     1      24.661   3.503  50.617  1.00  0.00    -0.209 NA
HETATM    6  C12 UNL     1      24.447   4.782  49.883  1.00  0.00     0.195 C 
HETATM    7  S1  UNL     1      23.965   5.369  48.485  1.00  0.00    -0.039 SA
HETATM    8  N3  UNL     1      24.975   5.714  50.853  1.00  0.00    -0.362 N 
HETATM    9  C13 UNL     1      24.707   7.042  50.808  1.00  0.00     0.149 C 
HETATM   10  C14 UNL     1      24.675   8.291  50.278  1.00  0.00    -0.009 C 
HETATM   11  C15 UNL     1      23.297   8.153  50.322  1.00  0.00     0.004 C 
HETATM   12  H5  UNL     1      22.156   3.965  50.979  1.00  0.00     0.129 HD
HETATM   13  H13 UNL     1      25.571   5.282  51.540  1.00  0.00     0.162 HD
ENDROOT
BRANCH   4  14
HETATM   14  C5  UNL     1      23.308   2.522  52.618  1.00  0.00     0.045 C 
HETATM   15  C6  UNL     1      22.927   1.362  52.158  1.00  0.00     0.011 C 
BRANCH  15  16
HETATM   16  C7  UNL     1      22.610   0.429  53.233  1.00  0.00    -0.055 A 
HETATM   17  C8  UNL     1      23.405  -0.460  53.806  1.00  0.00     0.007 A 
HETATM   18  C9  UNL     1      22.722  -1.226  54.865  1.00  0.00    -0.003 A 
HETATM   19  C10 UNL     1      21.492  -0.739  54.879  1.00  0.00    -0.022 A 
HETATM   20  C11 UNL     1      21.276   0.337  53.877  1.00  0.00     0.065 A 
ENDBRANCH  15  16
ENDBRANCH   4  14
BRANCH   1  21
HETATM   21  O1  UNL     1      20.994   7.357  50.761  1.00  0.00    -0.385 OA
HETATM   22  C1  UNL     1      20.642   8.391  49.872  1.00  0.00     0.202 C 
ENDBRANCH   1  21
TORSDOF 3
ENDMDL
MODEL 9
REMARK VINA RESULT:      -6.6      4.998      6.038
REMARK  3 active torsions:
REMARK  status: ('A' for Active; 'I' for Inactive)
REMARK    1  A    between atoms: O1_2  and  C2_3 
REMARK    2  A    between atoms: C4_6  and  C5_7 
REMARK    3  A    between atoms: C6_8  and  C7_9 
ROOT
HETATM    1  C2  UNL     1      25.750   2.329  51.601  1.00  0.00     0.078 C 
HETATM    2  C3  UNL     1      26.652   2.631  50.590  1.00  0.00     0.198 C 
HETATM    3  N1  UNL     1      26.380   3.964  49.941  1.00  0.00    -0.268 NA
HETATM    4  C4  UNL     1      26.152   5.173  49.077  1.00  0.00     0.106 C 
HETATM    5  N2  UNL     1      24.771   5.404  48.942  1.00  0.00    -0.209 NA
HETATM    6  C12 UNL     1      24.140   4.318  49.744  1.00  0.00     0.195 C 
HETATM    7  S1  UNL     1      23.301   2.973  49.606  1.00  0.00    -0.039 SA
HETATM    8  N3  UNL     1      24.369   4.830  51.076  1.00  0.00    -0.362 N 
HETATM    9  C13 UNL     1      24.280   4.050  52.181  1.00  0.00     0.149 C 
HETATM   10  C14 UNL     1      23.690   3.220  53.077  1.00  0.00    -0.009 C 
HETATM   11  C15 UNL     1      24.628   2.288  52.662  1.00  0.00     0.004 C 
HETATM   12  H5  UNL     1      26.567   3.562  48.936  1.00  0.00     0.129 HD
HETATM   13  H13 UNL     1      24.576   5.815  51.096  1.00  0.00     0.162 HD
ENDROOT
BRANCH   4  14
HETATM   14  C5  UNL     1      27.304   5.888  48.556  1.00  0.00     0.045 C 
HETATM   15  C6  UNL     1      28.376   5.152  48.447  1.00  0.00     0.011 C 
BRANCH  15  16
HETATM   16  C7  UNL     1      29.503   5.910  47.918  1.00  0.00    -0.055 A 
HETATM   17  C8  UNL     1      29.516   7.158  47.478  1.00  0.00     0.007 A 
HETATM   18  C9  UNL     1      30.854   7.578  47.019  1.00  0.00    -0.003 A 
HETATM   19  C10 UNL     1      31.616   6.515  47.214  1.00  0.00    -0.022 A 
HETATM   20  C11 UNL     1      30.877   5.361  47.790  1.00  0.00     0.065 A 
ENDBRANCH  15  16
ENDBRANCH   4  14
BRANCH   1  21
HETATM   21  O1  UNL     1      26.568   1.164  51.610  1.00  0.00    -0.385 OA
HETATM   22  C1  UNL     1      26.133   0.129  52.460  1.00  0.00     0.202 C 
ENDBRANCH   1  21
TORSDOF 3
ENDMDL
