MODEL 1
REMARK VINA RESULT:      -8.2      0.000      0.000
REMARK  1 active torsions:
REMARK  status: ('A' for Active; 'I' for Inactive)
REMARK    1  A    between atoms: C2_2  and  C3_3 
ROOT
HETATM    1  C3  UNL     1      27.218   0.785  53.601  1.00  0.00     0.040 A 
HETATM    2  C4  UNL     1      27.808  -0.457  53.115  1.00  0.00    -0.001 A 
HETATM    3  C5  UNL     1      27.296  -1.621  52.801  1.00  0.00     0.084 A 
HETATM    4  N1  UNL     1      25.869  -1.490  53.026  1.00  0.00    -0.369 N 
HETATM    5  C6  UNL     1      25.064  -0.360  53.488  1.00  0.00     0.017 A 
HETATM    6  C7  UNL     1      25.761   0.769  53.758  1.00  0.00    -0.049 A 
HETATM    7  C8  UNL     1      24.946   1.918  54.112  1.00  0.00     0.046 C 
HETATM    8  C9  UNL     1      24.646   2.896  53.004  1.00  0.00     0.116 C 
HETATM    9  C10 UNL     1      24.006   2.211  51.822  1.00  0.00     0.267 C 
HETATM   10  O1  UNL     1      24.169   1.805  50.652  1.00  0.00    -0.265 OA
HETATM   11  O2  UNL     1      22.738   1.920  52.214  1.00  0.00    -0.227 OA
HETATM   12  C11 UNL     1      21.800   1.256  51.448  1.00  0.00     0.371 C 
HETATM   13  O3  UNL     1      21.912   0.837  50.315  1.00  0.00    -0.238 OA
HETATM   14  N2  UNL     1      20.470   0.876  51.762  1.00  0.00    -0.316 N 
HETATM   15  C12 UNL     1      19.146   0.498  52.074  1.00  0.00     0.067 C 
HETATM   16  C13 UNL     1      19.187  -0.358  53.126  1.00  0.00     0.015 C 
HETATM   17  C14 UNL     1      20.630  -0.528  53.474  1.00  0.00     0.034 C 
HETATM   18  C15 UNL     1      21.282  -1.223  54.435  1.00  0.00    -0.004 C 
HETATM   19  C16 UNL     1      22.774  -1.252  54.579  1.00  0.00    -0.012 C 
HETATM   20  C17 UNL     1      23.592  -0.575  53.684  1.00  0.00     0.074 C 
HETATM   21  H9  UNL     1      25.279  -2.362  52.821  1.00  0.00     0.165 HD
HETATM   22  H14 UNL     1      20.490   1.391  52.702  1.00  0.00     0.170 HD
ENDROOT
BRANCH   1  23
HETATM   23  C2  UNL     1      27.663   1.963  52.789  1.00  0.00     0.008 C 
HETATM   24  C1  UNL     1      28.780   2.650  53.592  1.00  0.00     0.006 C 
ENDBRANCH   1  23
TORSDOF 1
ENDMDL
MODEL 2
REMARK VINA RESULT:      -8.1      3.674      6.165
REMARK  1 active torsions:
REMARK  status: ('A' for Active; 'I' for Inactive)
REMARK    1  A    between atoms: C2_2  and  C3_3 
ROOT
HETATM    1  C3  UNL     1      23.861   0.557  52.642  1.00  0.00     0.040 A 
HETATM    2  C4  UNL     1      24.880   0.386  53.672  1.00  0.00    -0.001 A 
HETATM    3  C5  UNL     1      26.043   0.954  53.875  1.00  0.00     0.084 A 
HETATM    4  N1  UNL     1      26.201   1.909  52.795  1.00  0.00    -0.369 N 
HETATM    5  C6  UNL     1      25.324   2.257  51.677  1.00  0.00     0.017 A 
HETATM    6  C7  UNL     1      24.155   1.575  51.630  1.00  0.00    -0.049 A 
HETATM    7  C8  UNL     1      23.243   2.001  50.583  1.00  0.00     0.046 C 
HETATM    8  C9  UNL     1      22.155   2.962  50.990  1.00  0.00     0.116 C 
HETATM    9  C10 UNL     1      22.726   4.195  51.648  1.00  0.00     0.267 C 
HETATM   10  O1  UNL     1      22.889   4.809  52.722  1.00  0.00    -0.265 OA
HETATM   11  O2  UNL     1      23.294   4.911  50.642  1.00  0.00    -0.227 OA
HETATM   12  C11 UNL     1      23.968   6.107  50.799  1.00  0.00     0.371 C 
HETATM   13  O3  UNL     1      24.159   6.736  51.819  1.00  0.00    -0.238 OA
HETATM   14  N2  UNL     1      24.620   6.918  49.836  1.00  0.00    -0.316 N 
HETATM   15  C12 UNL     1      25.269   7.727  48.879  1.00  0.00     0.067 C 
HETATM   16  C13 UNL     1      26.274   7.004  48.325  1.00  0.00     0.015 C 
HETATM   17  C14 UNL     1      26.250   5.668  48.995  1.00  0.00     0.034 C 
HETATM   18  C15 UNL     1      26.977   4.537  48.847  1.00  0.00    -0.004 C 
HETATM   19  C16 UNL     1      26.773   3.298  49.665  1.00  0.00    -0.012 C 
HETATM   20  C17 UNL     1      25.820   3.258  50.675  1.00  0.00     0.074 C 
HETATM   21  H9  UNL     1      27.113   2.473  52.796  1.00  0.00     0.165 HD
HETATM   22  H14 UNL     1      24.280   6.313  49.020  1.00  0.00     0.170 HD
ENDROOT
BRANCH   1  23
HETATM   23  C2  UNL     1      22.501   0.761  53.237  1.00  0.00     0.008 C 
HETATM   24  C1  UNL     1      21.980  -0.633  53.625  1.00  0.00     0.006 C 
ENDBRANCH   1  23
TORSDOF 1
ENDMDL
MODEL 3
REMARK VINA RESULT:      -7.6      3.237      6.290
REMARK  1 active torsions:
REMARK  status: ('A' for Active; 'I' for Inactive)
REMARK    1  A    between atoms: C2_2  and  C3_3 
ROOT
HETATM    1  C3  UNL     1      22.300   0.876  52.902  1.00  0.00     0.040 A 
HETATM    2  C4  UNL     1      21.523   0.091  51.949  1.00  0.00    -0.001 A 
HETATM    3  C5  UNL     1      21.265   0.242  50.673  1.00  0.00     0.084 A 
HETATM    4  N1  UNL     1      21.953   1.457  50.280  1.00  0.00    -0.369 N 
HETATM    5  C6  UNL     1      22.787   2.385  51.044  1.00  0.00     0.017 A 
HETATM    6  C7  UNL     1      22.954   2.065  52.350  1.00  0.00    -0.049 A 
HETATM    7  C8  UNL     1      23.869   2.929  53.075  1.00  0.00     0.046 C 
HETATM    8  C9  UNL     1      25.283   2.431  53.230  1.00  0.00     0.116 C 
HETATM    9  C10 UNL     1      25.902   2.106  51.891  1.00  0.00     0.267 C 
HETATM   10  O1  UNL     1      26.267   1.198  51.117  1.00  0.00    -0.265 OA
HETATM   11  O2  UNL     1      26.150   3.307  51.307  1.00  0.00    -0.227 OA
HETATM   12  C11 UNL     1      26.689   3.483  50.046  1.00  0.00     0.371 C 
HETATM   13  O3  UNL     1      27.050   2.637  49.257  1.00  0.00    -0.238 OA
HETATM   14  N2  UNL     1      26.960   4.677  49.330  1.00  0.00    -0.316 N 
HETATM   15  C12 UNL     1      27.231   5.864  48.616  1.00  0.00     0.067 C 
HETATM   16  C13 UNL     1      26.059   6.520  48.425  1.00  0.00     0.015 C 
HETATM   17  C14 UNL     1      24.997   5.675  49.050  1.00  0.00     0.034 C 
HETATM   18  C15 UNL     1      23.660   5.817  49.202  1.00  0.00    -0.004 C 
HETATM   19  C16 UNL     1      22.781   4.803  49.867  1.00  0.00    -0.012 C 
HETATM   20  C17 UNL     1      23.304   3.608  50.345  1.00  0.00     0.074 C 
HETATM   21  H9  UNL     1      21.848   1.745  49.253  1.00  0.00     0.165 HD
HETATM   22  H14 UNL     1      26.704   5.298  50.165  1.00  0.00     0.170 HD
ENDROOT
BRANCH   1  23
HETATM   23  C2  UNL     1      23.273   0.024  53.657  1.00  0.00     0.008 C 
HETATM   24  C1  UNL     1      22.438  -0.883  54.576  1.00  0.00     0.006 C 
ENDBRANCH   1  23
TORSDOF 1
ENDMDL
MODEL 4
REMARK VINA RESULT:      -7.4      2.417      4.046
REMARK  1 active torsions:
REMARK  status: ('A' for Active; 'I' for Inactive)
REMARK    1  A    between atoms: C2_2  and  C3_3 
ROOT
HETATM    1  C3  UNL     1      24.944   5.031  50.599  1.00  0.00     0.040 A 
HETATM    2  C4  UNL     1      25.893   4.514  49.619  1.00  0.00    -0.001 A 
HETATM    3  C5  UNL     1      26.400   3.323  49.415  1.00  0.00     0.084 A 
HETATM    4  N1  UNL     1      25.807   2.471  50.428  1.00  0.00    -0.369 N 
HETATM    5  C6  UNL     1      24.840   2.759  51.488  1.00  0.00     0.017 A 
HETATM    6  C7  UNL     1      24.416   4.044  51.544  1.00  0.00    -0.049 A 
HETATM    7  C8  UNL     1      23.377   4.300  52.526  1.00  0.00     0.046 C 
HETATM    8  C9  UNL     1      21.959   4.318  52.015  1.00  0.00     0.116 C 
HETATM    9  C10 UNL     1      21.617   3.039  51.290  1.00  0.00     0.267 C 
HETATM   10  O1  UNL     1      21.412   2.506  50.180  1.00  0.00    -0.265 OA
HETATM   11  O2  UNL     1      21.494   2.095  52.259  1.00  0.00    -0.227 OA
HETATM   12  C11 UNL     1      21.217   0.760  52.039  1.00  0.00     0.371 C 
HETATM   13  O3  UNL     1      21.019   0.195  50.985  1.00  0.00    -0.238 OA
HETATM   14  N2  UNL     1      21.097  -0.310  52.963  1.00  0.00    -0.316 N 
HETATM   15  C12 UNL     1      20.976  -1.375  53.881  1.00  0.00     0.067 C 
HETATM   16  C13 UNL     1      22.164  -1.521  54.519  1.00  0.00     0.015 C 
HETATM   17  C14 UNL     1      23.078  -0.487  53.947  1.00  0.00     0.034 C 
HETATM   18  C15 UNL     1      24.359  -0.130  54.201  1.00  0.00    -0.004 C 
HETATM   19  C16 UNL     1      25.086   0.956  53.467  1.00  0.00    -0.012 C 
HETATM   20  C17 UNL     1      24.475   1.651  52.431  1.00  0.00     0.074 C 
HETATM   21  H9  UNL     1      26.114   1.444  50.417  1.00  0.00     0.165 HD
HETATM   22  H14 UNL     1      21.183   0.342  53.809  1.00  0.00     0.170 HD
ENDROOT
BRANCH   1  23
HETATM   23  C2  UNL     1      23.838   5.801  49.944  1.00  0.00     0.008 C 
HETATM   24  C1  UNL     1      23.475   5.037  48.660  1.00  0.00     0.006 C 
ENDBRANCH   1  23
TORSDOF 1
ENDMDL
MODEL 5
REMARK VINA RESULT:      -7.3      3.847      5.181
REMARK  1 active torsions:
REMARK  status: ('A' for Active; 'I' for Inactive)
REMARK    1  A    between atoms: C2_2  and  C3_3 
ROOT
HETATM    1  C3  UNL     1      25.845   6.456  49.337  1.00  0.00     0.040 A 
HETATM    2  C4  UNL     1      27.044   5.938  48.687  1.00  0.00    -0.001 A 
HETATM    3  C5  UNL     1      27.629   4.765  48.706  1.00  0.00     0.084 A 
HETATM    4  N1  UNL     1      26.812   3.939  49.574  1.00  0.00    -0.369 N 
HETATM    5  C6  UNL     1      25.582   4.232  50.310  1.00  0.00     0.017 A 
HETATM    6  C7  UNL     1      25.114   5.494  50.165  1.00  0.00    -0.049 A 
HETATM    7  C8  UNL     1      23.837   5.747  50.811  1.00  0.00     0.046 C 
HETATM    8  C9  UNL     1      22.613   5.665  49.933  1.00  0.00     0.116 C 
HETATM    9  C10 UNL     1      22.529   4.333  49.228  1.00  0.00     0.267 C 
HETATM   10  O1  UNL     1      22.655   3.732  48.141  1.00  0.00    -0.265 OA
HETATM   11  O2  UNL     1      22.179   3.437  50.187  1.00  0.00    -0.227 OA
HETATM   12  C11 UNL     1      22.020   2.079  49.987  1.00  0.00     0.371 C 
HETATM   13  O3  UNL     1      22.138   1.450  48.957  1.00  0.00    -0.238 OA
HETATM   14  N2  UNL     1      21.690   1.055  50.911  1.00  0.00    -0.316 N 
HETATM   15  C12 UNL     1      21.360   0.035  51.829  1.00  0.00     0.067 C 
HETATM   16  C13 UNL     1      22.333  -0.015  52.774  1.00  0.00     0.015 C 
HETATM   17  C14 UNL     1      23.331   1.033  52.405  1.00  0.00     0.034 C 
HETATM   18  C15 UNL     1      24.480   1.469  52.973  1.00  0.00    -0.004 C 
HETATM   19  C16 UNL     1      25.341   2.551  52.395  1.00  0.00    -0.012 C 
HETATM   20  C17 UNL     1      25.013   3.157  51.189  1.00  0.00     0.074 C 
HETATM   21  H9  UNL     1      27.147   2.930  49.713  1.00  0.00     0.165 HD
HETATM   22  H14 UNL     1      21.518   1.754  51.704  1.00  0.00     0.170 HD
ENDROOT
BRANCH   1  23
HETATM   23  C2  UNL     1      24.934   7.132  48.358  1.00  0.00     0.008 C 
HETATM   24  C1  UNL     1      25.838   7.804  47.312  1.00  0.00     0.006 C 
ENDBRANCH   1  23
TORSDOF 1
ENDMDL
MODEL 6
REMARK VINA RESULT:      -7.2      5.303      8.110
REMARK  1 active torsions:
REMARK  status: ('A' for Active; 'I' for Inactive)
REMARK    1  A    between atoms: C2_2  and  C3_3 
ROOT
HETATM    1  C3  UNL     1      22.362   3.373  50.967  1.00  0.00     0.040 A 
HETATM    2  C4  UNL     1      22.817   2.992  52.300  1.00  0.00    -0.001 A 
HETATM    3  C5  UNL     1      23.980   3.073  52.899  1.00  0.00     0.084 A 
HETATM    4  N1  UNL     1      24.874   3.678  51.930  1.00  0.00    -0.369 N 
HETATM    5  C6  UNL     1      24.643   4.145  50.563  1.00  0.00     0.017 A 
HETATM    6  C7  UNL     1      23.377   3.991  50.110  1.00  0.00    -0.049 A 
HETATM    7  C8  UNL     1      23.129   4.555  48.794  1.00  0.00     0.046 C 
HETATM    8  C9  UNL     1      22.504   5.926  48.757  1.00  0.00     0.116 C 
HETATM    9  C10 UNL     1      23.314   6.922  49.551  1.00  0.00     0.267 C 
HETATM   10  O1  UNL     1      23.378   7.599  50.599  1.00  0.00    -0.265 OA
HETATM   11  O2  UNL     1      24.425   7.161  48.806  1.00  0.00    -0.227 OA
HETATM   12  C11 UNL     1      25.464   7.995  49.172  1.00  0.00     0.371 C 
HETATM   13  O3  UNL     1      25.576   8.663  50.178  1.00  0.00    -0.238 OA
HETATM   14  N2  UNL     1      26.674   8.293  48.495  1.00  0.00    -0.316 N 
HETATM   15  C12 UNL     1      27.878   8.592  47.822  1.00  0.00     0.067 C 
HETATM   16  C13 UNL     1      28.584   7.441  47.686  1.00  0.00     0.015 C 
HETATM   17  C14 UNL     1      27.767   6.368  48.329  1.00  0.00     0.034 C 
HETATM   18  C15 UNL     1      27.931   5.033  48.479  1.00  0.00    -0.004 C 
HETATM   19  C16 UNL     1      26.958   4.146  49.193  1.00  0.00    -0.012 C 
HETATM   20  C17 UNL     1      25.817   4.670  49.789  1.00  0.00     0.074 C 
HETATM   21  H9  UNL     1      25.887   3.820  52.250  1.00  0.00     0.165 HD
HETATM   22  H14 UNL     1      26.383   7.742  47.624  1.00  0.00     0.170 HD
ENDROOT
BRANCH   1  23
HETATM   23  C2  UNL     1      21.119   4.206  51.023  1.00  0.00     0.008 C 
HETATM   24  C1  UNL     1      20.136   3.461  51.941  1.00  0.00     0.006 C 
ENDBRANCH   1  23
TORSDOF 1
ENDMDL
MODEL 7
REMARK VINA RESULT:      -7.1      2.308      6.277
REMARK  1 active torsions:
REMARK  status: ('A' for Active; 'I' for Inactive)
REMARK    1  A    between atoms: C2_2  and  C3_3 
ROOT
HETATM    1  C3  UNL     1      19.348   1.612  49.376  1.00  0.00     0.040 A 
HETATM    2  C4  UNL     1      18.228   1.706  50.306  1.00  0.00    -0.001 A 
HETATM    3  C5  UNL     1      18.134   1.549  51.603  1.00  0.00     0.084 A 
HETATM    4  N1  UNL     1      19.475   1.229  52.052  1.00  0.00    -0.369 N 
HETATM    5  C6  UNL     1      20.734   1.095  51.318  1.00  0.00     0.017 A 
HETATM    6  C7  UNL     1      20.644   1.302  49.983  1.00  0.00    -0.049 A 
HETATM    7  C8  UNL     1      21.913   1.274  49.277  1.00  0.00     0.046 C 
HETATM    8  C9  UNL     1      22.554   2.609  48.994  1.00  0.00     0.116 C 
HETATM    9  C10 UNL     1      22.737   3.412  50.260  1.00  0.00     0.267 C 
HETATM   10  O1  UNL     1      22.334   4.384  50.932  1.00  0.00    -0.265 OA
HETATM   11  O2  UNL     1      23.756   2.809  50.926  1.00  0.00    -0.227 OA
HETATM   12  C11 UNL     1      24.240   3.198  52.161  1.00  0.00     0.371 C 
HETATM   13  O3  UNL     1      23.878   4.126  52.853  1.00  0.00    -0.238 OA
HETATM   14  N2  UNL     1      25.268   2.632  52.956  1.00  0.00    -0.316 N 
HETATM   15  C12 UNL     1      26.292   2.069  53.748  1.00  0.00     0.067 C 
HETATM   16  C13 UNL     1      25.933   0.800  54.066  1.00  0.00     0.015 C 
HETATM   17  C14 UNL     1      24.596   0.572  53.439  1.00  0.00     0.034 C 
HETATM   18  C15 UNL     1      23.760  -0.491  53.383  1.00  0.00    -0.004 C 
HETATM   19  C16 UNL     1      22.431  -0.475  52.691  1.00  0.00    -0.012 C 
HETATM   20  C17 UNL     1      21.956   0.680  52.083  1.00  0.00     0.074 C 
HETATM   21  H9  UNL     1      19.590   1.060  53.105  1.00  0.00     0.165 HD
HETATM   22  H14 UNL     1      25.543   1.931  52.193  1.00  0.00     0.170 HD
ENDROOT
BRANCH   1  23
HETATM   23  C2  UNL     1      19.437   2.818  48.492  1.00  0.00     0.008 C 
HETATM   24  C1  UNL     1      19.122   4.034  49.380  1.00  0.00     0.006 C 
ENDBRANCH   1  23
TORSDOF 1
ENDMDL
MODEL 8
REMARK VINA RESULT:      -7.1      1.622      2.205
REMARK  1 active torsions:
REMARK  status: ('A' for Active; 'I' for Inactive)
REMARK    1  A    between atoms: C2_2  and  C3_3 
ROOT
HETATM    1  C3  UNL     1      25.390   1.793  53.261  1.00  0.00     0.040 A 
HETATM    2  C4  UNL     1      26.085   0.511  53.241  1.00  0.00    -0.001 A 
HETATM    3  C5  UNL     1      25.670  -0.723  53.095  1.00  0.00     0.084 A 
HETATM    4  N1  UNL     1      24.233  -0.631  52.926  1.00  0.00    -0.369 N 
HETATM    5  C6  UNL     1      23.335   0.525  52.898  1.00  0.00     0.017 A 
HETATM    6  C7  UNL     1      23.941   1.725  53.056  1.00  0.00    -0.049 A 
HETATM    7  C8  UNL     1      23.061   2.873  52.918  1.00  0.00     0.046 C 
HETATM    8  C9  UNL     1      23.050   3.553  51.573  1.00  0.00     0.116 C 
HETATM    9  C10 UNL     1      22.729   2.578  50.465  1.00  0.00     0.267 C 
HETATM   10  O1  UNL     1      23.182   1.927  49.501  1.00  0.00    -0.265 OA
HETATM   11  O2  UNL     1      21.404   2.309  50.593  1.00  0.00    -0.227 OA
HETATM   12  C11 UNL     1      20.689   1.432  49.799  1.00  0.00     0.371 C 
HETATM   13  O3  UNL     1      21.084   0.774  48.860  1.00  0.00    -0.238 OA
HETATM   14  N2  UNL     1      19.324   1.054  49.859  1.00  0.00    -0.316 N 
HETATM   15  C12 UNL     1      17.965   0.677  49.917  1.00  0.00     0.067 C 
HETATM   16  C13 UNL     1      17.740   0.087  51.118  1.00  0.00     0.015 C 
HETATM   17  C14 UNL     1      19.049   0.089  51.839  1.00  0.00     0.034 C 
HETATM   18  C15 UNL     1      19.439  -0.328  53.066  1.00  0.00    -0.004 C 
HETATM   19  C16 UNL     1      20.845  -0.233  53.574  1.00  0.00    -0.012 C 
HETATM   20  C17 UNL     1      21.862   0.271  52.772  1.00  0.00     0.074 C 
HETATM   21  H9  UNL     1      23.714  -1.560  52.795  1.00  0.00     0.165 HD
HETATM   22  H14 UNL     1      19.106   1.769  50.626  1.00  0.00     0.170 HD
ENDROOT
BRANCH   1  23
HETATM   23  C2  UNL     1      26.024   2.780  52.329  1.00  0.00     0.008 C 
HETATM   24  C1  UNL     1      26.520   1.978  51.114  1.00  0.00     0.006 C 
ENDBRANCH   1  23
TORSDOF 1
ENDMDL
MODEL 9
REMARK VINA RESULT:      -6.9      6.627      9.618
REMARK  1 active torsions:
REMARK  status: ('A' for Active; 'I' for Inactive)
REMARK    1  A    between atoms: C2_2  and  C3_3 
ROOT
HETATM    1  C3  UNL     1      22.939   5.620  49.255  1.00  0.00     0.040 A 
HETATM    2  C4  UNL     1      22.911   4.850  50.493  1.00  0.00    -0.001 A 
HETATM    3  C5  UNL     1      23.857   4.382  51.270  1.00  0.00     0.084 A 
HETATM    4  N1  UNL     1      25.104   4.793  50.654  1.00  0.00    -0.369 N 
HETATM    5  C6  UNL     1      25.373   5.567  49.442  1.00  0.00     0.017 A 
HETATM    6  C7  UNL     1      24.274   5.979  48.768  1.00  0.00    -0.049 A 
HETATM    7  C8  UNL     1      24.545   6.837  47.628  1.00  0.00     0.046 C 
HETATM    8  C9  UNL     1      24.415   8.321  47.859  1.00  0.00     0.116 C 
HETATM    9  C10 UNL     1      25.281   8.778  49.009  1.00  0.00     0.267 C 
HETATM   10  O1  UNL     1      25.299   9.167  50.195  1.00  0.00    -0.265 OA
HETATM   11  O2  UNL     1      26.556   8.733  48.542  1.00  0.00    -0.227 OA
HETATM   12  C11 UNL     1      27.684   9.040  49.278  1.00  0.00     0.371 C 
HETATM   13  O3  UNL     1      27.753   9.413  50.430  1.00  0.00    -0.238 OA
HETATM   14  N2  UNL     1      29.052   9.000  48.908  1.00  0.00    -0.316 N 
HETATM   15  C12 UNL     1      30.415   8.962  48.541  1.00  0.00     0.067 C 
HETATM   16  C13 UNL     1      30.730   7.682  48.218  1.00  0.00     0.015 C 
HETATM   17  C14 UNL     1      29.484   6.880  48.412  1.00  0.00     0.034 C 
HETATM   18  C15 UNL     1      29.176   5.576  48.225  1.00  0.00    -0.004 C 
HETATM   19  C16 UNL     1      27.828   4.986  48.511  1.00  0.00    -0.012 C 
HETATM   20  C17 UNL     1      26.804   5.765  49.035  1.00  0.00     0.074 C 
HETATM   21  H9  UNL     1      26.000   4.489  51.159  1.00  0.00     0.165 HD
HETATM   22  H14 UNL     1      28.823   8.773  47.886  1.00  0.00     0.170 HD
ENDROOT
BRANCH   1  23
HETATM   23  C2  UNL     1      22.049   6.823  49.332  1.00  0.00     0.008 C 
HETATM   24  C1  UNL     1      22.193   7.382  50.757  1.00  0.00     0.006 C 
ENDBRANCH   1  23
TORSDOF 1
ENDMDL
