MODEL 1
REMARK VINA RESULT:      -8.9      0.000      0.000
REMARK  5 active torsions:
REMARK  status: ('A' for Active; 'I' for Inactive)
REMARK    1  A    between atoms: C10_10  and  C11_11 
REMARK    2  A    between atoms: C11_11  and  N1_12 
REMARK    3  A    between atoms: N1_12  and  C12_13 
REMARK    4  A    between atoms: C13_15  and  N3_16 
REMARK    5  A    between atoms: C14_17  and  N4_18 
ROOT
HETATM    1  C12 UNL     1      23.202   0.631  52.711  1.00  0.00     0.135 A 
HETATM    2  N2  UNL     1      22.443  -0.374  52.942  1.00  0.00    -0.237 NA
HETATM    3  C13 UNL     1      21.263   0.120  52.283  1.00  0.00     0.381 A 
HETATM    4  C14 UNL     1      22.114   1.298  51.998  1.00  0.00     0.346 A 
ENDROOT
BRANCH   1   5
HETATM    5  N1  UNL     1      24.536   0.855  53.067  1.00  0.00    -0.372 N 
HETATM    6  H12 UNL     1      24.767   1.310  53.992  1.00  0.00     0.161 HD
BRANCH   5   7
HETATM    7  C11 UNL     1      25.685   0.483  52.207  1.00  0.00     0.160 C 
BRANCH   7   8
HETATM    8  C10 UNL     1      26.959   0.749  52.843  1.00  0.00    -0.029 A 
HETATM    9  C9  UNL     1      27.354   2.053  53.214  1.00  0.00     0.010 A 
HETATM   10  C8  UNL     1      28.556   2.444  53.754  1.00  0.00     0.002 A 
HETATM   11  C7  UNL     1      29.479   1.463  53.955  1.00  0.00     0.012 A 
HETATM   12  C6  UNL     1      29.164   0.159  53.618  1.00  0.00    -0.025 A 
HETATM   13  C5  UNL     1      30.180  -0.751  53.884  1.00  0.00     0.012 A 
HETATM   14  C22 UNL     1      27.941  -0.207  53.078  1.00  0.00    -0.012 A 
HETATM   15  C4  UNL     1      29.972  -2.071  53.605  1.00  0.00     0.001 A 
HETATM   16  C3  UNL     1      28.744  -2.402  53.070  1.00  0.00     0.007 A 
HETATM   17  C2  UNL     1      27.667  -1.550  52.771  1.00  0.00    -0.050 A 
HETATM   18  C1  UNL     1      26.380  -2.004  52.246  1.00  0.00     0.049 C 
ENDBRANCH   7   8
ENDBRANCH   5   7
ENDBRANCH   1   5
BRANCH   4  19
HETATM   19  N4  UNL     1      22.366   1.672  50.640  1.00  0.00     0.112 N 
HETATM   20  C15 UNL     1      21.554   0.956  49.683  1.00  0.00     0.301 C 
HETATM   21  C16 UNL     1      21.886   1.479  48.304  1.00  0.00    -0.001 C 
HETATM   22  C17 UNL     1      22.551   2.631  48.122  1.00  0.00    -0.023 C 
HETATM   23  C18 UNL     1      23.034   3.515  49.211  1.00  0.00     0.037 C 
HETATM   24  C19 UNL     1      24.495   3.257  49.472  1.00  0.00     0.016 C 
HETATM   25  C20 UNL     1      22.294   3.089  50.485  1.00  0.00     0.227 C 
HETATM   26  C21 UNL     1      22.927   3.805  51.629  1.00  0.00     0.043 C 
ENDBRANCH   4  19
BRANCH   3  27
HETATM   27  N3  UNL     1      20.155   0.372  53.192  1.00  0.00     0.105 N 
HETATM   28  H14 UNL     1      19.342   0.774  52.684  1.00  0.00     0.315 HD
HETATM   29  H15 UNL     1      19.924  -0.524  53.687  1.00  0.00     0.315 HD
ENDBRANCH   3  27
TORSDOF 5
ENDMDL
MODEL 2
REMARK VINA RESULT:      -8.7      3.411      7.126
REMARK  5 active torsions:
REMARK  status: ('A' for Active; 'I' for Inactive)
REMARK    1  A    between atoms: C10_10  and  C11_11 
REMARK    2  A    between atoms: C11_11  and  N1_12 
REMARK    3  A    between atoms: N1_12  and  C12_13 
REMARK    4  A    between atoms: C13_15  and  N3_16 
REMARK    5  A    between atoms: C14_17  and  N4_18 
ROOT
HETATM    1  C12 UNL     1      26.418   2.509  51.262  1.00  0.00     0.135 A 
HETATM    2  N2  UNL     1      27.517   2.099  51.777  1.00  0.00    -0.237 NA
HETATM    3  C13 UNL     1      27.018   1.814  53.096  1.00  0.00     0.381 A 
HETATM    4  C14 UNL     1      25.730   2.282  52.533  1.00  0.00     0.346 A 
ENDROOT
BRANCH   1   5
HETATM    5  N1  UNL     1      26.141   2.964  49.970  1.00  0.00    -0.372 N 
HETATM    6  H12 UNL     1      25.342   2.543  49.420  1.00  0.00     0.161 HD
BRANCH   5   7
HETATM    7  C11 UNL     1      26.917   4.033  49.296  1.00  0.00     0.160 C 
BRANCH   7   8
HETATM    8  C10 UNL     1      26.099   5.181  48.962  1.00  0.00    -0.029 A 
HETATM    9  C9  UNL     1      24.711   5.214  49.222  1.00  0.00     0.010 A 
HETATM   10  C8  UNL     1      23.818   6.205  48.890  1.00  0.00     0.002 A 
HETATM   11  C7  UNL     1      24.326   7.284  48.231  1.00  0.00     0.012 A 
HETATM   12  C6  UNL     1      25.678   7.324  47.943  1.00  0.00    -0.025 A 
HETATM   13  C5  UNL     1      26.077   8.481  47.283  1.00  0.00     0.012 A 
HETATM   14  C22 UNL     1      26.556   6.311  48.293  1.00  0.00    -0.012 A 
HETATM   15  C4  UNL     1      27.394   8.635  46.962  1.00  0.00     0.001 A 
HETATM   16  C3  UNL     1      28.241   7.609  47.326  1.00  0.00     0.007 A 
HETATM   17  C2  UNL     1      27.923   6.413  47.991  1.00  0.00    -0.050 A 
HETATM   18  C1  UNL     1      28.907   5.400  48.378  1.00  0.00     0.049 C 
ENDBRANCH   7   8
ENDBRANCH   5   7
ENDBRANCH   1   5
BRANCH   4  19
HETATM   19  N4  UNL     1      24.608   1.395  52.510  1.00  0.00     0.112 N 
HETATM   20  C15 UNL     1      24.804   0.195  53.292  1.00  0.00     0.301 C 
HETATM   21  C16 UNL     1      23.534  -0.622  53.220  1.00  0.00    -0.001 C 
HETATM   22  C17 UNL     1      22.375  -0.098  52.790  1.00  0.00    -0.023 C 
HETATM   23  C18 UNL     1      22.189   1.304  52.344  1.00  0.00     0.037 C 
HETATM   24  C19 UNL     1      22.238   1.376  50.840  1.00  0.00     0.016 C 
HETATM   25  C20 UNL     1      23.408   2.090  52.844  1.00  0.00     0.227 C 
HETATM   26  C21 UNL     1      23.356   3.442  52.216  1.00  0.00     0.043 C 
ENDBRANCH   4  19
BRANCH   3  27
HETATM   27  N3  UNL     1      27.582   2.673  54.126  1.00  0.00     0.105 N 
HETATM   28  H14 UNL     1      26.879   3.359  54.465  1.00  0.00     0.315 HD
HETATM   29  H15 UNL     1      27.959   2.063  54.893  1.00  0.00     0.315 HD
ENDBRANCH   3  27
TORSDOF 5
ENDMDL
MODEL 3
REMARK VINA RESULT:      -8.7      3.346      7.048
REMARK  5 active torsions:
REMARK  status: ('A' for Active; 'I' for Inactive)
REMARK    1  A    between atoms: C10_10  and  C11_11 
REMARK    2  A    between atoms: C11_11  and  N1_12 
REMARK    3  A    between atoms: N1_12  and  C12_13 
REMARK    4  A    between atoms: C13_15  and  N3_16 
REMARK    5  A    between atoms: C14_17  and  N4_18 
ROOT
HETATM    1  C12 UNL     1      26.482   2.443  51.243  1.00  0.00     0.135 A 
HETATM    2  N2  UNL     1      27.559   2.025  51.797  1.00  0.00    -0.237 NA
HETATM    3  C13 UNL     1      27.027   1.816  53.117  1.00  0.00     0.381 A 
HETATM    4  C14 UNL     1      25.765   2.294  52.508  1.00  0.00     0.346 A 
ENDROOT
BRANCH   1   5
HETATM    5  N1  UNL     1      26.243   2.846  49.925  1.00  0.00    -0.372 N 
HETATM    6  H12 UNL     1      26.546   2.232  49.121  1.00  0.00     0.161 HD
BRANCH   5   7
HETATM    7  C11 UNL     1      25.571   4.119  49.570  1.00  0.00     0.160 C 
BRANCH   7   8
HETATM    8  C10 UNL     1      26.463   5.048  48.908  1.00  0.00    -0.029 A 
HETATM    9  C9  UNL     1      27.849   4.800  48.787  1.00  0.00     0.010 A 
HETATM   10  C8  UNL     1      28.806   5.628  48.251  1.00  0.00     0.002 A 
HETATM   11  C7  UNL     1      28.374   6.832  47.781  1.00  0.00     0.012 A 
HETATM   12  C6  UNL     1      27.029   7.145  47.863  1.00  0.00    -0.025 A 
HETATM   13  C5  UNL     1      26.710   8.392  47.337  1.00  0.00     0.012 A 
HETATM   14  C22 UNL     1      26.085   6.289  48.406  1.00  0.00    -0.012 A 
HETATM   15  C4  UNL     1      25.408   8.799  47.351  1.00  0.00     0.001 A 
HETATM   16  C3  UNL     1      24.494   7.922  47.897  1.00  0.00     0.007 A 
HETATM   17  C2  UNL     1      24.729   6.651  48.447  1.00  0.00    -0.050 A 
HETATM   18  C1  UNL     1      23.680   5.770  48.962  1.00  0.00     0.049 C 
ENDBRANCH   7   8
ENDBRANCH   5   7
ENDBRANCH   1   5
BRANCH   4  19
HETATM   19  N4  UNL     1      24.617   1.440  52.503  1.00  0.00     0.112 N 
HETATM   20  C15 UNL     1      24.807   0.213  53.243  1.00  0.00     0.301 C 
HETATM   21  C16 UNL     1      23.513  -0.566  53.195  1.00  0.00    -0.001 C 
HETATM   22  C17 UNL     1      22.354   0.002  52.825  1.00  0.00    -0.023 C 
HETATM   23  C18 UNL     1      22.193   1.422  52.426  1.00  0.00     0.037 C 
HETATM   24  C19 UNL     1      22.188   1.536  50.924  1.00  0.00     0.016 C 
HETATM   25  C20 UNL     1      23.451   2.158  52.902  1.00  0.00     0.227 C 
HETATM   26  C21 UNL     1      23.415   3.529  52.314  1.00  0.00     0.043 C 
ENDBRANCH   4  19
BRANCH   3  27
HETATM   27  N3  UNL     1      27.598   2.703  54.119  1.00  0.00     0.105 N 
HETATM   28  H14 UNL     1      28.611   2.513  54.251  1.00  0.00     0.315 HD
HETATM   29  H15 UNL     1      27.403   3.693  53.831  1.00  0.00     0.315 HD
ENDBRANCH   3  27
TORSDOF 5
ENDMDL
MODEL 4
REMARK VINA RESULT:      -8.7      1.020      2.374
REMARK  5 active torsions:
REMARK  status: ('A' for Active; 'I' for Inactive)
REMARK    1  A    between atoms: C10_10  and  C11_11 
REMARK    2  A    between atoms: C11_11  and  N1_12 
REMARK    3  A    between atoms: N1_12  and  C12_13 
REMARK    4  A    between atoms: C13_15  and  N3_16 
REMARK    5  A    between atoms: C14_17  and  N4_18 
ROOT
HETATM    1  C12 UNL     1      22.840  -0.479  53.410  1.00  0.00     0.135 A 
HETATM    2  N2  UNL     1      21.886  -1.279  53.712  1.00  0.00    -0.237 NA
HETATM    3  C13 UNL     1      20.792  -0.436  53.308  1.00  0.00     0.381 A 
HETATM    4  C14 UNL     1      21.870   0.513  52.947  1.00  0.00     0.346 A 
ENDROOT
BRANCH   1   5
HETATM    5  N1  UNL     1      24.223  -0.637  53.533  1.00  0.00    -0.372 N 
HETATM    6  H12 UNL     1      24.623  -1.189  54.340  1.00  0.00     0.161 HD
BRANCH   5   7
HETATM    7  C11 UNL     1      25.200  -0.064  52.576  1.00  0.00     0.160 C 
BRANCH   7   8
HETATM    8  C10 UNL     1      26.532  -0.606  52.755  1.00  0.00    -0.029 A 
HETATM    9  C9  UNL     1      26.818  -1.974  52.550  1.00  0.00     0.010 A 
HETATM   10  C8  UNL     1      28.013  -2.621  52.755  1.00  0.00     0.002 A 
HETATM   11  C7  UNL     1      29.046  -1.859  53.212  1.00  0.00     0.012 A 
HETATM   12  C6  UNL     1      28.842  -0.510  53.436  1.00  0.00    -0.025 A 
HETATM   13  C5  UNL     1      29.973   0.162  53.885  1.00  0.00     0.012 A 
HETATM   14  C22 UNL     1      27.626   0.117  53.216  1.00  0.00    -0.012 A 
HETATM   15  C4  UNL     1      29.891   1.504  54.124  1.00  0.00     0.001 A 
HETATM   16  C3  UNL     1      28.667   2.097  53.894  1.00  0.00     0.007 A 
HETATM   17  C2  UNL     1      27.480   1.496  53.442  1.00  0.00    -0.050 A 
HETATM   18  C1  UNL     1      26.237   2.223  53.182  1.00  0.00     0.049 C 
ENDBRANCH   7   8
ENDBRANCH   5   7
ENDBRANCH   1   5
BRANCH   4  19
HETATM   19  N4  UNL     1      21.996   0.954  51.591  1.00  0.00     0.112 N 
HETATM   20  C15 UNL     1      21.083   0.296  50.684  1.00  0.00     0.301 C 
HETATM   21  C16 UNL     1      21.288   0.886  49.307  1.00  0.00    -0.001 C 
HETATM   22  C17 UNL     1      21.951   2.038  49.118  1.00  0.00    -0.023 C 
HETATM   23  C18 UNL     1      22.551   2.860  50.198  1.00  0.00     0.037 C 
HETATM   24  C19 UNL     1      24.026   2.572  50.302  1.00  0.00     0.016 C 
HETATM   25  C20 UNL     1      21.931   2.377  51.515  1.00  0.00     0.227 C 
HETATM   26  C21 UNL     1      22.684   3.027  52.626  1.00  0.00     0.043 C 
ENDBRANCH   4  19
BRANCH   3  27
HETATM   27  N3  UNL     1      19.949  -0.011  54.415  1.00  0.00     0.105 N 
HETATM   28  H14 UNL     1      19.406   0.839  54.163  1.00  0.00     0.315 HD
HETATM   29  H15 UNL     1      19.339  -0.818  54.693  1.00  0.00     0.315 HD
ENDBRANCH   3  27
TORSDOF 5
ENDMDL
MODEL 5
REMARK VINA RESULT:      -8.4      1.581      2.679
REMARK  5 active torsions:
REMARK  status: ('A' for Active; 'I' for Inactive)
REMARK    1  A    between atoms: C10_10  and  C11_11 
REMARK    2  A    between atoms: C11_11  and  N1_12 
REMARK    3  A    between atoms: N1_12  and  C12_13 
REMARK    4  A    between atoms: C13_15  and  N3_16 
REMARK    5  A    between atoms: C14_17  and  N4_18 
ROOT
HETATM    1  C12 UNL     1      24.028   2.830  52.829  1.00  0.00     0.135 A 
HETATM    2  N2  UNL     1      24.049   3.883  53.558  1.00  0.00    -0.237 NA
HETATM    3  C13 UNL     1      23.328   4.750  52.665  1.00  0.00     0.381 A 
HETATM    4  C14 UNL     1      23.284   3.551  51.796  1.00  0.00     0.346 A 
ENDROOT
BRANCH   1   5
HETATM    5  N1  UNL     1      24.555   1.557  53.067  1.00  0.00    -0.372 N 
HETATM    6  H12 UNL     1      24.199   0.980  53.877  1.00  0.00     0.161 HD
BRANCH   5   7
HETATM    7  C11 UNL     1      25.613   0.941  52.230  1.00  0.00     0.160 C 
BRANCH   7   8
HETATM    8  C10 UNL     1      26.920   1.015  52.851  1.00  0.00    -0.029 A 
HETATM    9  C9  UNL     1      27.484   2.242  53.266  1.00  0.00     0.010 A 
HETATM   10  C8  UNL     1      28.735   2.453  53.797  1.00  0.00     0.002 A 
HETATM   11  C7  UNL     1      29.527   1.355  53.940  1.00  0.00     0.012 A 
HETATM   12  C6  UNL     1      29.042   0.118  53.557  1.00  0.00    -0.025 A 
HETATM   13  C5  UNL     1      29.937  -0.925  53.767  1.00  0.00     0.012 A 
HETATM   14  C22 UNL     1      27.775  -0.067  53.028  1.00  0.00    -0.012 A 
HETATM   15  C4  UNL     1      29.558  -2.195  53.439  1.00  0.00     0.001 A 
HETATM   16  C3  UNL     1      28.291  -2.343  52.916  1.00  0.00     0.007 A 
HETATM   17  C2  UNL     1      27.327  -1.349  52.673  1.00  0.00    -0.050 A 
HETATM   18  C1  UNL     1      25.984  -1.614  52.156  1.00  0.00     0.049 C 
ENDBRANCH   7   8
ENDBRANCH   5   7
ENDBRANCH   1   5
BRANCH   4  19
HETATM   19  N4  UNL     1      22.019   3.005  51.412  1.00  0.00     0.112 N 
HETATM   20  C15 UNL     1      20.909   3.528  52.175  1.00  0.00     0.301 C 
HETATM   21  C16 UNL     1      19.639   2.908  51.638  1.00  0.00    -0.001 C 
HETATM   22  C17 UNL     1      19.601   2.280  50.451  1.00  0.00    -0.023 C 
HETATM   23  C18 UNL     1      20.759   2.117  49.539  1.00  0.00     0.037 C 
HETATM   24  C19 UNL     1      21.363   0.748  49.715  1.00  0.00     0.016 C 
HETATM   25  C20 UNL     1      21.829   3.113  50.002  1.00  0.00     0.227 C 
HETATM   26  C21 UNL     1      23.079   2.809  49.249  1.00  0.00     0.043 C 
ENDBRANCH   4  19
BRANCH   3  27
HETATM   27  N3  UNL     1      24.131   5.849  52.150  1.00  0.00     0.105 N 
HETATM   28  H14 UNL     1      24.232   5.783  51.117  1.00  0.00     0.315 HD
HETATM   29  H15 UNL     1      23.693   6.750  52.461  1.00  0.00     0.315 HD
ENDBRANCH   3  27
TORSDOF 5
ENDMDL
MODEL 6
REMARK VINA RESULT:      -8.3      2.362      4.393
REMARK  5 active torsions:
REMARK  status: ('A' for Active; 'I' for Inactive)
REMARK    1  A    between atoms: C10_10  and  C11_11 
REMARK    2  A    between atoms: C11_11  and  N1_12 
REMARK    3  A    between atoms: N1_12  and  C12_13 
REMARK    4  A    between atoms: C13_15  and  N3_16 
REMARK    5  A    between atoms: C14_17  and  N4_18 
ROOT
HETATM    1  C12 UNL     1      23.338   4.195  51.319  1.00  0.00     0.135 A 
HETATM    2  N2  UNL     1      23.072   5.067  52.220  1.00  0.00    -0.237 NA
HETATM    3  C13 UNL     1      21.955   5.690  51.562  1.00  0.00     0.381 A 
HETATM    4  C14 UNL     1      22.234   4.696  50.500  1.00  0.00     0.346 A 
ENDROOT
BRANCH   1   5
HETATM    5  N1  UNL     1      24.332   3.213  51.279  1.00  0.00    -0.372 N 
HETATM    6  H12 UNL     1      25.351   3.491  51.268  1.00  0.00     0.161 HD
BRANCH   5   7
HETATM    7  C11 UNL     1      24.043   1.759  51.253  1.00  0.00     0.160 C 
BRANCH   7   8
HETATM    8  C10 UNL     1      24.745   1.037  52.294  1.00  0.00    -0.029 A 
HETATM    9  C9  UNL     1      26.155   0.991  52.353  1.00  0.00     0.010 A 
HETATM   10  C8  UNL     1      26.935   0.288  53.241  1.00  0.00     0.002 A 
HETATM   11  C7  UNL     1      26.276  -0.455  54.173  1.00  0.00     0.012 A 
HETATM   12  C6  UNL     1      24.893  -0.457  54.179  1.00  0.00    -0.025 A 
HETATM   13  C5  UNL     1      24.337  -1.238  55.186  1.00  0.00     0.012 A 
HETATM   14  C22 UNL     1      24.132   0.265  53.274  1.00  0.00    -0.012 A 
HETATM   15  C4  UNL     1      22.978  -1.302  55.296  1.00  0.00     0.001 A 
HETATM   16  C3  UNL     1      22.251  -0.571  54.381  1.00  0.00     0.007 A 
HETATM   17  C2  UNL     1      22.729   0.240  53.338  1.00  0.00    -0.050 A 
HETATM   18  C1  UNL     1      21.873   1.019  52.442  1.00  0.00     0.049 C 
ENDBRANCH   7   8
ENDBRANCH   5   7
ENDBRANCH   1   5
BRANCH   4  19
HETATM   19  N4  UNL     1      21.223   3.751  50.136  1.00  0.00     0.112 N 
HETATM   20  C15 UNL     1      19.948   3.996  50.772  1.00  0.00     0.301 C 
HETATM   21  C16 UNL     1      18.967   2.964  50.265  1.00  0.00    -0.001 C 
HETATM   22  C17 UNL     1      19.214   2.224  49.172  1.00  0.00    -0.023 C 
HETATM   23  C18 UNL     1      20.440   2.317  48.343  1.00  0.00     0.037 C 
HETATM   24  C19 UNL     1      21.404   1.225  48.725  1.00  0.00     0.016 C 
HETATM   25  C20 UNL     1      21.126   3.637  48.717  1.00  0.00     0.227 C 
HETATM   26  C21 UNL     1      22.468   3.642  48.067  1.00  0.00     0.043 C 
ENDBRANCH   4  19
BRANCH   3  27
HETATM   27  N3  UNL     1      22.203   7.073  51.184  1.00  0.00     0.105 N 
HETATM   28  H14 UNL     1      22.702   7.581  51.941  1.00  0.00     0.315 HD
HETATM   29  H15 UNL     1      22.727   7.077  50.275  1.00  0.00     0.315 HD
ENDBRANCH   3  27
TORSDOF 5
ENDMDL
MODEL 7
REMARK VINA RESULT:      -8.2      3.118      7.015
REMARK  5 active torsions:
REMARK  status: ('A' for Active; 'I' for Inactive)
REMARK    1  A    between atoms: C10_10  and  C11_11 
REMARK    2  A    between atoms: C11_11  and  N1_12 
REMARK    3  A    between atoms: N1_12  and  C12_13 
REMARK    4  A    between atoms: C13_15  and  N3_16 
REMARK    5  A    between atoms: C14_17  and  N4_18 
ROOT
HETATM    1  C12 UNL     1      24.058   2.781  52.242  1.00  0.00     0.135 A 
HETATM    2  N2  UNL     1      22.872   2.530  52.656  1.00  0.00    -0.237 NA
HETATM    3  C13 UNL     1      23.037   1.116  52.865  1.00  0.00     0.381 A 
HETATM    4  C14 UNL     1      24.416   1.371  52.390  1.00  0.00     0.346 A 
ENDROOT
BRANCH   1   5
HETATM    5  N1  UNL     1      24.636   3.989  51.841  1.00  0.00    -0.372 N 
HETATM    6  H12 UNL     1      25.401   4.428  52.422  1.00  0.00     0.161 HD
BRANCH   5   7
HETATM    7  C11 UNL     1      24.236   4.719  50.614  1.00  0.00     0.160 C 
BRANCH   7   8
HETATM    8  C10 UNL     1      25.377   5.211  49.868  1.00  0.00    -0.029 A 
HETATM    9  C9  UNL     1      26.351   4.343  49.328  1.00  0.00     0.010 A 
HETATM   10  C8  UNL     1      27.508   4.685  48.669  1.00  0.00     0.002 A 
HETATM   11  C7  UNL     1      27.749   6.017  48.519  1.00  0.00     0.012 A 
HETATM   12  C6  UNL     1      26.839   6.930  49.020  1.00  0.00    -0.025 A 
HETATM   13  C5  UNL     1      27.188   8.255  48.791  1.00  0.00     0.012 A 
HETATM   14  C22 UNL     1      25.678   6.555  49.678  1.00  0.00    -0.012 A 
HETATM   15  C4  UNL     1      26.354   9.242  49.230  1.00  0.00     0.001 A 
HETATM   16  C3  UNL     1      25.207   8.836  49.878  1.00  0.00     0.007 A 
HETATM   17  C2  UNL     1      24.779   7.525  50.150  1.00  0.00    -0.050 A 
HETATM   18  C1  UNL     1      23.515   7.192  50.808  1.00  0.00     0.049 C 
ENDBRANCH   7   8
ENDBRANCH   5   7
ENDBRANCH   1   5
BRANCH   4  19
HETATM   19  N4  UNL     1      25.522   1.074  53.248  1.00  0.00     0.112 N 
HETATM   20  C15 UNL     1      25.185   0.189  54.340  1.00  0.00     0.301 C 
HETATM   21  C16 UNL     1      26.445  -0.077  55.131  1.00  0.00    -0.001 C 
HETATM   22  C17 UNL     1      27.664   0.200  54.642  1.00  0.00    -0.023 C 
HETATM   23  C18 UNL     1      27.930   0.785  53.305  1.00  0.00     0.037 C 
HETATM   24  C19 UNL     1      28.157   2.269  53.430  1.00  0.00     0.016 C 
HETATM   25  C20 UNL     1      26.642   0.622  52.488  1.00  0.00     0.227 C 
HETATM   26  C21 UNL     1      26.811   1.402  51.229  1.00  0.00     0.043 C 
ENDBRANCH   4  19
BRANCH   3  27
HETATM   27  N3  UNL     1      22.225   0.300  51.974  1.00  0.00     0.105 N 
HETATM   28  H14 UNL     1      21.212   0.468  52.135  1.00  0.00     0.315 HD
HETATM   29  H15 UNL     1      22.519   0.498  50.986  1.00  0.00     0.315 HD
ENDBRANCH   3  27
TORSDOF 5
ENDMDL
MODEL 8
REMARK VINA RESULT:      -8.1      2.705      6.568
REMARK  5 active torsions:
REMARK  status: ('A' for Active; 'I' for Inactive)
REMARK    1  A    between atoms: C10_10  and  C11_11 
REMARK    2  A    between atoms: C11_11  and  N1_12 
REMARK    3  A    between atoms: N1_12  and  C12_13 
REMARK    4  A    between atoms: C13_15  and  N3_16 
REMARK    5  A    between atoms: C14_17  and  N4_18 
ROOT
HETATM    1  C12 UNL     1      23.962   2.159  52.614  1.00  0.00     0.135 A 
HETATM    2  N2  UNL     1      22.875   1.713  53.122  1.00  0.00    -0.237 NA
HETATM    3  C13 UNL     1      23.298   0.352  53.319  1.00  0.00     0.381 A 
HETATM    4  C14 UNL     1      24.570   0.835  52.735  1.00  0.00     0.346 A 
ENDROOT
BRANCH   1   5
HETATM    5  N1  UNL     1      24.289   3.443  52.166  1.00  0.00    -0.372 N 
HETATM    6  H12 UNL     1      24.515   4.205  52.862  1.00  0.00     0.161 HD
BRANCH   5   7
HETATM    7  C11 UNL     1      24.343   3.819  50.732  1.00  0.00     0.160 C 
BRANCH   7   8
HETATM    8  C10 UNL     1      24.666   5.218  50.541  1.00  0.00    -0.029 A 
HETATM    9  C9  UNL     1      23.857   6.252  51.063  1.00  0.00     0.010 A 
HETATM   10  C8  UNL     1      24.013   7.607  50.891  1.00  0.00     0.002 A 
HETATM   11  C7  UNL     1      25.069   8.005  50.127  1.00  0.00     0.012 A 
HETATM   12  C6  UNL     1      25.907   7.049  49.583  1.00  0.00    -0.025 A 
HETATM   13  C5  UNL     1      26.955   7.579  48.839  1.00  0.00     0.012 A 
HETATM   14  C22 UNL     1      25.727   5.689  49.776  1.00  0.00    -0.012 A 
HETATM   15  C4  UNL     1      27.854   6.726  48.267  1.00  0.00     0.001 A 
HETATM   16  C3  UNL     1      27.647   5.379  48.480  1.00  0.00     0.007 A 
HETATM   17  C2  UNL     1      26.621   4.762  49.216  1.00  0.00    -0.050 A 
HETATM   18  C1  UNL     1      26.512   3.317  49.424  1.00  0.00     0.049 C 
ENDBRANCH   7   8
ENDBRANCH   5   7
ENDBRANCH   1   5
BRANCH   4  19
HETATM   19  N4  UNL     1      25.776   0.747  53.501  1.00  0.00     0.112 N 
HETATM   20  C15 UNL     1      25.633  -0.024  54.715  1.00  0.00     0.301 C 
HETATM   21  C16 UNL     1      26.982  -0.076  55.396  1.00  0.00    -0.001 C 
HETATM   22  C17 UNL     1      28.116   0.248  54.755  1.00  0.00    -0.023 C 
HETATM   23  C18 UNL     1      28.196   0.687  53.340  1.00  0.00     0.037 C 
HETATM   24  C19 UNL     1      28.280   2.190  53.273  1.00  0.00     0.016 C 
HETATM   25  C20 UNL     1      26.862   0.309  52.685  1.00  0.00     0.227 C 
HETATM   26  C21 UNL     1      26.832   0.941  51.335  1.00  0.00     0.043 C 
ENDBRANCH   4  19
BRANCH   3  27
HETATM   27  N3  UNL     1      22.573  -0.605  52.498  1.00  0.00     0.105 N 
HETATM   28  H14 UNL     1      22.331  -1.456  53.044  1.00  0.00     0.315 HD
HETATM   29  H15 UNL     1      21.731  -0.124  52.098  1.00  0.00     0.315 HD
ENDBRANCH   3  27
TORSDOF 5
ENDMDL
MODEL 9
REMARK VINA RESULT:      -8.1      2.926      5.231
REMARK  5 active torsions:
REMARK  status: ('A' for Active; 'I' for Inactive)
REMARK    1  A    between atoms: C10_10  and  C11_11 
REMARK    2  A    between atoms: C11_11  and  N1_12 
REMARK    3  A    between atoms: N1_12  and  C12_13 
REMARK    4  A    between atoms: C13_15  and  N3_16 
REMARK    5  A    between atoms: C14_17  and  N4_18 
ROOT
HETATM    1  C12 UNL     1      22.042   2.117  49.030  1.00  0.00     0.135 A 
HETATM    2  N2  UNL     1      22.247   1.937  47.778  1.00  0.00    -0.237 NA
HETATM    3  C13 UNL     1      22.205   3.318  47.376  1.00  0.00     0.381 A 
HETATM    4  C14 UNL     1      21.966   3.562  48.817  1.00  0.00     0.346 A 
ENDROOT
BRANCH   1   5
HETATM    5  N1  UNL     1      21.952   1.188  50.071  1.00  0.00    -0.372 N 
HETATM    6  H12 UNL     1      21.222   0.426  50.039  1.00  0.00     0.161 HD
BRANCH   5   7
HETATM    7  C11 UNL     1      22.843   1.202  51.257  1.00  0.00     0.160 C 
BRANCH   7   8
HETATM    8  C10 UNL     1      22.331   0.387  52.340  1.00  0.00    -0.029 A 
HETATM    9  C9  UNL     1      20.954   0.107  52.482  1.00  0.00     0.010 A 
HETATM   10  C8  UNL     1      20.339  -0.586  53.497  1.00  0.00     0.002 A 
HETATM   11  C7  UNL     1      21.147  -1.059  54.487  1.00  0.00     0.012 A 
HETATM   12  C6  UNL     1      22.509  -0.825  54.416  1.00  0.00    -0.025 A 
HETATM   13  C5  UNL     1      23.227  -1.369  55.474  1.00  0.00     0.012 A 
HETATM   14  C22 UNL     1      23.102  -0.125  53.378  1.00  0.00    -0.012 A 
HETATM   15  C4  UNL     1      24.583  -1.212  55.499  1.00  0.00     0.001 A 
HETATM   16  C3  UNL     1      25.142  -0.513  54.450  1.00  0.00     0.007 A 
HETATM   17  C2  UNL     1      24.493   0.067  53.347  1.00  0.00    -0.050 A 
HETATM   18  C1  UNL     1      25.183   0.753  52.254  1.00  0.00     0.049 C 
ENDBRANCH   7   8
ENDBRANCH   5   7
ENDBRANCH   1   5
BRANCH   4  19
HETATM   19  N4  UNL     1      22.884   4.371  49.557  1.00  0.00     0.112 N 
HETATM   20  C15 UNL     1      23.884   5.011  48.732  1.00  0.00     0.301 C 
HETATM   21  C16 UNL     1      24.751   5.866  49.628  1.00  0.00    -0.001 C 
HETATM   22  C17 UNL     1      24.379   6.195  50.875  1.00  0.00    -0.023 C 
HETATM   23  C18 UNL     1      23.110   5.778  51.520  1.00  0.00     0.037 C 
HETATM   24  C19 UNL     1      23.353   4.587  52.410  1.00  0.00     0.016 C 
HETATM   25  C20 UNL     1      22.186   5.287  50.399  1.00  0.00     0.227 C 
HETATM   26  C21 UNL     1      21.000   4.654  51.044  1.00  0.00     0.043 C 
ENDBRANCH   4  19
BRANCH   3  27
HETATM   27  N3  UNL     1      21.081   3.634  46.508  1.00  0.00     0.105 N 
HETATM   28  H14 UNL     1      20.177   3.449  46.987  1.00  0.00     0.315 HD
HETATM   29  H15 UNL     1      21.179   4.630  46.193  1.00  0.00     0.315 HD
ENDBRANCH   3  27
TORSDOF 5
ENDMDL
