MODEL 1
REMARK VINA RESULT:      -7.8      0.000      0.000
REMARK  4 active torsions:
REMARK  status: ('A' for Active; 'I' for Inactive)
REMARK    1  A    between atoms: C5_7  and  C6_8 
REMARK    2  A    between atoms: C7_9  and  N3_10 
REMARK    3  A    between atoms: N4_11  and  C8_12 
REMARK    4  A    between atoms: C11_15  and  N5_16 
ROOT
HETATM    1  C1  UNL     1      28.486   1.014  53.804  1.00  0.00     0.040 C 
HETATM    2  C2  UNL     1      27.671   0.151  54.703  1.00  0.00     0.021 C 
HETATM    3  C3  UNL     1      26.376  -0.003  54.580  1.00  0.00     0.139 C 
HETATM    4  N1  UNL     1      25.682  -0.850  55.488  1.00  0.00    -0.223 NA
HETATM    5  C4  UNL     1      24.461  -1.268  55.505  1.00  0.00     0.237 C 
HETATM    6  N2  UNL     1      23.401  -0.987  54.572  1.00  0.00    -0.223 NA
HETATM    7  C5  UNL     1      23.358  -0.129  53.610  1.00  0.00     0.146 C 
HETATM    8  N4  UNL     1      24.359   0.812  53.175  1.00  0.00    -0.269 N 
HETATM    9  N7  UNL     1      25.719   0.693  53.529  1.00  0.00    -0.280 N 
HETATM   10  H31 UNL     1      26.334   1.240  52.863  1.00  0.00     0.189 HD
ENDROOT
BRANCH   8  11
HETATM   11  C8  UNL     1      23.900   1.888  52.354  1.00  0.00     0.110 C 
HETATM   12  C9  UNL     1      24.612   1.996  51.015  1.00  0.00     0.029 C 
HETATM   13  C10 UNL     1      24.379   3.419  50.490  1.00  0.00     0.027 C 
HETATM   14  C11 UNL     1      23.135   4.037  51.052  1.00  0.00     0.079 C 
HETATM   15  C17 UNL     1      23.218   4.258  52.544  1.00  0.00     0.027 C 
HETATM   16  C18 UNL     1      24.168   3.186  53.082  1.00  0.00     0.029 C 
BRANCH  14  17
HETATM   17  N5  UNL     1      22.792   5.195  50.294  1.00  0.00    -0.405 N 
HETATM   18  C12 UNL     1      22.460   6.328  51.112  1.00  0.00     0.147 C 
HETATM   19  C13 UNL     1      21.877   7.436  50.301  1.00  0.00     0.291 C 
HETATM   20  N6  UNL     1      22.617   7.740  49.108  1.00  0.00     0.087 N 
HETATM   21  C14 UNL     1      23.768   8.590  49.327  1.00  0.00     0.310 C 
HETATM   22  C15 UNL     1      22.960   6.571  48.347  1.00  0.00     0.291 C 
HETATM   23  C16 UNL     1      23.622   5.487  49.172  1.00  0.00     0.147 C 
ENDBRANCH  14  17
ENDBRANCH   8  11
BRANCH   7  24
HETATM   24  C6  UNL     1      22.104  -0.128  52.869  1.00  0.00     0.063 C 
HETATM   25  C7  UNL     1      20.990   0.041  53.564  1.00  0.00     0.058 C 
BRANCH  25  26
HETATM   26  N3  UNL     1      20.784   0.232  54.958  1.00  0.00    -0.312 NA
HETATM   27  H8  UNL     1      21.504  -0.272  55.530  1.00  0.00     0.123 HD
HETATM   28  H9  UNL     1      21.477  -0.250  55.585  1.00  0.00     0.123 HD
ENDBRANCH  25  26
ENDBRANCH   7  24
TORSDOF 4
ENDMDL
MODEL 2
REMARK VINA RESULT:      -7.6      3.037      6.428
REMARK  4 active torsions:
REMARK  status: ('A' for Active; 'I' for Inactive)
REMARK    1  A    between atoms: C5_7  and  C6_8 
REMARK    2  A    between atoms: C7_9  and  N3_10 
REMARK    3  A    between atoms: N4_11  and  C8_12 
REMARK    4  A    between atoms: C11_15  and  N5_16 
ROOT
HETATM    1  C1  UNL     1      26.429  -1.124  53.054  1.00  0.00     0.040 C 
HETATM    2  C2  UNL     1      26.961   0.029  52.279  1.00  0.00     0.021 C 
HETATM    3  C3  UNL     1      26.218   1.021  51.854  1.00  0.00     0.139 C 
HETATM    4  N1  UNL     1      26.817   2.080  51.119  1.00  0.00    -0.223 NA
HETATM    5  C4  UNL     1      26.348   3.211  50.712  1.00  0.00     0.237 C 
HETATM    6  N2  UNL     1      25.026   3.754  50.888  1.00  0.00    -0.223 NA
HETATM    7  C5  UNL     1      23.957   3.184  51.332  1.00  0.00     0.146 C 
HETATM    8  N4  UNL     1      23.759   1.831  51.786  1.00  0.00    -0.269 N 
HETATM    9  N7  UNL     1      24.829   0.988  52.154  1.00  0.00    -0.280 N 
HETATM   10  H31 UNL     1      24.493   0.194  52.768  1.00  0.00     0.189 HD
ENDROOT
BRANCH   8  11
HETATM   11  C8  UNL     1      22.406   1.377  51.847  1.00  0.00     0.110 C 
HETATM   12  C9  UNL     1      22.142   0.353  52.940  1.00  0.00     0.029 C 
HETATM   13  C10 UNL     1      20.841  -0.376  52.577  1.00  0.00     0.027 C 
HETATM   14  C11 UNL     1      19.953   0.450  51.697  1.00  0.00     0.079 C 
HETATM   15  C17 UNL     1      20.561   0.713  50.339  1.00  0.00     0.027 C 
HETATM   16  C18 UNL     1      22.077   0.692  50.539  1.00  0.00     0.029 C 
BRANCH  14  17
HETATM   17  N5  UNL     1      18.646  -0.122  51.667  1.00  0.00    -0.405 N 
HETATM   18  C12 UNL     1      18.250  -0.692  52.924  1.00  0.00     0.147 C 
HETATM   19  C13 UNL     1      16.994  -1.487  52.792  1.00  0.00     0.291 C 
HETATM   20  N6  UNL     1      15.950  -0.815  52.071  1.00  0.00     0.087 N 
HETATM   21  C14 UNL     1      15.195   0.129  52.867  1.00  0.00     0.310 C 
HETATM   22  C15 UNL     1      16.405  -0.226  50.842  1.00  0.00     0.291 C 
HETATM   23  C16 UNL     1      17.637   0.640  51.009  1.00  0.00     0.147 C 
ENDBRANCH  14  17
ENDBRANCH   8  11
BRANCH   7  24
HETATM   24  C6  UNL     1      22.790   4.056  51.370  1.00  0.00     0.063 C 
HETATM   25  C7  UNL     1      22.822   5.073  52.216  1.00  0.00     0.058 C 
BRANCH  25  26
HETATM   26  N3  UNL     1      23.828   5.489  53.132  1.00  0.00    -0.312 NA
HETATM   27  H8  UNL     1      24.756   5.613  52.661  1.00  0.00     0.123 HD
HETATM   28  H9  UNL     1      24.784   5.631  52.717  1.00  0.00     0.123 HD
ENDBRANCH  25  26
ENDBRANCH   7  24
TORSDOF 4
ENDMDL
MODEL 3
REMARK VINA RESULT:      -7.6      2.683      7.048
REMARK  4 active torsions:
REMARK  status: ('A' for Active; 'I' for Inactive)
REMARK    1  A    between atoms: C5_7  and  C6_8 
REMARK    2  A    between atoms: C7_9  and  N3_10 
REMARK    3  A    between atoms: N4_11  and  C8_12 
REMARK    4  A    between atoms: C11_15  and  N5_16 
ROOT
HETATM    1  C1  UNL     1      18.847  -1.808  53.818  1.00  0.00     0.040 C 
HETATM    2  C2  UNL     1      18.185  -0.888  52.853  1.00  0.00     0.021 C 
HETATM    3  C3  UNL     1      18.842  -0.116  52.022  1.00  0.00     0.139 C 
HETATM    4  N1  UNL     1      18.122   0.731  51.136  1.00  0.00    -0.223 NA
HETATM    5  C4  UNL     1      18.512   1.471  50.153  1.00  0.00     0.237 C 
HETATM    6  N2  UNL     1      19.846   1.663  49.646  1.00  0.00    -0.223 NA
HETATM    7  C5  UNL     1      20.976   1.293  50.146  1.00  0.00     0.146 C 
HETATM    8  N4  UNL     1      21.250   0.574  51.364  1.00  0.00    -0.269 N 
HETATM    9  N7  UNL     1      20.262  -0.166  52.048  1.00  0.00    -0.280 N 
HETATM   10  H31 UNL     1      20.702  -0.881  52.692  1.00  0.00     0.189 HD
ENDROOT
BRANCH   8  11
HETATM   11  C8  UNL     1      22.590   0.647  51.853  1.00  0.00     0.110 C 
HETATM   12  C9  UNL     1      22.987  -0.512  52.754  1.00  0.00     0.029 C 
HETATM   13  C10 UNL     1      24.211  -0.062  53.563  1.00  0.00     0.027 C 
HETATM   14  C11 UNL     1      24.981   1.023  52.873  1.00  0.00     0.079 C 
HETATM   15  C17 UNL     1      24.194   2.306  52.745  1.00  0.00     0.027 C 
HETATM   16  C18 UNL     1      22.720   1.898  52.692  1.00  0.00     0.029 C 
BRANCH  14  17
HETATM   17  N5  UNL     1      26.261   1.165  53.487  1.00  0.00    -0.405 N 
HETATM   18  C12 UNL     1      26.677  -0.008  54.204  1.00  0.00     0.147 C 
HETATM   19  C13 UNL     1      27.892   0.257  55.027  1.00  0.00     0.291 C 
HETATM   20  N6  UNL     1      28.938   0.944  54.322  1.00  0.00     0.087 N 
HETATM   21  C14 UNL     1      29.760   0.083  53.499  1.00  0.00     0.310 C 
HETATM   22  C15 UNL     1      28.465   2.084  53.588  1.00  0.00     0.291 C 
HETATM   23  C16 UNL     1      27.278   1.778  52.698  1.00  0.00     0.147 C 
ENDBRANCH  14  17
ENDBRANCH   8  11
BRANCH   7  24
HETATM   24  C6  UNL     1      22.133   1.669  49.343  1.00  0.00     0.063 C 
HETATM   25  C7  UNL     1      22.348   2.961  49.158  1.00  0.00     0.058 C 
BRANCH  25  26
HETATM   26  N3  UNL     1      21.628   4.098  49.619  1.00  0.00    -0.312 NA
HETATM   27  H8  UNL     1      20.606   4.028  49.396  1.00  0.00     0.123 HD
HETATM   28  H9  UNL     1      20.594   4.086  49.424  1.00  0.00     0.123 HD
ENDBRANCH  25  26
ENDBRANCH   7  24
TORSDOF 4
ENDMDL
MODEL 4
REMARK VINA RESULT:      -7.4      1.613      3.687
REMARK  4 active torsions:
REMARK  status: ('A' for Active; 'I' for Inactive)
REMARK    1  A    between atoms: C5_7  and  C6_8 
REMARK    2  A    between atoms: C7_9  and  N3_10 
REMARK    3  A    between atoms: N4_11  and  C8_12 
REMARK    4  A    between atoms: C11_15  and  N5_16 
ROOT
HETATM    1  C1  UNL     1      21.668  -0.017  54.201  1.00  0.00     0.040 C 
HETATM    2  C2  UNL     1      22.878  -0.877  54.088  1.00  0.00     0.021 C 
HETATM    3  C3  UNL     1      24.035  -0.444  53.650  1.00  0.00     0.139 C 
HETATM    4  N1  UNL     1      25.135  -1.342  53.577  1.00  0.00    -0.223 NA
HETATM    5  C4  UNL     1      26.383  -1.146  53.315  1.00  0.00     0.237 C 
HETATM    6  N2  UNL     1      27.055   0.090  53.007  1.00  0.00    -0.223 NA
HETATM    7  C5  UNL     1      26.558   1.252  52.748  1.00  0.00     0.146 C 
HETATM    8  N4  UNL     1      25.181   1.669  52.688  1.00  0.00    -0.269 N 
HETATM    9  N7  UNL     1      24.134   0.920  53.265  1.00  0.00    -0.280 N 
HETATM   10  H31 UNL     1      23.279   1.524  53.425  1.00  0.00     0.189 HD
ENDROOT
BRANCH   8  11
HETATM   11  C8  UNL     1      24.921   2.896  52.004  1.00  0.00     0.110 C 
HETATM   12  C9  UNL     1      23.873   3.771  52.673  1.00  0.00     0.029 C 
HETATM   13  C10 UNL     1      23.364   4.761  51.616  1.00  0.00     0.027 C 
HETATM   14  C11 UNL     1      24.367   4.997  50.528  1.00  0.00     0.079 C 
HETATM   15  C17 UNL     1      24.635   3.760  49.704  1.00  0.00     0.027 C 
HETATM   16  C18 UNL     1      24.383   2.568  50.629  1.00  0.00     0.029 C 
BRANCH  14  17
HETATM   17  N5  UNL     1      23.992   6.149  49.774  1.00  0.00    -0.405 N 
HETATM   18  C12 UNL     1      23.834   7.326  50.582  1.00  0.00     0.147 C 
HETATM   19  C13 UNL     1      23.212   8.440  49.809  1.00  0.00     0.291 C 
HETATM   20  N6  UNL     1      23.805   8.659  48.520  1.00  0.00     0.087 N 
HETATM   21  C14 UNL     1      25.020   9.446  48.555  1.00  0.00     0.310 C 
HETATM   22  C15 UNL     1      23.981   7.448  47.768  1.00  0.00     0.291 C 
HETATM   23  C16 UNL     1      24.683   6.354  48.544  1.00  0.00     0.147 C 
ENDBRANCH  14  17
ENDBRANCH   8  11
BRANCH   7  24
HETATM   24  C6  UNL     1      27.557   2.279  52.480  1.00  0.00     0.063 C 
HETATM   25  C7  UNL     1      28.496   2.463  53.394  1.00  0.00     0.058 C 
BRANCH  25  26
HETATM   26  N3  UNL     1      28.719   1.817  54.640  1.00  0.00    -0.312 NA
HETATM   27  H8  UNL     1      28.081   2.182  55.388  1.00  0.00     0.123 HD
HETATM   28  H9  UNL     1      28.106   2.141  55.432  1.00  0.00     0.123 HD
ENDBRANCH  25  26
ENDBRANCH   7  24
TORSDOF 4
ENDMDL
MODEL 5
REMARK VINA RESULT:      -7.3      2.818      6.718
REMARK  4 active torsions:
REMARK  status: ('A' for Active; 'I' for Inactive)
REMARK    1  A    between atoms: C5_7  and  C6_8 
REMARK    2  A    between atoms: C7_9  and  N3_10 
REMARK    3  A    between atoms: N4_11  and  C8_12 
REMARK    4  A    between atoms: C11_15  and  N5_16 
ROOT
HETATM    1  C1  UNL     1      21.557   3.331  48.071  1.00  0.00     0.040 C 
HETATM    2  C2  UNL     1      20.401   2.486  48.477  1.00  0.00     0.021 C 
HETATM    3  C3  UNL     1      20.288   1.933  49.660  1.00  0.00     0.139 C 
HETATM    4  N1  UNL     1      19.144   1.141  49.956  1.00  0.00    -0.223 NA
HETATM    5  C4  UNL     1      18.735   0.609  51.057  1.00  0.00     0.237 C 
HETATM    6  N2  UNL     1      19.340   0.662  52.363  1.00  0.00    -0.223 NA
HETATM    7  C5  UNL     1      20.504   1.094  52.711  1.00  0.00     0.146 C 
HETATM    8  N4  UNL     1      21.555   1.656  51.901  1.00  0.00    -0.269 N 
HETATM    9  N7  UNL     1      21.328   2.157  50.602  1.00  0.00    -0.280 N 
HETATM   10  H31 UNL     1      22.100   2.820  50.311  1.00  0.00     0.189 HD
ENDROOT
BRANCH   8  11
HETATM   11  C8  UNL     1      22.858   1.681  52.486  1.00  0.00     0.110 C 
HETATM   12  C9  UNL     1      23.726   2.840  52.020  1.00  0.00     0.029 C 
HETATM   13  C10 UNL     1      25.183   2.469  52.326  1.00  0.00     0.027 C 
HETATM   14  C11 UNL     1      25.295   1.478  53.444  1.00  0.00     0.079 C 
HETATM   15  C17 UNL     1      24.691   0.137  53.096  1.00  0.00     0.027 C 
HETATM   16  C18 UNL     1      23.584   0.419  52.079  1.00  0.00     0.029 C 
BRANCH  14  17
HETATM   17  N5  UNL     1      26.645   1.425  53.903  1.00  0.00    -0.405 N 
HETATM   18  C12 UNL     1      27.002   0.151  54.463  1.00  0.00     0.147 C 
HETATM   19  C13 UNL     1      28.327   0.207  55.147  1.00  0.00     0.291 C 
HETATM   20  N6  UNL     1      29.356   0.845  54.376  1.00  0.00     0.087 N 
HETATM   21  C14 UNL     1      29.973  -0.014  53.388  1.00  0.00     0.310 C 
HETATM   22  C15 UNL     1      28.937   2.094  53.803  1.00  0.00     0.291 C 
HETATM   23  C16 UNL     1      27.628   2.001  53.047  1.00  0.00     0.147 C 
ENDBRANCH  14  17
ENDBRANCH   8  11
BRANCH   7  24
HETATM   24  C6  UNL     1      20.774   0.989  54.139  1.00  0.00     0.063 C 
HETATM   25  C7  UNL     1      20.763  -0.223  54.670  1.00  0.00     0.058 C 
BRANCH  25  26
HETATM   26  N3  UNL     1      20.527  -1.494  54.079  1.00  0.00    -0.312 NA
HETATM   27  H8  UNL     1      21.417  -1.942  53.752  1.00  0.00     0.123 HD
HETATM   28  H9  UNL     1      21.384  -1.995  53.731  1.00  0.00     0.123 HD
ENDBRANCH  25  26
ENDBRANCH   7  24
TORSDOF 4
ENDMDL
MODEL 6
REMARK VINA RESULT:      -7.2      2.187      7.782
REMARK  4 active torsions:
REMARK  status: ('A' for Active; 'I' for Inactive)
REMARK    1  A    between atoms: C5_7  and  C6_8 
REMARK    2  A    between atoms: C7_9  and  N3_10 
REMARK    3  A    between atoms: N4_11  and  C8_12 
REMARK    4  A    between atoms: C11_15  and  N5_16 
ROOT
HETATM    1  C1  UNL     1      18.466   2.247  50.904  1.00  0.00     0.040 C 
HETATM    2  C2  UNL     1      18.569   3.712  50.665  1.00  0.00     0.021 C 
HETATM    3  C3  UNL     1      19.708   4.347  50.538  1.00  0.00     0.139 C 
HETATM    4  N1  UNL     1      19.706   5.750  50.310  1.00  0.00    -0.223 NA
HETATM    5  C4  UNL     1      20.660   6.572  50.024  1.00  0.00     0.237 C 
HETATM    6  N2  UNL     1      22.062   6.296  49.846  1.00  0.00    -0.223 NA
HETATM    7  C5  UNL     1      22.726   5.219  50.095  1.00  0.00     0.146 C 
HETATM    8  N4  UNL     1      22.267   3.961  50.627  1.00  0.00    -0.269 N 
HETATM    9  N7  UNL     1      20.907   3.589  50.635  1.00  0.00    -0.280 N 
HETATM   10  H31 UNL     1      20.801   2.540  50.732  1.00  0.00     0.189 HD
ENDROOT
BRANCH   8  11
HETATM   11  C8  UNL     1      23.273   3.096  51.157  1.00  0.00     0.110 C 
HETATM   12  C9  UNL     1      22.936   1.616  51.058  1.00  0.00     0.029 C 
HETATM   13  C10 UNL     1      23.826   0.877  52.066  1.00  0.00     0.027 C 
HETATM   14  C11 UNL     1      25.082   1.633  52.376  1.00  0.00     0.079 C 
HETATM   15  C17 UNL     1      24.816   2.940  53.085  1.00  0.00     0.027 C 
HETATM   16  C18 UNL     1      23.427   3.396  52.632  1.00  0.00     0.029 C 
BRANCH  14  17
HETATM   17  N5  UNL     1      26.007   0.772  53.038  1.00  0.00    -0.405 N 
HETATM   18  C12 UNL     1      26.781  -0.030  52.132  1.00  0.00     0.147 C 
HETATM   19  C13 UNL     1      27.554  -1.081  52.855  1.00  0.00     0.291 C 
HETATM   20  N6  UNL     1      28.267  -0.597  54.003  1.00  0.00     0.087 N 
HETATM   21  C14 UNL     1      29.534   0.030  53.689  1.00  0.00     0.310 C 
HETATM   22  C15 UNL     1      27.463   0.233  54.855  1.00  0.00     0.291 C 
HETATM   23  C16 UNL     1      26.747   1.343  54.115  1.00  0.00     0.147 C 
ENDBRANCH  14  17
ENDBRANCH   8  11
BRANCH   7  24
HETATM   24  C6  UNL     1      24.146   5.311  49.783  1.00  0.00     0.063 C 
HETATM   25  C7  UNL     1      24.879   6.122  50.529  1.00  0.00     0.058 C 
BRANCH  25  26
HETATM   26  N3  UNL     1      24.520   6.955  51.624  1.00  0.00    -0.312 NA
HETATM   27  H8  UNL     1      23.694   6.575  52.147  1.00  0.00     0.123 HD
HETATM   28  H9  UNL     1      23.695   6.625  52.189  1.00  0.00     0.123 HD
ENDBRANCH  25  26
ENDBRANCH   7  24
TORSDOF 4
ENDMDL
MODEL 7
REMARK VINA RESULT:      -7.1      2.198      2.689
REMARK  4 active torsions:
REMARK  status: ('A' for Active; 'I' for Inactive)
REMARK    1  A    between atoms: C5_7  and  C6_8 
REMARK    2  A    between atoms: C7_9  and  N3_10 
REMARK    3  A    between atoms: N4_11  and  C8_12 
REMARK    4  A    between atoms: C11_15  and  N5_16 
ROOT
HETATM    1  C1  UNL     1      27.103  -0.433  53.186  1.00  0.00     0.040 C 
HETATM    2  C2  UNL     1      25.769  -0.826  53.716  1.00  0.00     0.021 C 
HETATM    3  C3  UNL     1      24.643  -0.294  53.310  1.00  0.00     0.139 C 
HETATM    4  N1  UNL     1      23.415  -0.735  53.876  1.00  0.00    -0.223 NA
HETATM    5  C4  UNL     1      22.189  -0.478  53.567  1.00  0.00     0.237 C 
HETATM    6  N2  UNL     1      21.684   0.366  52.516  1.00  0.00    -0.223 NA
HETATM    7  C5  UNL     1      22.314   1.195  51.753  1.00  0.00     0.146 C 
HETATM    8  N4  UNL     1      23.715   1.527  51.720  1.00  0.00    -0.269 N 
HETATM    9  N7  UNL     1      24.705   0.711  52.307  1.00  0.00    -0.280 N 
HETATM   10  H31 UNL     1      25.659   0.918  51.898  1.00  0.00     0.189 HD
ENDROOT
BRANCH   8  11
HETATM   11  C8  UNL     1      24.060   2.743  51.053  1.00  0.00     0.110 C 
HETATM   12  C9  UNL     1      25.440   2.732  50.414  1.00  0.00     0.029 C 
HETATM   13  C10 UNL     1      25.848   4.194  50.187  1.00  0.00     0.027 C 
HETATM   14  C11 UNL     1      24.663   5.104  50.073  1.00  0.00     0.079 C 
HETATM   15  C17 UNL     1      23.870   5.190  51.356  1.00  0.00     0.027 C 
HETATM   16  C18 UNL     1      24.076   3.856  52.076  1.00  0.00     0.029 C 
BRANCH  14  17
HETATM   17  N5  UNL     1      25.076   6.361  49.539  1.00  0.00    -0.405 N 
HETATM   18  C12 UNL     1      24.875   7.454  50.449  1.00  0.00     0.147 C 
HETATM   19  C13 UNL     1      25.087   8.770  49.777  1.00  0.00     0.291 C 
HETATM   20  N6  UNL     1      26.288   8.840  48.993  1.00  0.00     0.087 N 
HETATM   21  C14 UNL     1      27.482   9.113  49.765  1.00  0.00     0.310 C 
HETATM   22  C15 UNL     1      26.464   7.704  48.132  1.00  0.00     0.291 C 
HETATM   23  C16 UNL     1      26.322   6.377  48.847  1.00  0.00     0.147 C 
ENDBRANCH  14  17
ENDBRANCH   8  11
BRANCH   7  24
HETATM   24  C6  UNL     1      21.462   1.883  50.792  1.00  0.00     0.063 C 
HETATM   25  C7  UNL     1      20.523   2.680  51.276  1.00  0.00     0.058 C 
BRANCH  25  26
HETATM   26  N3  UNL     1      20.179   3.002  52.618  1.00  0.00    -0.312 NA
HETATM   27  H8  UNL     1      20.940   2.738  53.289  1.00  0.00     0.123 HD
HETATM   28  H9  UNL     1      20.906   2.760  53.340  1.00  0.00     0.123 HD
ENDBRANCH  25  26
ENDBRANCH   7  24
TORSDOF 4
ENDMDL
MODEL 8
REMARK VINA RESULT:      -7.1      2.189      7.195
REMARK  4 active torsions:
REMARK  status: ('A' for Active; 'I' for Inactive)
REMARK    1  A    between atoms: C5_7  and  C6_8 
REMARK    2  A    between atoms: C7_9  and  N3_10 
REMARK    3  A    between atoms: N4_11  and  C8_12 
REMARK    4  A    between atoms: C11_15  and  N5_16 
ROOT
HETATM    1  C1  UNL     1      23.057   7.677  50.586  1.00  0.00     0.040 C 
HETATM    2  C2  UNL     1      21.726   7.248  50.075  1.00  0.00     0.021 C 
HETATM    3  C3  UNL     1      21.160   6.110  50.394  1.00  0.00     0.139 C 
HETATM    4  N1  UNL     1      19.885   5.787  49.855  1.00  0.00    -0.223 NA
HETATM    5  C4  UNL     1      19.071   4.818  50.106  1.00  0.00     0.237 C 
HETATM    6  N2  UNL     1      19.222   3.736  51.043  1.00  0.00    -0.223 NA
HETATM    7  C5  UNL     1      20.258   3.373  51.720  1.00  0.00     0.146 C 
HETATM    8  N4  UNL     1      21.582   3.942  51.746  1.00  0.00    -0.269 N 
HETATM    9  N7  UNL     1      21.860   5.243  51.277  1.00  0.00    -0.280 N 
HETATM   10  H31 UNL     1      22.768   5.606  51.680  1.00  0.00     0.189 HD
ENDROOT
BRANCH   8  11
HETATM   11  C8  UNL     1      22.616   3.112  52.278  1.00  0.00     0.110 C 
HETATM   12  C9  UNL     1      23.787   3.880  52.871  1.00  0.00     0.029 C 
HETATM   13  C10 UNL     1      24.977   2.914  52.939  1.00  0.00     0.027 C 
HETATM   14  C11 UNL     1      24.544   1.480  52.998  1.00  0.00     0.079 C 
HETATM   15  C17 UNL     1      23.840   1.032  51.739  1.00  0.00     0.027 C 
HETATM   16  C18 UNL     1      23.183   2.281  51.149  1.00  0.00     0.029 C 
BRANCH  14  17
HETATM   17  N5  UNL     1      25.646   0.664  53.392  1.00  0.00    -0.405 N 
HETATM   18  C12 UNL     1      26.370   0.117  52.278  1.00  0.00     0.147 C 
HETATM   19  C13 UNL     1      27.353  -0.915  52.719  1.00  0.00     0.291 C 
HETATM   20  N6  UNL     1      28.162  -0.512  53.835  1.00  0.00     0.087 N 
HETATM   21  C14 UNL     1      29.291   0.320  53.476  1.00  0.00     0.310 C 
HETATM   22  C15 UNL     1      27.397   0.066  54.904  1.00  0.00     0.291 C 
HETATM   23  C16 UNL     1      26.460   1.165  54.449  1.00  0.00     0.147 C 
ENDBRANCH  14  17
ENDBRANCH   8  11
BRANCH   7  24
HETATM   24  C6  UNL     1      20.034   2.218  52.579  1.00  0.00     0.063 C 
HETATM   25  C7  UNL     1      19.714   1.078  51.988  1.00  0.00     0.058 C 
BRANCH  25  26
HETATM   26  N3  UNL     1      19.543   0.760  50.613  1.00  0.00    -0.312 NA
HETATM   27  H8  UNL     1      19.248  -0.237  50.477  1.00  0.00     0.123 HD
HETATM   28  H9  UNL     1      19.246  -0.230  50.412  1.00  0.00     0.123 HD
ENDBRANCH  25  26
ENDBRANCH   7  24
TORSDOF 4
ENDMDL
MODEL 9
REMARK VINA RESULT:      -7.0      2.333      4.293
REMARK  4 active torsions:
REMARK  status: ('A' for Active; 'I' for Inactive)
REMARK    1  A    between atoms: C5_7  and  C6_8 
REMARK    2  A    between atoms: C7_9  and  N3_10 
REMARK    3  A    between atoms: N4_11  and  C8_12 
REMARK    4  A    between atoms: C11_15  and  N5_16 
ROOT
HETATM    1  C1  UNL     1      20.447   0.511  54.132  1.00  0.00     0.040 C 
HETATM    2  C2  UNL     1      21.663  -0.293  54.436  1.00  0.00     0.021 C 
HETATM    3  C3  UNL     1      22.822  -0.099  53.856  1.00  0.00     0.139 C 
HETATM    4  N1  UNL     1      23.928  -0.919  54.212  1.00  0.00    -0.223 NA
HETATM    5  C4  UNL     1      25.178  -0.852  53.898  1.00  0.00     0.237 C 
HETATM    6  N2  UNL     1      25.846   0.111  53.061  1.00  0.00    -0.223 NA
HETATM    7  C5  UNL     1      25.346   1.019  52.293  1.00  0.00     0.146 C 
HETATM    8  N4  UNL     1      23.967   1.347  52.038  1.00  0.00    -0.269 N 
HETATM    9  N7  UNL     1      22.918   0.937  52.888  1.00  0.00    -0.280 N 
HETATM   10  H31 UNL     1      22.058   1.538  52.746  1.00  0.00     0.189 HD
ENDROOT
BRANCH   8  11
HETATM   11  C8  UNL     1      23.708   2.121  50.865  1.00  0.00     0.110 C 
HETATM   12  C9  UNL     1      23.439   3.592  51.137  1.00  0.00     0.029 C 
HETATM   13  C10 UNL     1      22.719   4.159  49.906  1.00  0.00     0.027 C 
HETATM   14  C11 UNL     1      23.014   3.374  48.664  1.00  0.00     0.079 C 
HETATM   15  C17 UNL     1      22.477   1.963  48.725  1.00  0.00     0.027 C 
HETATM   16  C18 UNL     1      22.460   1.577  50.205  1.00  0.00     0.029 C 
BRANCH  14  17
HETATM   17  N5  UNL     1      22.605   4.120  47.519  1.00  0.00    -0.405 N 
HETATM   18  C12 UNL     1      21.801   3.358  46.605  1.00  0.00     0.147 C 
HETATM   19  C13 UNL     1      21.598   4.085  45.318  1.00  0.00     0.291 C 
HETATM   20  N6  UNL     1      21.207   5.457  45.477  1.00  0.00     0.087 N 
HETATM   21  C14 UNL     1      19.794   5.643  45.732  1.00  0.00     0.310 C 
HETATM   22  C15 UNL     1      22.015   6.165  46.431  1.00  0.00     0.291 C 
HETATM   23  C16 UNL     1      22.146   5.448  47.759  1.00  0.00     0.147 C 
ENDBRANCH  14  17
ENDBRANCH   8  11
BRANCH   7  24
HETATM   24  C6  UNL     1      26.342   1.817  51.591  1.00  0.00     0.063 C 
HETATM   25  C7  UNL     1      27.227   2.467  52.329  1.00  0.00     0.058 C 
BRANCH  25  26
HETATM   26  N3  UNL     1      27.393   2.532  53.739  1.00  0.00    -0.312 NA
HETATM   27  H8  UNL     1      26.837   3.314  54.161  1.00  0.00     0.123 HD
HETATM   28  H9  UNL     1      26.858   3.299  54.221  1.00  0.00     0.123 HD
ENDBRANCH  25  26
ENDBRANCH   7  24
TORSDOF 4
ENDMDL
