MODEL 1
REMARK VINA RESULT:      -6.6      0.000      0.000
REMARK  5 active torsions:
REMARK  status: ('A' for Active; 'I' for Inactive)
REMARK    1  A    between atoms: O1_2  and  C2_3 
REMARK    2  A    between atoms: C4_5  and  N1_6 
REMARK    3  A    between atoms: C8_10  and  C9_11 
REMARK    4  A    between atoms: C12_16  and  O2_17 
REMARK    5  A    between atoms: C14_19  and  O3_20 
ROOT
HETATM    1  C2  UNL     1      24.772   0.145  53.050  1.00  0.00     0.106 A 
HETATM    2  C3  UNL     1      24.685   1.124  52.084  1.00  0.00     0.071 A 
HETATM    3  C4  UNL     1      25.630   2.132  51.929  1.00  0.00     0.063 A 
HETATM    4  C11 UNL     1      26.662   2.058  52.832  1.00  0.00     0.071 A 
HETATM    5  C12 UNL     1      26.799   1.103  53.816  1.00  0.00     0.106 A 
HETATM    6  C14 UNL     1      25.835   0.127  53.929  1.00  0.00     0.135 A 
ENDROOT
BRANCH   3   7
HETATM    7  N1  UNL     1      25.488   3.115  50.919  1.00  0.00    -0.245 N 
HETATM    8  C5  UNL     1      26.439   3.191  49.876  1.00  0.00     0.119 C 
HETATM    9  C6  UNL     1      26.816   4.273  49.209  1.00  0.00     0.020 C 
HETATM   10  C7  UNL     1      26.362   5.672  49.358  1.00  0.00     0.011 C 
HETATM   11  C8  UNL     1      25.252   6.059  50.005  1.00  0.00    -0.030 C 
HETATM   12  C10 UNL     1      24.272   5.190  50.687  1.00  0.00     0.147 C 
HETATM   13  N2  UNL     1      24.368   3.944  51.075  1.00  0.00    -0.180 NA
BRANCH  11  14
HETATM   14  C9  UNL     1      24.975   7.514  50.041  1.00  0.00     0.119 C 
HETATM   15  I1  UNL     1      26.778   8.605  49.628  1.00  0.00    -0.085 I 
ENDBRANCH  11  14
ENDBRANCH   3   7
BRANCH   1  16
HETATM   16  O1  UNL     1      23.810  -0.843  53.174  1.00  0.00    -0.353 OA
HETATM   17  C1  UNL     1      22.433  -0.627  53.149  1.00  0.00     0.210 C 
ENDBRANCH   1  16
BRANCH   5  18
HETATM   18  O2  UNL     1      27.871   1.091  54.694  1.00  0.00    -0.353 OA
HETATM   19  C13 UNL     1      29.104   0.574  54.213  1.00  0.00     0.210 C 
ENDBRANCH   5  18
BRANCH   6  20
HETATM   20  O3  UNL     1      25.918  -0.853  54.891  1.00  0.00    -0.351 OA
HETATM   21  C15 UNL     1      25.199  -0.836  56.103  1.00  0.00     0.210 C 
ENDBRANCH   6  20
TORSDOF 5
ENDMDL
MODEL 2
REMARK VINA RESULT:      -6.5      0.287      2.777
REMARK  5 active torsions:
REMARK  status: ('A' for Active; 'I' for Inactive)
REMARK    1  A    between atoms: O1_2  and  C2_3 
REMARK    2  A    between atoms: C4_5  and  N1_6 
REMARK    3  A    between atoms: C8_10  and  C9_11 
REMARK    4  A    between atoms: C12_16  and  O2_17 
REMARK    5  A    between atoms: C14_19  and  O3_20 
ROOT
HETATM    1  C2  UNL     1      26.506   1.058  53.861  1.00  0.00     0.106 A 
HETATM    2  C3  UNL     1      26.366   2.027  52.891  1.00  0.00     0.071 A 
HETATM    3  C4  UNL     1      25.301   2.067  51.998  1.00  0.00     0.063 A 
HETATM    4  C11 UNL     1      24.400   1.047  52.176  1.00  0.00     0.071 A 
HETATM    5  C12 UNL     1      24.490   0.054  53.127  1.00  0.00     0.106 A 
HETATM    6  C14 UNL     1      25.564   0.058  53.988  1.00  0.00     0.135 A 
ENDROOT
BRANCH   3   7
HETATM    7  N1  UNL     1      25.210   3.086  51.018  1.00  0.00    -0.245 N 
HETATM    8  C5  UNL     1      26.164   3.146  49.977  1.00  0.00     0.119 C 
HETATM    9  C6  UNL     1      26.596   4.228  49.343  1.00  0.00     0.020 C 
HETATM   10  C7  UNL     1      26.215   5.642  49.535  1.00  0.00     0.011 C 
HETATM   11  C8  UNL     1      25.125   6.065  50.195  1.00  0.00    -0.030 C 
HETATM   12  C10 UNL     1      24.101   5.227  50.851  1.00  0.00     0.147 C 
HETATM   13  N2  UNL     1      24.134   3.966  51.200  1.00  0.00    -0.180 NA
BRANCH  11  14
HETATM   14  C9  UNL     1      24.922   7.531  50.276  1.00  0.00     0.119 C 
HETATM   15  I1  UNL     1      26.712   8.544  49.661  1.00  0.00    -0.085 I 
ENDBRANCH  11  14
ENDBRANCH   3   7
BRANCH   1  16
HETATM   16  O1  UNL     1      27.582   1.052  54.733  1.00  0.00    -0.353 OA
HETATM   17  C1  UNL     1      28.863   0.599  54.423  1.00  0.00     0.210 C 
ENDBRANCH   1  16
BRANCH   5  18
HETATM   18  O2  UNL     1      23.539  -0.946  53.248  1.00  0.00    -0.353 OA
HETATM   19  C13 UNL     1      22.216  -0.553  53.590  1.00  0.00     0.210 C 
ENDBRANCH   5  18
BRANCH   6  20
HETATM   20  O3  UNL     1      25.708  -0.906  54.958  1.00  0.00    -0.351 OA
HETATM   21  C15 UNL     1      25.056  -0.877  56.207  1.00  0.00     0.210 C 
ENDBRANCH   6  20
TORSDOF 5
ENDMDL
MODEL 3
REMARK VINA RESULT:      -6.4      4.160      6.526
REMARK  5 active torsions:
REMARK  status: ('A' for Active; 'I' for Inactive)
REMARK    1  A    between atoms: O1_2  and  C2_3 
REMARK    2  A    between atoms: C4_5  and  N1_6 
REMARK    3  A    between atoms: C8_10  and  C9_11 
REMARK    4  A    between atoms: C12_16  and  O2_17 
REMARK    5  A    between atoms: C14_19  and  O3_20 
ROOT
HETATM    1  C2  UNL     1      20.417   1.647  52.479  1.00  0.00     0.106 A 
HETATM    2  C3  UNL     1      21.608   0.963  52.587  1.00  0.00     0.071 A 
HETATM    3  C4  UNL     1      22.853   1.571  52.465  1.00  0.00     0.063 A 
HETATM    4  C11 UNL     1      22.781   2.921  52.227  1.00  0.00     0.071 A 
HETATM    5  C12 UNL     1      21.621   3.654  52.110  1.00  0.00     0.106 A 
HETATM    6  C14 UNL     1      20.413   3.005  52.237  1.00  0.00     0.135 A 
ENDROOT
BRANCH   3   7
HETATM    7  N1  UNL     1      24.046   0.816  52.584  1.00  0.00    -0.245 N 
HETATM    8  C5  UNL     1      24.099  -0.278  53.476  1.00  0.00     0.119 C 
HETATM    9  C6  UNL     1      25.159  -0.731  54.132  1.00  0.00     0.020 C 
HETATM   10  C7  UNL     1      26.552  -0.238  54.117  1.00  0.00     0.011 C 
HETATM   11  C8  UNL     1      27.069   0.588  53.195  1.00  0.00    -0.030 C 
HETATM   12  C10 UNL     1      26.372   1.164  52.027  1.00  0.00     0.147 C 
HETATM   13  N2  UNL     1      25.094   1.262  51.764  1.00  0.00    -0.180 NA
BRANCH  11  14
HETATM   14  C9  UNL     1      28.492   0.966  53.361  1.00  0.00     0.119 C 
HETATM   15  I1  UNL     1      29.678  -0.798  53.661  1.00  0.00    -0.085 I 
ENDBRANCH  11  14
ENDBRANCH   3   7
BRANCH   1  16
HETATM   16  O1  UNL     1      19.196   1.006  52.606  1.00  0.00    -0.353 OA
HETATM   17  C1  UNL     1      18.820  -0.146  51.918  1.00  0.00     0.210 C 
ENDBRANCH   1  16
BRANCH   5  18
HETATM   18  O2  UNL     1      21.626   5.018  51.868  1.00  0.00    -0.353 OA
HETATM   19  C13 UNL     1      21.870   5.445  50.535  1.00  0.00     0.210 C 
ENDBRANCH   5  18
BRANCH   6  20
HETATM   20  O3  UNL     1      19.221   3.683  52.131  1.00  0.00    -0.351 OA
HETATM   21  C15 UNL     1      18.495   3.824  50.932  1.00  0.00     0.210 C 
ENDBRANCH   6  20
TORSDOF 5
ENDMDL
MODEL 4
REMARK VINA RESULT:      -6.3      3.662      6.379
REMARK  5 active torsions:
REMARK  status: ('A' for Active; 'I' for Inactive)
REMARK    1  A    between atoms: O1_2  and  C2_3 
REMARK    2  A    between atoms: C4_5  and  N1_6 
REMARK    3  A    between atoms: C8_10  and  C9_11 
REMARK    4  A    between atoms: C12_16  and  O2_17 
REMARK    5  A    between atoms: C14_19  and  O3_20 
ROOT
HETATM    1  C2  UNL     1      25.825  -0.100  53.307  1.00  0.00     0.106 A 
HETATM    2  C3  UNL     1      24.492  -0.301  53.596  1.00  0.00     0.071 A 
HETATM    3  C4  UNL     1      23.489   0.596  53.242  1.00  0.00     0.063 A 
HETATM    4  C11 UNL     1      23.955   1.702  52.575  1.00  0.00     0.071 A 
HETATM    5  C12 UNL     1      25.273   1.952  52.260  1.00  0.00     0.106 A 
HETATM    6  C14 UNL     1      26.228   1.034  52.633  1.00  0.00     0.135 A 
ENDROOT
BRANCH   3   7
HETATM    7  N1  UNL     1      22.135   0.339  53.567  1.00  0.00    -0.245 N 
HETATM    8  C5  UNL     1      21.811  -0.737  54.425  1.00  0.00     0.119 C 
HETATM    9  C6  UNL     1      20.704  -1.468  54.416  1.00  0.00     0.020 C 
HETATM   10  C7  UNL     1      19.522  -1.370  53.534  1.00  0.00     0.011 C 
HETATM   11  C8  UNL     1      19.222  -0.315  52.761  1.00  0.00    -0.030 C 
HETATM   12  C10 UNL     1      19.989   0.941  52.632  1.00  0.00     0.147 C 
HETATM   13  N2  UNL     1      21.221   1.221  52.972  1.00  0.00    -0.180 NA
BRANCH  11  14
HETATM   14  C9  UNL     1      17.987  -0.416  51.947  1.00  0.00     0.119 C 
HETATM   15  I1  UNL     1      18.117   0.916  50.268  1.00  0.00    -0.085 I 
ENDBRANCH  11  14
ENDBRANCH   3   7
BRANCH   1  16
HETATM   16  O1  UNL     1      26.795  -1.016  53.676  1.00  0.00    -0.353 OA
HETATM   17  C1  UNL     1      27.276  -2.044  52.867  1.00  0.00     0.210 C 
ENDBRANCH   1  16
BRANCH   5  18
HETATM   18  O2  UNL     1      25.669   3.094  51.583  1.00  0.00    -0.353 OA
HETATM   19  C13 UNL     1      24.650   3.905  51.014  1.00  0.00     0.210 C 
ENDBRANCH   5  18
BRANCH   6  20
HETATM   20  O3  UNL     1      27.559   1.229  52.347  1.00  0.00    -0.351 OA
HETATM   21  C15 UNL     1      28.468   1.877  53.208  1.00  0.00     0.210 C 
ENDBRANCH   6  20
TORSDOF 5
ENDMDL
MODEL 5
REMARK VINA RESULT:      -6.3      4.098      6.453
REMARK  5 active torsions:
REMARK  status: ('A' for Active; 'I' for Inactive)
REMARK    1  A    between atoms: O1_2  and  C2_3 
REMARK    2  A    between atoms: C4_5  and  N1_6 
REMARK    3  A    between atoms: C8_10  and  C9_11 
REMARK    4  A    between atoms: C12_16  and  O2_17 
REMARK    5  A    between atoms: C14_19  and  O3_20 
ROOT
HETATM    1  C2  UNL     1      25.252   2.064  52.179  1.00  0.00     0.106 A 
HETATM    2  C3  UNL     1      23.906   1.867  52.400  1.00  0.00     0.071 A 
HETATM    3  C4  UNL     1      23.394   0.749  53.050  1.00  0.00     0.063 A 
HETATM    4  C11 UNL     1      24.360  -0.140  53.452  1.00  0.00     0.071 A 
HETATM    5  C12 UNL     1      25.716   0.007  53.258  1.00  0.00     0.106 A 
HETATM    6  C14 UNL     1      26.173   1.131  52.608  1.00  0.00     0.135 A 
ENDROOT
BRANCH   3   7
HETATM    7  N1  UNL     1      21.999   0.597  53.247  1.00  0.00    -0.245 N 
HETATM    8  C5  UNL     1      21.522  -0.369  54.162  1.00  0.00     0.119 C 
HETATM    9  C6  UNL     1      20.378  -1.038  54.101  1.00  0.00     0.020 C 
HETATM   10  C7  UNL     1      19.303  -0.968  53.089  1.00  0.00     0.011 C 
HETATM   11  C8  UNL     1      19.152   0.018  52.192  1.00  0.00    -0.030 C 
HETATM   12  C10 UNL     1      20.005   1.212  52.029  1.00  0.00     0.147 C 
HETATM   13  N2  UNL     1      21.210   1.461  52.475  1.00  0.00    -0.180 NA
BRANCH  11  14
HETATM   14  C9  UNL     1      18.005  -0.100  51.260  1.00  0.00     0.119 C 
HETATM   15  I1  UNL     1      16.283  -0.821  52.321  1.00  0.00    -0.085 I 
ENDBRANCH  11  14
ENDBRANCH   3   7
BRANCH   1  16
HETATM   16  O1  UNL     1      25.724   3.191  51.528  1.00  0.00    -0.353 OA
HETATM   17  C1  UNL     1      25.522   3.481  50.179  1.00  0.00     0.210 C 
ENDBRANCH   1  16
BRANCH   5  18
HETATM   18  O2  UNL     1      26.634  -0.935  53.693  1.00  0.00    -0.353 OA
HETATM   19  C13 UNL     1      26.994  -1.966  52.783  1.00  0.00     0.210 C 
ENDBRANCH   5  18
BRANCH   6  20
HETATM   20  O3  UNL     1      27.515   1.334  52.386  1.00  0.00    -0.351 OA
HETATM   21  C15 UNL     1      28.386   1.950  53.306  1.00  0.00     0.210 C 
ENDBRANCH   6  20
TORSDOF 5
ENDMDL
MODEL 6
REMARK VINA RESULT:      -6.3      4.591      7.723
REMARK  5 active torsions:
REMARK  status: ('A' for Active; 'I' for Inactive)
REMARK    1  A    between atoms: O1_2  and  C2_3 
REMARK    2  A    between atoms: C4_5  and  N1_6 
REMARK    3  A    between atoms: C8_10  and  C9_11 
REMARK    4  A    between atoms: C12_16  and  O2_17 
REMARK    5  A    between atoms: C14_19  and  O3_20 
ROOT
HETATM    1  C2  UNL     1      27.797   6.152  48.425  1.00  0.00     0.106 A 
HETATM    2  C3  UNL     1      27.279   4.928  48.793  1.00  0.00     0.071 A 
HETATM    3  C4  UNL     1      26.140   4.785  49.578  1.00  0.00     0.063 A 
HETATM    4  C11 UNL     1      25.579   5.981  49.951  1.00  0.00     0.071 A 
HETATM    5  C12 UNL     1      26.053   7.229  49.612  1.00  0.00     0.106 A 
HETATM    6  C14 UNL     1      27.184   7.318  48.833  1.00  0.00     0.135 A 
ENDROOT
BRANCH   3   7
HETATM    7  N1  UNL     1      25.655   3.501  49.929  1.00  0.00    -0.245 N 
HETATM    8  C5  UNL     1      24.288   3.194  49.743  1.00  0.00     0.119 C 
HETATM    9  C6  UNL     1      23.547   2.357  50.458  1.00  0.00     0.020 C 
HETATM   10  C7  UNL     1      23.927   1.527  51.620  1.00  0.00     0.011 C 
HETATM   11  C8  UNL     1      25.186   1.240  51.985  1.00  0.00    -0.030 C 
HETATM   12  C10 UNL     1      26.428   1.681  51.318  1.00  0.00     0.147 C 
HETATM   13  N2  UNL     1      26.630   2.638  50.448  1.00  0.00    -0.180 NA
BRANCH  11  14
HETATM   14  C9  UNL     1      25.354   0.388  53.186  1.00  0.00     0.119 C 
HETATM   15  I1  UNL     1      26.998  -0.962  52.891  1.00  0.00    -0.085 I 
ENDBRANCH  11  14
ENDBRANCH   3   7
BRANCH   1  16
HETATM   16  O1  UNL     1      28.934   6.254  47.641  1.00  0.00    -0.353 OA
HETATM   17  C1  UNL     1      30.211   5.851  48.027  1.00  0.00     0.210 C 
ENDBRANCH   1  16
BRANCH   5  18
HETATM   18  O2  UNL     1      25.431   8.397  50.026  1.00  0.00    -0.353 OA
HETATM   19  C13 UNL     1      24.010   8.421  50.013  1.00  0.00     0.210 C 
ENDBRANCH   5  18
BRANCH   6  20
HETATM   20  O3  UNL     1      27.705   8.536  48.462  1.00  0.00    -0.351 OA
HETATM   21  C15 UNL     1      28.648   9.259  49.219  1.00  0.00     0.210 C 
ENDBRANCH   6  20
TORSDOF 5
ENDMDL
MODEL 7
REMARK VINA RESULT:      -6.2      4.660      7.507
REMARK  5 active torsions:
REMARK  status: ('A' for Active; 'I' for Inactive)
REMARK    1  A    between atoms: O1_2  and  C2_3 
REMARK    2  A    between atoms: C4_5  and  N1_6 
REMARK    3  A    between atoms: C8_10  and  C9_11 
REMARK    4  A    between atoms: C12_16  and  O2_17 
REMARK    5  A    between atoms: C14_19  and  O3_20 
ROOT
HETATM    1  C2  UNL     1      26.350   7.248  49.311  1.00  0.00     0.106 A 
HETATM    2  C3  UNL     1      25.821   6.024  49.660  1.00  0.00     0.071 A 
HETATM    3  C4  UNL     1      26.431   4.812  49.355  1.00  0.00     0.063 A 
HETATM    4  C11 UNL     1      27.614   4.952  48.672  1.00  0.00     0.071 A 
HETATM    5  C12 UNL     1      28.188   6.147  48.300  1.00  0.00     0.106 A 
HETATM    6  C14 UNL     1      27.545   7.320  48.624  1.00  0.00     0.135 A 
ENDROOT
BRANCH   3   7
HETATM    7  N1  UNL     1      25.839   3.583  49.736  1.00  0.00    -0.245 N 
HETATM    8  C5  UNL     1      24.464   3.362  49.494  1.00  0.00     0.119 C 
HETATM    9  C6  UNL     1      23.633   2.612  50.206  1.00  0.00     0.020 C 
HETATM   10  C7  UNL     1      23.896   1.815  51.422  1.00  0.00     0.011 C 
HETATM   11  C8  UNL     1      25.112   1.461  51.864  1.00  0.00    -0.030 C 
HETATM   12  C10 UNL     1      26.413   1.784  51.244  1.00  0.00     0.147 C 
HETATM   13  N2  UNL     1      26.724   2.681  50.343  1.00  0.00    -0.180 NA
BRANCH  11  14
HETATM   14  C9  UNL     1      25.161   0.657  53.109  1.00  0.00     0.119 C 
HETATM   15  I1  UNL     1      26.805  -0.720  53.017  1.00  0.00    -0.085 I 
ENDBRANCH  11  14
ENDBRANCH   3   7
BRANCH   1  16
HETATM   16  O1  UNL     1      25.713   8.435  49.633  1.00  0.00    -0.353 OA
HETATM   17  C1  UNL     1      24.406   8.764  49.277  1.00  0.00     0.210 C 
ENDBRANCH   1  16
BRANCH   5  18
HETATM   18  O2  UNL     1      29.389   6.211  47.610  1.00  0.00    -0.353 OA
HETATM   19  C13 UNL     1      30.565   5.826  48.309  1.00  0.00     0.210 C 
ENDBRANCH   5  18
BRANCH   6  20
HETATM   20  O3  UNL     1      28.069   8.544  48.280  1.00  0.00    -0.351 OA
HETATM   21  C15 UNL     1      28.954   9.283  49.089  1.00  0.00     0.210 C 
ENDBRANCH   6  20
TORSDOF 5
ENDMDL
MODEL 8
REMARK VINA RESULT:      -6.2      4.157      7.380
REMARK  5 active torsions:
REMARK  status: ('A' for Active; 'I' for Inactive)
REMARK    1  A    between atoms: O1_2  and  C2_3 
REMARK    2  A    between atoms: C4_5  and  N1_6 
REMARK    3  A    between atoms: C8_10  and  C9_11 
REMARK    4  A    between atoms: C12_16  and  O2_17 
REMARK    5  A    between atoms: C14_19  and  O3_20 
ROOT
HETATM    1  C2  UNL     1      26.837   5.533  48.905  1.00  0.00     0.106 A 
HETATM    2  C3  UNL     1      26.592   4.275  49.412  1.00  0.00     0.071 A 
HETATM    3  C4  UNL     1      25.553   3.995  50.293  1.00  0.00     0.063 A 
HETATM    4  C11 UNL     1      24.792   5.094  50.609  1.00  0.00     0.071 A 
HETATM    5  C12 UNL     1      24.992   6.371  50.132  1.00  0.00     0.106 A 
HETATM    6  C14 UNL     1      26.035   6.597  49.263  1.00  0.00     0.135 A 
ENDROOT
BRANCH   3   7
HETATM    7  N1  UNL     1      25.349   2.682  50.785  1.00  0.00    -0.245 N 
HETATM    8  C5  UNL     1      24.035   2.213  51.006  1.00  0.00     0.119 C 
HETATM    9  C6  UNL     1      23.638   1.332  51.915  1.00  0.00     0.020 C 
HETATM   10  C7  UNL     1      24.433   0.606  52.927  1.00  0.00     0.011 C 
HETATM   11  C8  UNL     1      25.769   0.482  52.916  1.00  0.00    -0.030 C 
HETATM   12  C10 UNL     1      26.705   1.030  51.913  1.00  0.00     0.147 C 
HETATM   13  N2  UNL     1      26.530   1.961  51.009  1.00  0.00    -0.180 NA
BRANCH  11  14
HETATM   14  C9  UNL     1      26.377  -0.288  54.027  1.00  0.00     0.119 C 
HETATM   15  I1  UNL     1      28.481   0.125  54.128  1.00  0.00    -0.085 I 
ENDBRANCH  11  14
ENDBRANCH   3   7
BRANCH   1  16
HETATM   16  O1  UNL     1      27.883   5.773  48.029  1.00  0.00    -0.353 OA
HETATM   17  C1  UNL     1      29.233   5.587  48.323  1.00  0.00     0.210 C 
ENDBRANCH   1  16
BRANCH   5  18
HETATM   18  O2  UNL     1      24.181   7.434  50.496  1.00  0.00    -0.353 OA
HETATM   19  C13 UNL     1      22.804   7.160  50.719  1.00  0.00     0.210 C 
ENDBRANCH   5  18
BRANCH   6  20
HETATM   20  O3  UNL     1      26.284   7.850  48.753  1.00  0.00    -0.351 OA
HETATM   21  C15 UNL     1      27.112   8.807  49.372  1.00  0.00     0.210 C 
ENDBRANCH   6  20
TORSDOF 5
ENDMDL
MODEL 9
REMARK VINA RESULT:      -6.1      1.715      2.445
REMARK  5 active torsions:
REMARK  status: ('A' for Active; 'I' for Inactive)
REMARK    1  A    between atoms: O1_2  and  C2_3 
REMARK    2  A    between atoms: C4_5  and  N1_6 
REMARK    3  A    between atoms: C8_10  and  C9_11 
REMARK    4  A    between atoms: C12_16  and  O2_17 
REMARK    5  A    between atoms: C14_19  and  O3_20 
ROOT
HETATM    1  C2  UNL     1      22.223   1.446  52.655  1.00  0.00     0.106 A 
HETATM    2  C3  UNL     1      22.776   2.202  51.643  1.00  0.00     0.071 A 
HETATM    3  C4  UNL     1      24.111   2.111  51.263  1.00  0.00     0.063 A 
HETATM    4  C11 UNL     1      24.826   1.194  51.993  1.00  0.00     0.071 A 
HETATM    5  C12 UNL     1      24.325   0.413  53.012  1.00  0.00     0.106 A 
HETATM    6  C14 UNL     1      22.997   0.541  53.351  1.00  0.00     0.135 A 
ENDROOT
BRANCH   3   7
HETATM    7  N1  UNL     1      24.627   2.915  50.217  1.00  0.00    -0.245 N 
HETATM    8  C5  UNL     1      26.022   2.977  50.003  1.00  0.00     0.119 C 
HETATM    9  C6  UNL     1      26.718   3.998  49.521  1.00  0.00     0.020 C 
HETATM   10  C7  UNL     1      26.248   5.328  49.079  1.00  0.00     0.011 C 
HETATM   11  C8  UNL     1      24.973   5.643  48.804  1.00  0.00    -0.030 C 
HETATM   12  C10 UNL     1      23.799   4.751  48.880  1.00  0.00     0.147 C 
HETATM   13  N2  UNL     1      23.649   3.595  49.477  1.00  0.00    -0.180 NA
BRANCH  11  14
HETATM   14  C9  UNL     1      24.710   7.037  48.375  1.00  0.00     0.119 C 
HETATM   15  I1  UNL     1      25.718   8.402  49.691  1.00  0.00    -0.085 I 
ENDBRANCH  11  14
ENDBRANCH   3   7
BRANCH   1  16
HETATM   16  O1  UNL     1      20.889   1.565  53.004  1.00  0.00    -0.353 OA
HETATM   17  C1  UNL     1      19.816   1.120  52.234  1.00  0.00     0.210 C 
ENDBRANCH   1  16
BRANCH   5  18
HETATM   18  O2  UNL     1      25.109  -0.494  53.706  1.00  0.00    -0.353 OA
HETATM   19  C13 UNL     1      26.102   0.032  54.577  1.00  0.00     0.210 C 
ENDBRANCH   5  18
BRANCH   6  20
HETATM   20  O3  UNL     1      22.439  -0.211  54.358  1.00  0.00    -0.351 OA
HETATM   21  C15 UNL     1      21.805  -1.453  54.161  1.00  0.00     0.210 C 
ENDBRANCH   6  20
TORSDOF 5
ENDMDL
