MODEL 1
REMARK VINA RESULT:      -6.9      0.000      0.000
REMARK  6 active torsions:
REMARK  status: ('A' for Active; 'I' for Inactive)
REMARK    1  A    between atoms: O1_2  and  C2_3 
REMARK    2  A    between atoms: C9_12  and  O2_13 
REMARK    3  A    between atoms: O2_13  and  C10_14 
REMARK    4  A    between atoms: C10_14  and  C11_15 
REMARK    5  A    between atoms: C11_15  and  C12_16 
REMARK    6  A    between atoms: C12_16  and  N3_17 
ROOT
HETATM    1  C2  UNL     1      24.181   0.098  53.468  1.00  0.00     0.103 A 
HETATM    2  C3  UNL     1      25.243  -0.498  54.160  1.00  0.00     0.072 A 
HETATM    3  C4  UNL     1      26.468   0.176  54.240  1.00  0.00     0.072 A 
HETATM    4  N1  UNL     1      27.531  -0.314  54.876  1.00  0.00    -0.241 NA
HETATM    5  C5  UNL     1      28.691   0.405  54.908  1.00  0.00     0.233 A 
HETATM    6  N2  UNL     1      28.848   1.602  54.330  1.00  0.00    -0.253 NA
HETATM    7  C6  UNL     1      27.783   2.133  53.670  1.00  0.00     0.132 A 
HETATM    8  C7  UNL     1      26.620   1.404  53.642  1.00  0.00     0.013 A 
HETATM    9  C8  UNL     1      25.527   1.910  52.987  1.00  0.00     0.055 A 
HETATM   10  C9  UNL     1      24.285   1.354  52.842  1.00  0.00     0.103 A 
ENDROOT
BRANCH  10  11
HETATM   11  O2  UNL     1      23.116   1.622  52.287  1.00  0.00    -0.348 OA
BRANCH  11  12
HETATM   12  C10 UNL     1      22.287   2.651  52.121  1.00  0.00     0.177 C 
BRANCH  12  13
HETATM   13  C11 UNL     1      22.428   3.639  51.017  1.00  0.00     0.046 C 
BRANCH  13  14
HETATM   14  C12 UNL     1      23.527   4.598  51.172  1.00  0.00     0.119 C 
BRANCH  14  15
HETATM   15  N3  UNL     1      24.446   4.652  50.057  1.00  0.00    -0.408 N 
HETATM   16  C13 UNL     1      25.013   3.422  49.656  1.00  0.00     0.143 C 
HETATM   17  C14 UNL     1      26.498   3.364  49.542  1.00  0.00     0.187 C 
HETATM   18  O3  UNL     1      27.118   4.460  49.019  1.00  0.00    -0.388 OA
HETATM   19  C15 UNL     1      26.300   5.574  48.897  1.00  0.00     0.187 C 
HETATM   20  C16 UNL     1      25.373   5.733  50.084  1.00  0.00     0.143 C 
ENDBRANCH  14  15
ENDBRANCH  13  14
ENDBRANCH  12  13
ENDBRANCH  11  12
ENDBRANCH  10  11
BRANCH   1  21
HETATM   21  O1  UNL     1      23.037  -0.715  53.492  1.00  0.00    -0.353 OA
HETATM   22  C1  UNL     1      22.348  -0.974  54.680  1.00  0.00     0.210 C 
ENDBRANCH   1  21
TORSDOF 6
ENDMDL
MODEL 2
REMARK VINA RESULT:      -6.6      3.065      5.424
REMARK  6 active torsions:
REMARK  status: ('A' for Active; 'I' for Inactive)
REMARK    1  A    between atoms: O1_2  and  C2_3 
REMARK    2  A    between atoms: C9_12  and  O2_13 
REMARK    3  A    between atoms: O2_13  and  C10_14 
REMARK    4  A    between atoms: C10_14  and  C11_15 
REMARK    5  A    between atoms: C11_15  and  C12_16 
REMARK    6  A    between atoms: C12_16  and  N3_17 
ROOT
HETATM    1  C2  UNL     1      24.291  -0.001  53.522  1.00  0.00     0.103 A 
HETATM    2  C3  UNL     1      25.373  -0.527  54.240  1.00  0.00     0.072 A 
HETATM    3  C4  UNL     1      26.571   0.195  54.294  1.00  0.00     0.072 A 
HETATM    4  N1  UNL     1      27.650  -0.226  54.951  1.00  0.00    -0.241 NA
HETATM    5  C5  UNL     1      28.781   0.538  54.956  1.00  0.00     0.233 A 
HETATM    6  N2  UNL     1      28.894   1.715  54.331  1.00  0.00    -0.253 NA
HETATM    7  C6  UNL     1      27.811   2.177  53.648  1.00  0.00     0.132 A 
HETATM    8  C7  UNL     1      26.677   1.404  53.648  1.00  0.00     0.013 A 
HETATM    9  C8  UNL     1      25.568   1.840  52.971  1.00  0.00     0.055 A 
HETATM   10  C9  UNL     1      24.349   1.231  52.846  1.00  0.00     0.103 A 
ENDROOT
BRANCH  10  11
HETATM   11  O2  UNL     1      23.172   1.432  52.279  1.00  0.00    -0.348 OA
BRANCH  11  12
HETATM   12  C10 UNL     1      22.601   1.361  51.078  1.00  0.00     0.177 C 
BRANCH  12  13
HETATM   13  C11 UNL     1      21.350   0.597  50.816  1.00  0.00     0.046 C 
BRANCH  13  14
HETATM   14  C12 UNL     1      20.214   0.941  51.678  1.00  0.00     0.119 C 
BRANCH  14  15
HETATM   15  N3  UNL     1      19.287  -0.142  51.918  1.00  0.00    -0.408 N 
HETATM   16  C13 UNL     1      18.070  -0.092  51.203  1.00  0.00     0.143 C 
HETATM   17  C14 UNL     1      16.813  -0.214  51.995  1.00  0.00     0.187 C 
HETATM   18  O3  UNL     1      16.818  -1.109  53.023  1.00  0.00    -0.388 OA
HETATM   19  C15 UNL     1      18.074  -1.600  53.345  1.00  0.00     0.187 C 
HETATM   20  C16 UNL     1      19.140  -0.526  53.282  1.00  0.00     0.143 C 
ENDBRANCH  14  15
ENDBRANCH  13  14
ENDBRANCH  12  13
ENDBRANCH  11  12
ENDBRANCH  10  11
BRANCH   1  21
HETATM   21  O1  UNL     1      23.179  -0.857  53.576  1.00  0.00    -0.353 OA
HETATM   22  C1  UNL     1      22.409  -0.981  54.736  1.00  0.00     0.210 C 
ENDBRANCH   1  21
TORSDOF 6
ENDMDL
MODEL 3
REMARK VINA RESULT:      -6.5      1.960      5.128
REMARK  6 active torsions:
REMARK  status: ('A' for Active; 'I' for Inactive)
REMARK    1  A    between atoms: O1_2  and  C2_3 
REMARK    2  A    between atoms: C9_12  and  O2_13 
REMARK    3  A    between atoms: O2_13  and  C10_14 
REMARK    4  A    between atoms: C10_14  and  C11_15 
REMARK    5  A    between atoms: C11_15  and  C12_16 
REMARK    6  A    between atoms: C12_16  and  N3_17 
ROOT
HETATM    1  C2  UNL     1      25.806   2.844  51.609  1.00  0.00     0.103 A 
HETATM    2  C3  UNL     1      27.123   2.381  51.734  1.00  0.00     0.072 A 
HETATM    3  C4  UNL     1      27.453   1.546  52.807  1.00  0.00     0.072 A 
HETATM    4  N1  UNL     1      28.677   1.059  53.006  1.00  0.00    -0.241 NA
HETATM    5  C5  UNL     1      28.918   0.250  54.078  1.00  0.00     0.233 A 
HETATM    6  N2  UNL     1      27.990  -0.103  54.976  1.00  0.00    -0.253 NA
HETATM    7  C6  UNL     1      26.728   0.377  54.805  1.00  0.00     0.132 A 
HETATM    8  C7  UNL     1      26.493   1.189  53.724  1.00  0.00     0.013 A 
HETATM    9  C8  UNL     1      25.233   1.689  53.522  1.00  0.00     0.055 A 
HETATM   10  C9  UNL     1      24.788   2.507  52.519  1.00  0.00     0.103 A 
ENDROOT
BRANCH  10  11
HETATM   11  O2  UNL     1      23.678   3.099  52.115  1.00  0.00    -0.348 OA
BRANCH  11  12
HETATM   12  C10 UNL     1      22.497   2.785  51.586  1.00  0.00     0.177 C 
BRANCH  12  13
HETATM   13  C11 UNL     1      22.307   1.660  50.630  1.00  0.00     0.046 C 
BRANCH  13  14
HETATM   14  C12 UNL     1      21.599   0.493  51.169  1.00  0.00     0.119 C 
BRANCH  14  15
HETATM   15  N3  UNL     1      21.734   0.309  52.596  1.00  0.00    -0.408 N 
HETATM   16  C13 UNL     1      22.470  -0.821  53.013  1.00  0.00     0.143 C 
HETATM   17  C14 UNL     1      21.819  -1.729  54.000  1.00  0.00     0.187 C 
HETATM   18  O3  UNL     1      21.094  -1.140  54.993  1.00  0.00    -0.388 OA
HETATM   19  C15 UNL     1      20.857   0.213  54.800  1.00  0.00     0.187 C 
HETATM   20  C16 UNL     1      20.548   0.538  53.353  1.00  0.00     0.143 C 
ENDBRANCH  14  15
ENDBRANCH  13  14
ENDBRANCH  12  13
ENDBRANCH  11  12
ENDBRANCH  10  11
BRANCH   1  21
HETATM   21  O1  UNL     1      25.660   3.665  50.479  1.00  0.00    -0.353 OA
HETATM   22  C1  UNL     1      26.591   3.648  49.438  1.00  0.00     0.210 C 
ENDBRANCH   1  21
TORSDOF 6
ENDMDL
MODEL 4
REMARK VINA RESULT:      -6.4      2.504      4.364
REMARK  6 active torsions:
REMARK  status: ('A' for Active; 'I' for Inactive)
REMARK    1  A    between atoms: O1_2  and  C2_3 
REMARK    2  A    between atoms: C9_12  and  O2_13 
REMARK    3  A    between atoms: O2_13  and  C10_14 
REMARK    4  A    between atoms: C10_14  and  C11_15 
REMARK    5  A    between atoms: C11_15  and  C12_16 
REMARK    6  A    between atoms: C12_16  and  N3_17 
ROOT
HETATM    1  C2  UNL     1      25.838   0.105  53.196  1.00  0.00     0.103 A 
HETATM    2  C3  UNL     1      25.037  -0.641  54.072  1.00  0.00     0.072 A 
HETATM    3  C4  UNL     1      23.647  -0.492  54.018  1.00  0.00     0.072 A 
HETATM    4  N1  UNL     1      22.809  -1.159  54.810  1.00  0.00    -0.241 NA
HETATM    5  C5  UNL     1      21.463  -0.957  54.696  1.00  0.00     0.233 A 
HETATM    6  N2  UNL     1      20.903  -0.113  53.821  1.00  0.00    -0.253 NA
HETATM    7  C6  UNL     1      21.729   0.585  52.996  1.00  0.00     0.132 A 
HETATM    8  C7  UNL     1      23.080   0.378  53.117  1.00  0.00     0.013 A 
HETATM    9  C8  UNL     1      23.940   1.064  52.300  1.00  0.00     0.055 A 
HETATM   10  C9  UNL     1      25.307   1.006  52.255  1.00  0.00     0.103 A 
ENDROOT
BRANCH  10  11
HETATM   11  O2  UNL     1      26.321   1.536  51.594  1.00  0.00    -0.348 OA
BRANCH  11  12
HETATM   12  C10 UNL     1      26.687   2.704  51.069  1.00  0.00     0.177 C 
BRANCH  12  13
HETATM   13  C11 UNL     1      26.071   3.274  49.840  1.00  0.00     0.046 C 
BRANCH  13  14
HETATM   14  C12 UNL     1      25.227   4.455  50.052  1.00  0.00     0.119 C 
BRANCH  14  15
HETATM   15  N3  UNL     1      23.977   4.194  50.729  1.00  0.00    -0.408 N 
HETATM   16  C13 UNL     1      22.875   3.881  49.905  1.00  0.00     0.143 C 
HETATM   17  C14 UNL     1      21.628   4.674  50.109  1.00  0.00     0.187 C 
HETATM   18  O3  UNL     1      21.294   4.974  51.396  1.00  0.00    -0.388 OA
HETATM   19  C15 UNL     1      22.295   4.714  52.320  1.00  0.00     0.187 C 
HETATM   20  C16 UNL     1      23.666   5.085  51.797  1.00  0.00     0.143 C 
ENDBRANCH  14  15
ENDBRANCH  13  14
ENDBRANCH  12  13
ENDBRANCH  11  12
ENDBRANCH  10  11
BRANCH   1  21
HETATM   21  O1  UNL     1      27.201  -0.171  53.391  1.00  0.00    -0.353 OA
HETATM   22  C1  UNL     1      27.854   0.177  54.577  1.00  0.00     0.210 C 
ENDBRANCH   1  21
TORSDOF 6
ENDMDL
MODEL 5
REMARK VINA RESULT:      -6.4      2.144      2.984
REMARK  6 active torsions:
REMARK  status: ('A' for Active; 'I' for Inactive)
REMARK    1  A    between atoms: O1_2  and  C2_3 
REMARK    2  A    between atoms: C9_12  and  O2_13 
REMARK    3  A    between atoms: O2_13  and  C10_14 
REMARK    4  A    between atoms: C10_14  and  C11_15 
REMARK    5  A    between atoms: C11_15  and  C12_16 
REMARK    6  A    between atoms: C12_16  and  N3_17 
ROOT
HETATM    1  C2  UNL     1      25.093   0.381  53.209  1.00  0.00     0.103 A 
HETATM    2  C3  UNL     1      25.880  -0.773  53.105  1.00  0.00     0.072 A 
HETATM    3  C4  UNL     1      27.265  -0.671  53.285  1.00  0.00     0.072 A 
HETATM    4  N1  UNL     1      28.091  -1.714  53.205  1.00  0.00    -0.241 NA
HETATM    5  C5  UNL     1      29.431  -1.532  53.393  1.00  0.00     0.233 A 
HETATM    6  N2  UNL     1      29.997  -0.349  53.658  1.00  0.00    -0.253 NA
HETATM    7  C6  UNL     1      29.184   0.738  53.746  1.00  0.00     0.132 A 
HETATM    8  C7  UNL     1      27.838   0.548  53.557  1.00  0.00     0.013 A 
HETATM    9  C8  UNL     1      26.990   1.622  53.640  1.00  0.00     0.055 A 
HETATM   10  C9  UNL     1      25.630   1.651  53.487  1.00  0.00     0.103 A 
ENDROOT
BRANCH  10  11
HETATM   11  O2  UNL     1      24.628   2.512  53.518  1.00  0.00    -0.348 OA
BRANCH  11  12
HETATM   12  C10 UNL     1      24.095   3.473  52.765  1.00  0.00     0.177 C 
BRANCH  12  13
HETATM   13  C11 UNL     1      24.220   3.509  51.283  1.00  0.00     0.046 C 
BRANCH  13  14
HETATM   14  C12 UNL     1      23.143   4.216  50.580  1.00  0.00     0.119 C 
BRANCH  14  15
HETATM   15  N3  UNL     1      22.296   3.373  49.766  1.00  0.00    -0.408 N 
HETATM   16  C13 UNL     1      21.399   2.533  50.460  1.00  0.00     0.143 C 
HETATM   17  C14 UNL     1      21.419   1.083  50.111  1.00  0.00     0.187 C 
HETATM   18  O3  UNL     1      21.568   0.770  48.793  1.00  0.00    -0.388 OA
HETATM   19  C15 UNL     1      21.931   1.842  47.990  1.00  0.00     0.187 C 
HETATM   20  C16 UNL     1      22.944   2.743  48.665  1.00  0.00     0.143 C 
ENDBRANCH  14  15
ENDBRANCH  13  14
ENDBRANCH  12  13
ENDBRANCH  11  12
ENDBRANCH  10  11
BRANCH   1  21
HETATM   21  O1  UNL     1      23.735   0.092  53.000  1.00  0.00    -0.353 OA
HETATM   22  C1  UNL     1      22.995  -0.648  53.927  1.00  0.00     0.210 C 
ENDBRANCH   1  21
TORSDOF 6
ENDMDL
MODEL 6
REMARK VINA RESULT:      -6.4      1.299      1.778
REMARK  6 active torsions:
REMARK  status: ('A' for Active; 'I' for Inactive)
REMARK    1  A    between atoms: O1_2  and  C2_3 
REMARK    2  A    between atoms: C9_12  and  O2_13 
REMARK    3  A    between atoms: O2_13  and  C10_14 
REMARK    4  A    between atoms: C10_14  and  C11_15 
REMARK    5  A    between atoms: C11_15  and  C12_16 
REMARK    6  A    between atoms: C12_16  and  N3_17 
ROOT
HETATM    1  C2  UNL     1      24.294   0.155  53.217  1.00  0.00     0.103 A 
HETATM    2  C3  UNL     1      25.313  -0.426  53.984  1.00  0.00     0.072 A 
HETATM    3  C4  UNL     1      26.533   0.246  54.117  1.00  0.00     0.072 A 
HETATM    4  N1  UNL     1      27.556  -0.229  54.825  1.00  0.00    -0.241 NA
HETATM    5  C5  UNL     1      28.715   0.488  54.907  1.00  0.00     0.233 A 
HETATM    6  N2  UNL     1      28.910   1.670  54.309  1.00  0.00    -0.253 NA
HETATM    7  C6  UNL     1      27.886   2.186  53.576  1.00  0.00     0.132 A 
HETATM    8  C7  UNL     1      26.724   1.459  53.499  1.00  0.00     0.013 A 
HETATM    9  C8  UNL     1      25.673   1.951  52.770  1.00  0.00     0.055 A 
HETATM   10  C9  UNL     1      24.439   1.394  52.566  1.00  0.00     0.103 A 
ENDROOT
BRANCH  10  11
HETATM   11  O2  UNL     1      23.305   1.651  51.939  1.00  0.00    -0.348 OA
BRANCH  11  12
HETATM   12  C10 UNL     1      22.813   1.669  50.701  1.00  0.00     0.177 C 
BRANCH  12  13
HETATM   13  C11 UNL     1      22.695   2.912  49.891  1.00  0.00     0.046 C 
BRANCH  13  14
HETATM   14  C12 UNL     1      23.968   3.525  49.495  1.00  0.00     0.119 C 
BRANCH  14  15
HETATM   15  N3  UNL     1      24.329   4.707  50.244  1.00  0.00    -0.408 N 
HETATM   16  C13 UNL     1      23.301   5.300  51.009  1.00  0.00     0.143 C 
HETATM   17  C14 UNL     1      23.063   6.759  50.810  1.00  0.00     0.187 C 
HETATM   18  O3  UNL     1      24.164   7.546  50.653  1.00  0.00    -0.388 OA
HETATM   19  C15 UNL     1      25.343   6.843  50.449  1.00  0.00     0.187 C 
HETATM   20  C16 UNL     1      25.144   5.644  49.546  1.00  0.00     0.143 C 
ENDBRANCH  14  15
ENDBRANCH  13  14
ENDBRANCH  12  13
ENDBRANCH  11  12
ENDBRANCH  10  11
BRANCH   1  21
HETATM   21  O1  UNL     1      23.148  -0.655  53.194  1.00  0.00    -0.353 OA
HETATM   22  C1  UNL     1      22.360  -0.837  54.334  1.00  0.00     0.210 C 
ENDBRANCH   1  21
TORSDOF 6
ENDMDL
MODEL 7
REMARK VINA RESULT:      -6.2      2.966      7.200
REMARK  6 active torsions:
REMARK  status: ('A' for Active; 'I' for Inactive)
REMARK    1  A    between atoms: O1_2  and  C2_3 
REMARK    2  A    between atoms: C9_12  and  O2_13 
REMARK    3  A    between atoms: O2_13  and  C10_14 
REMARK    4  A    between atoms: C10_14  and  C11_15 
REMARK    5  A    between atoms: C11_15  and  C12_16 
REMARK    6  A    between atoms: C12_16  and  N3_17 
ROOT
HETATM    1  C2  UNL     1      25.608   6.176  49.193  1.00  0.00     0.103 A 
HETATM    2  C3  UNL     1      26.379   7.216  48.657  1.00  0.00     0.072 A 
HETATM    3  C4  UNL     1      27.695   6.953  48.258  1.00  0.00     0.072 A 
HETATM    4  N1  UNL     1      28.500   7.879  47.739  1.00  0.00    -0.241 NA
HETATM    5  C5  UNL     1      29.772   7.542  47.374  1.00  0.00     0.233 A 
HETATM    6  N2  UNL     1      30.289   6.314  47.502  1.00  0.00    -0.253 NA
HETATM    7  C6  UNL     1      29.495   5.344  48.030  1.00  0.00     0.132 A 
HETATM    8  C7  UNL     1      28.218   5.689  48.394  1.00  0.00     0.013 A 
HETATM    9  C8  UNL     1      27.391   4.735  48.928  1.00  0.00     0.055 A 
HETATM   10  C9  UNL     1      26.096   4.866  49.352  1.00  0.00     0.103 A 
ENDROOT
BRANCH  10  11
HETATM   11  O2  UNL     1      25.126   4.139  49.877  1.00  0.00    -0.348 OA
BRANCH  11  12
HETATM   12  C10 UNL     1      24.840   3.497  51.008  1.00  0.00     0.177 C 
BRANCH  12  13
HETATM   13  C11 UNL     1      25.378   2.149  51.337  1.00  0.00     0.046 C 
BRANCH  13  14
HETATM   14  C12 UNL     1      26.808   2.108  51.664  1.00  0.00     0.119 C 
BRANCH  14  15
HETATM   15  N3  UNL     1      27.106   1.765  53.036  1.00  0.00    -0.408 N 
HETATM   16  C13 UNL     1      28.316   2.272  53.558  1.00  0.00     0.143 C 
HETATM   17  C14 UNL     1      29.242   1.294  54.197  1.00  0.00     0.187 C 
HETATM   18  O3  UNL     1      28.675   0.316  54.958  1.00  0.00    -0.388 OA
HETATM   19  C15 UNL     1      27.297   0.220  54.827  1.00  0.00     0.187 C 
HETATM   20  C16 UNL     1      26.845   0.411  53.395  1.00  0.00     0.143 C 
ENDBRANCH  14  15
ENDBRANCH  13  14
ENDBRANCH  12  13
ENDBRANCH  11  12
ENDBRANCH  10  11
BRANCH   1  21
HETATM   21  O1  UNL     1      24.322   6.620  49.537  1.00  0.00    -0.353 OA
HETATM   22  C1  UNL     1      24.108   7.464  50.631  1.00  0.00     0.210 C 
ENDBRANCH   1  21
TORSDOF 6
ENDMDL
MODEL 8
REMARK VINA RESULT:      -6.1      2.738      3.492
REMARK  6 active torsions:
REMARK  status: ('A' for Active; 'I' for Inactive)
REMARK    1  A    between atoms: O1_2  and  C2_3 
REMARK    2  A    between atoms: C9_12  and  O2_13 
REMARK    3  A    between atoms: O2_13  and  C10_14 
REMARK    4  A    between atoms: C10_14  and  C11_15 
REMARK    5  A    between atoms: C11_15  and  C12_16 
REMARK    6  A    between atoms: C12_16  and  N3_17 
ROOT
HETATM    1  C2  UNL     1      24.208  -0.123  53.539  1.00  0.00     0.103 A 
HETATM    2  C3  UNL     1      25.318  -0.619  54.237  1.00  0.00     0.072 A 
HETATM    3  C4  UNL     1      26.501   0.128  54.254  1.00  0.00     0.072 A 
HETATM    4  N1  UNL     1      27.604  -0.265  54.891  1.00  0.00    -0.241 NA
HETATM    5  C5  UNL     1      28.720   0.521  54.860  1.00  0.00     0.233 A 
HETATM    6  N2  UNL     1      28.795   1.693  54.217  1.00  0.00    -0.253 NA
HETATM    7  C6  UNL     1      27.687   2.125  53.555  1.00  0.00     0.132 A 
HETATM    8  C7  UNL     1      26.569   1.330  53.591  1.00  0.00     0.013 A 
HETATM    9  C8  UNL     1      25.436   1.736  52.936  1.00  0.00     0.055 A 
HETATM   10  C9  UNL     1      24.226   1.102  52.846  1.00  0.00     0.103 A 
ENDROOT
BRANCH  10  11
HETATM   11  O2  UNL     1      23.033   1.273  52.306  1.00  0.00    -0.348 OA
BRANCH  11  12
HETATM   12  C10 UNL     1      21.888   1.905  52.557  1.00  0.00     0.177 C 
BRANCH  12  13
HETATM   13  C11 UNL     1      20.557   1.243  52.472  1.00  0.00     0.046 C 
BRANCH  13  14
HETATM   14  C12 UNL     1      20.122   0.884  51.118  1.00  0.00     0.119 C 
BRANCH  14  15
HETATM   15  N3  UNL     1      20.566   1.786  50.079  1.00  0.00    -0.408 N 
HETATM   16  C13 UNL     1      19.658   2.799  49.703  1.00  0.00     0.143 C 
HETATM   17  C14 UNL     1      19.350   2.928  48.249  1.00  0.00     0.187 C 
HETATM   18  O3  UNL     1      20.389   2.762  47.383  1.00  0.00    -0.388 OA
HETATM   19  C15 UNL     1      21.539   2.248  47.965  1.00  0.00     0.187 C 
HETATM   20  C16 UNL     1      21.231   1.169  48.981  1.00  0.00     0.143 C 
ENDBRANCH  14  15
ENDBRANCH  13  14
ENDBRANCH  12  13
ENDBRANCH  11  12
ENDBRANCH  10  11
BRANCH   1  21
HETATM   21  O1  UNL     1      23.115  -0.999  53.630  1.00  0.00    -0.353 OA
HETATM   22  C1  UNL     1      22.480  -1.250  54.849  1.00  0.00     0.210 C 
ENDBRANCH   1  21
TORSDOF 6
ENDMDL
MODEL 9
REMARK VINA RESULT:      -6.1      2.051      3.611
REMARK  6 active torsions:
REMARK  status: ('A' for Active; 'I' for Inactive)
REMARK    1  A    between atoms: O1_2  and  C2_3 
REMARK    2  A    between atoms: C9_12  and  O2_13 
REMARK    3  A    between atoms: O2_13  and  C10_14 
REMARK    4  A    between atoms: C10_14  and  C11_15 
REMARK    5  A    between atoms: C11_15  and  C12_16 
REMARK    6  A    between atoms: C12_16  and  N3_17 
ROOT
HETATM    1  C2  UNL     1      25.521   2.415  51.010  1.00  0.00     0.103 A 
HETATM    2  C3  UNL     1      26.801   2.195  51.537  1.00  0.00     0.072 A 
HETATM    3  C4  UNL     1      26.941   1.389  52.672  1.00  0.00     0.072 A 
HETATM    4  N1  UNL     1      28.117   1.126  53.241  1.00  0.00    -0.241 NA
HETATM    5  C5  UNL     1      28.170   0.329  54.348  1.00  0.00     0.233 A 
HETATM    6  N2  UNL     1      27.098  -0.224  54.927  1.00  0.00    -0.253 NA
HETATM    7  C6  UNL     1      25.880   0.024  54.373  1.00  0.00     0.132 A 
HETATM    8  C7  UNL     1      25.834   0.825  53.260  1.00  0.00     0.013 A 
HETATM    9  C8  UNL     1      24.624   1.095  52.676  1.00  0.00     0.055 A 
HETATM   10  C9  UNL     1      24.358   1.860  51.573  1.00  0.00     0.103 A 
ENDROOT
BRANCH  10  11
HETATM   11  O2  UNL     1      23.331   2.257  50.842  1.00  0.00    -0.348 OA
BRANCH  11  12
HETATM   12  C10 UNL     1      22.108   2.760  51.001  1.00  0.00     0.177 C 
BRANCH  12  13
HETATM   13  C11 UNL     1      21.702   3.548  52.197  1.00  0.00     0.046 C 
BRANCH  13  14
HETATM   14  C12 UNL     1      22.472   4.775  52.429  1.00  0.00     0.119 C 
BRANCH  14  15
HETATM   15  N3  UNL     1      22.645   5.612  51.263  1.00  0.00    -0.408 N 
HETATM   16  C13 UNL     1      23.924   6.186  51.091  1.00  0.00     0.143 C 
HETATM   17  C14 UNL     1      23.982   7.661  50.881  1.00  0.00     0.187 C 
HETATM   18  O3  UNL     1      23.015   8.209  50.092  1.00  0.00    -0.388 OA
HETATM   19  C15 UNL     1      21.966   7.351  49.798  1.00  0.00     0.187 C 
HETATM   20  C16 UNL     1      21.569   6.505  50.990  1.00  0.00     0.143 C 
ENDBRANCH  14  15
ENDBRANCH  13  14
ENDBRANCH  12  13
ENDBRANCH  11  12
ENDBRANCH  10  11
BRANCH   1  21
HETATM   21  O1  UNL     1      25.572   3.243  49.878  1.00  0.00    -0.353 OA
HETATM   22  C1  UNL     1      26.751   3.890  49.498  1.00  0.00     0.210 C 
ENDBRANCH   1  21
TORSDOF 6
ENDMDL
