MODEL 1
REMARK VINA RESULT:      -8.2      0.000      0.000
REMARK  3 active torsions:
REMARK  status: ('A' for Active; 'I' for Inactive)
REMARK    1  A    between atoms: C2_2  and  O1_3 
REMARK    2  A    between atoms: O1_3  and  C3_4 
REMARK    3  A    between atoms: C3_4  and  C4_5 
ROOT
HETATM    1  C1  UNL     1      26.500   0.540  51.751  1.00  0.00     0.051 C 
HETATM    2  C2  UNL     1      26.215   1.547  52.843  1.00  0.00     0.082 C 
HETATM    3  C10 UNL     1      25.379   0.819  53.867  1.00  0.00     0.027 C 
HETATM    4  C11 UNL     1      25.958  -0.050  54.712  1.00  0.00     0.085 C 
HETATM    5  N1  UNL     1      27.319  -0.495  54.889  1.00  0.00    -0.364 N 
HETATM    6  C12 UNL     1      28.177  -0.566  53.551  1.00  0.00     0.217 A 
HETATM    7  N2  UNL     1      28.727  -1.807  53.533  1.00  0.00    -0.245 NA
HETATM    8  C13 UNL     1      29.575  -0.690  53.559  1.00  0.00     0.247 A 
HETATM    9  N3  UNL     1      29.786   0.713  53.577  1.00  0.00    -0.250 NA
HETATM   10  C14 UNL     1      28.489   0.884  53.537  1.00  0.00     0.068 A 
HETATM   11  C15 UNL     1      27.509   1.992  53.485  1.00  0.00     0.101 C 
HETATM   12  H12 UNL     1      27.656  -0.741  55.869  1.00  0.00     0.162 HD
ENDROOT
BRANCH   2  13
HETATM   13  O1  UNL     1      25.443   2.541  52.335  1.00  0.00    -0.372 OA
BRANCH  13  14
HETATM   14  C3  UNL     1      25.089   2.500  51.028  1.00  0.00     0.207 C 
BRANCH  14  15
HETATM   15  C4  UNL     1      25.618   3.690  50.269  1.00  0.00    -0.032 A 
HETATM   16  C5  UNL     1      24.934   4.892  50.301  1.00  0.00     0.009 A 
HETATM   17  C6  UNL     1      25.320   6.038  49.649  1.00  0.00     0.004 A 
HETATM   18  C7  UNL     1      26.490   5.981  48.903  1.00  0.00     0.042 A 
HETATM   19  C8  UNL     1      27.198   4.782  48.854  1.00  0.00     0.117 A 
HETATM   20  F1  UNL     1      28.345   4.725  48.123  1.00  0.00    -0.206 F 
HETATM   21  C9  UNL     1      26.783   3.630  49.526  1.00  0.00     0.051 A 
ENDBRANCH  14  15
ENDBRANCH  13  14
ENDBRANCH   2  13
TORSDOF 3
ENDMDL
MODEL 2
REMARK VINA RESULT:      -8.0      3.773      5.130
REMARK  3 active torsions:
REMARK  status: ('A' for Active; 'I' for Inactive)
REMARK    1  A    between atoms: C2_2  and  O1_3 
REMARK    2  A    between atoms: O1_3  and  C3_4 
REMARK    3  A    between atoms: C3_4  and  C4_5 
ROOT
HETATM    1  C1  UNL     1      26.460   0.095  51.935  1.00  0.00     0.051 C 
HETATM    2  C2  UNL     1      25.382   0.741  52.777  1.00  0.00     0.082 C 
HETATM    3  C10 UNL     1      25.023  -0.275  53.835  1.00  0.00     0.027 C 
HETATM    4  C11 UNL     1      25.839  -0.466  54.886  1.00  0.00     0.085 C 
HETATM    5  N1  UNL     1      27.094   0.124  55.279  1.00  0.00    -0.364 N 
HETATM    6  C12 UNL     1      28.045   0.536  54.072  1.00  0.00     0.217 A 
HETATM    7  N2  UNL     1      29.252  -0.020  54.350  1.00  0.00    -0.245 NA
HETATM    8  C13 UNL     1      29.158   1.375  54.242  1.00  0.00     0.247 A 
HETATM    9  N3  UNL     1      28.410   2.558  54.008  1.00  0.00    -0.250 NA
HETATM   10  C14 UNL     1      27.349   1.818  53.809  1.00  0.00     0.068 A 
HETATM   11  C15 UNL     1      25.923   1.983  53.446  1.00  0.00     0.101 C 
HETATM   12  H12 UNL     1      27.304   0.245  56.317  1.00  0.00     0.162 HD
ENDROOT
BRANCH   2  13
HETATM   13  O1  UNL     1      24.275   0.923  52.013  1.00  0.00    -0.372 OA
BRANCH  13  14
HETATM   14  C3  UNL     1      23.302   1.759  52.449  1.00  0.00     0.207 C 
BRANCH  14  15
HETATM   15  C4  UNL     1      21.972   1.058  52.563  1.00  0.00    -0.032 A 
HETATM   16  C5  UNL     1      21.591   0.487  53.764  1.00  0.00     0.009 A 
HETATM   17  C6  UNL     1      20.408  -0.175  53.983  1.00  0.00     0.004 A 
HETATM   18  C7  UNL     1      19.529  -0.276  52.913  1.00  0.00     0.042 A 
HETATM   19  C8  UNL     1      19.889   0.290  51.691  1.00  0.00     0.117 A 
HETATM   20  F1  UNL     1      19.028   0.193  50.642  1.00  0.00    -0.206 F 
HETATM   21  C9  UNL     1      21.099   0.959  51.495  1.00  0.00     0.051 A 
ENDBRANCH  14  15
ENDBRANCH  13  14
ENDBRANCH   2  13
TORSDOF 3
ENDMDL
MODEL 3
REMARK VINA RESULT:      -8.0      4.255      5.800
REMARK  3 active torsions:
REMARK  status: ('A' for Active; 'I' for Inactive)
REMARK    1  A    between atoms: C2_2  and  O1_3 
REMARK    2  A    between atoms: O1_3  and  C3_4 
REMARK    3  A    between atoms: C3_4  and  C4_5 
ROOT
HETATM    1  C1  UNL     1      25.607  -0.334  54.825  1.00  0.00     0.051 C 
HETATM    2  C2  UNL     1      25.294  -0.232  53.348  1.00  0.00     0.082 C 
HETATM    3  C10 UNL     1      25.130   1.242  53.064  1.00  0.00     0.027 C 
HETATM    4  C11 UNL     1      26.212   2.031  52.969  1.00  0.00     0.085 C 
HETATM    5  N1  UNL     1      27.628   1.782  53.087  1.00  0.00    -0.364 N 
HETATM    6  C12 UNL     1      28.021   0.646  54.128  1.00  0.00     0.217 A 
HETATM    7  N2  UNL     1      28.967   1.196  54.931  1.00  0.00    -0.245 NA
HETATM    8  C13 UNL     1      29.300   0.069  54.166  1.00  0.00     0.247 A 
HETATM    9  N3  UNL     1      28.963  -0.950  53.237  1.00  0.00    -0.250 NA
HETATM   10  C14 UNL     1      27.746  -0.470  53.190  1.00  0.00     0.068 A 
HETATM   11  C15 UNL     1      26.452  -0.768  52.537  1.00  0.00     0.101 C 
HETATM   12  H12 UNL     1      28.302   2.354  52.492  1.00  0.00     0.162 HD
ENDROOT
BRANCH   2  13
HETATM   13  O1  UNL     1      24.093  -0.817  53.111  1.00  0.00    -0.372 OA
BRANCH  13  14
HETATM   14  C3  UNL     1      23.074  -0.612  53.981  1.00  0.00     0.207 C 
BRANCH  14  15
HETATM   15  C4  UNL     1      21.764  -0.398  53.268  1.00  0.00    -0.032 A 
HETATM   16  C5  UNL     1      21.746   0.177  52.010  1.00  0.00     0.009 A 
HETATM   17  C6  UNL     1      20.615   0.419  51.269  1.00  0.00     0.004 A 
HETATM   18  C7  UNL     1      19.398   0.057  51.830  1.00  0.00     0.042 A 
HETATM   19  C8  UNL     1      19.388  -0.524  53.097  1.00  0.00     0.117 A 
HETATM   20  F1  UNL     1      18.196  -0.880  53.648  1.00  0.00    -0.206 F 
HETATM   21  C9  UNL     1      20.553  -0.760  53.830  1.00  0.00     0.051 A 
ENDBRANCH  14  15
ENDBRANCH  13  14
ENDBRANCH   2  13
TORSDOF 3
ENDMDL
MODEL 4
REMARK VINA RESULT:      -7.8      2.607      3.344
REMARK  3 active torsions:
REMARK  status: ('A' for Active; 'I' for Inactive)
REMARK    1  A    between atoms: C2_2  and  O1_3 
REMARK    2  A    between atoms: O1_3  and  C3_4 
REMARK    3  A    between atoms: C3_4  and  C4_5 
ROOT
HETATM    1  C1  UNL     1      26.248   0.595  51.855  1.00  0.00     0.051 C 
HETATM    2  C2  UNL     1      25.293   1.116  52.906  1.00  0.00     0.082 C 
HETATM    3  C10 UNL     1      24.945  -0.072  53.770  1.00  0.00     0.027 C 
HETATM    4  C11 UNL     1      25.825  -0.522  54.680  1.00  0.00     0.085 C 
HETATM    5  N1  UNL     1      27.149  -0.099  55.063  1.00  0.00    -0.364 N 
HETATM    6  C12 UNL     1      28.029   0.495  53.878  1.00  0.00     0.217 A 
HETATM    7  N2  UNL     1      29.209  -0.176  53.925  1.00  0.00    -0.245 NA
HETATM    8  C13 UNL     1      29.212   1.215  54.106  1.00  0.00     0.247 A 
HETATM    9  N3  UNL     1      28.540   2.463  54.183  1.00  0.00    -0.250 NA
HETATM   10  C14 UNL     1      27.413   1.843  53.941  1.00  0.00     0.068 A 
HETATM   11  C15 UNL     1      25.980   2.161  53.754  1.00  0.00     0.101 C 
HETATM   12  H12 UNL     1      27.450  -0.206  56.079  1.00  0.00     0.162 HD
ENDROOT
BRANCH   2  13
HETATM   13  O1  UNL     1      24.146   1.515  52.301  1.00  0.00    -0.372 OA
BRANCH  13  14
HETATM   14  C3  UNL     1      24.205   2.466  51.336  1.00  0.00     0.207 C 
BRANCH  14  15
HETATM   15  C4  UNL     1      23.205   2.209  50.238  1.00  0.00    -0.032 A 
HETATM   16  C5  UNL     1      22.165   1.320  50.441  1.00  0.00     0.009 A 
HETATM   17  C6  UNL     1      21.199   1.009  49.515  1.00  0.00     0.004 A 
HETATM   18  C7  UNL     1      21.276   1.639  48.281  1.00  0.00     0.042 A 
HETATM   19  C8  UNL     1      22.315   2.540  48.049  1.00  0.00     0.117 A 
HETATM   20  F1  UNL     1      22.391   3.159  46.840  1.00  0.00    -0.206 F 
HETATM   21  C9  UNL     1      23.285   2.839  49.009  1.00  0.00     0.051 A 
ENDBRANCH  14  15
ENDBRANCH  13  14
ENDBRANCH   2  13
TORSDOF 3
ENDMDL
MODEL 5
REMARK VINA RESULT:      -7.8      1.261      2.549
REMARK  3 active torsions:
REMARK  status: ('A' for Active; 'I' for Inactive)
REMARK    1  A    between atoms: C2_2  and  O1_3 
REMARK    2  A    between atoms: O1_3  and  C3_4 
REMARK    3  A    between atoms: C3_4  and  C4_5 
ROOT
HETATM    1  C1  UNL     1      26.247   2.392  53.661  1.00  0.00     0.051 C 
HETATM    2  C2  UNL     1      26.968   1.769  52.486  1.00  0.00     0.082 C 
HETATM    3  C10 UNL     1      28.313   1.333  53.013  1.00  0.00     0.027 C 
HETATM    4  C11 UNL     1      28.412   0.223  53.763  1.00  0.00     0.085 C 
HETATM    5  N1  UNL     1      27.447  -0.742  54.229  1.00  0.00    -0.364 N 
HETATM    6  C12 UNL     1      26.005  -0.146  54.540  1.00  0.00     0.217 A 
HETATM    7  N2  UNL     1      25.693  -0.575  55.790  1.00  0.00    -0.245 NA
HETATM    8  C13 UNL     1      24.875  -0.960  54.717  1.00  0.00     0.247 A 
HETATM    9  N3  UNL     1      24.543  -0.947  53.338  1.00  0.00    -0.250 NA
HETATM   10  C14 UNL     1      25.566  -0.160  53.124  1.00  0.00     0.068 A 
HETATM   11  C15 UNL     1      26.209   0.556  51.999  1.00  0.00     0.101 C 
HETATM   12  H12 UNL     1      27.745  -1.759  54.334  1.00  0.00     0.162 HD
ENDROOT
BRANCH   2  13
HETATM   13  O1  UNL     1      27.200   2.727  51.552  1.00  0.00    -0.372 OA
BRANCH  13  14
HETATM   14  C3  UNL     1      26.479   2.719  50.405  1.00  0.00     0.207 C 
BRANCH  14  15
HETATM   15  C4  UNL     1      26.469   4.073  49.743  1.00  0.00    -0.032 A 
HETATM   16  C5  UNL     1      25.393   4.924  49.920  1.00  0.00     0.009 A 
HETATM   17  C6  UNL     1      25.276   6.175  49.366  1.00  0.00     0.004 A 
HETATM   18  C7  UNL     1      26.323   6.618  48.568  1.00  0.00     0.042 A 
HETATM   19  C8  UNL     1      27.420   5.780  48.373  1.00  0.00     0.117 A 
HETATM   20  F1  UNL     1      28.447   6.212  47.592  1.00  0.00    -0.206 F 
HETATM   21  C9  UNL     1      27.514   4.510  48.948  1.00  0.00     0.051 A 
ENDBRANCH  14  15
ENDBRANCH  13  14
ENDBRANCH   2  13
TORSDOF 3
ENDMDL
MODEL 6
REMARK VINA RESULT:      -7.5      1.733      1.970
REMARK  3 active torsions:
REMARK  status: ('A' for Active; 'I' for Inactive)
REMARK    1  A    between atoms: C2_2  and  O1_3 
REMARK    2  A    between atoms: O1_3  and  C3_4 
REMARK    3  A    between atoms: C3_4  and  C4_5 
ROOT
HETATM    1  C1  UNL     1      26.513   1.135  51.625  1.00  0.00     0.051 C 
HETATM    2  C2  UNL     1      25.575   1.666  52.687  1.00  0.00     0.082 C 
HETATM    3  C10 UNL     1      24.623   0.537  52.998  1.00  0.00     0.027 C 
HETATM    4  C11 UNL     1      25.029  -0.492  53.760  1.00  0.00     0.085 C 
HETATM    5  N1  UNL     1      26.276  -0.804  54.413  1.00  0.00    -0.364 N 
HETATM    6  C12 UNL     1      27.576  -0.310  53.640  1.00  0.00     0.217 A 
HETATM    7  N2  UNL     1      28.388  -1.394  53.557  1.00  0.00    -0.245 NA
HETATM    8  C13 UNL     1      28.840  -0.260  54.247  1.00  0.00     0.247 A 
HETATM    9  N3  UNL     1      28.659   1.067  54.716  1.00  0.00    -0.250 NA
HETATM   10  C14 UNL     1      27.484   1.084  54.140  1.00  0.00     0.068 A 
HETATM   11  C15 UNL     1      26.353   2.016  53.935  1.00  0.00     0.101 C 
HETATM   12  H12 UNL     1      26.255  -1.328  55.340  1.00  0.00     0.162 HD
ENDROOT
BRANCH   2  13
HETATM   13  O1  UNL     1      24.835   2.674  52.157  1.00  0.00    -0.372 OA
BRANCH  13  14
HETATM   14  C3  UNL     1      24.255   2.500  50.945  1.00  0.00     0.207 C 
BRANCH  14  15
HETATM   15  C4  UNL     1      24.408   3.719  50.073  1.00  0.00    -0.032 A 
HETATM   16  C5  UNL     1      25.557   4.486  50.148  1.00  0.00     0.009 A 
HETATM   17  C6  UNL     1      25.804   5.614  49.405  1.00  0.00     0.004 A 
HETATM   18  C7  UNL     1      24.821   6.012  48.509  1.00  0.00     0.042 A 
HETATM   19  C8  UNL     1      23.652   5.258  48.413  1.00  0.00     0.117 A 
HETATM   20  F1  UNL     1      22.688   5.647  47.535  1.00  0.00    -0.206 F 
HETATM   21  C9  UNL     1      23.426   4.113  49.182  1.00  0.00     0.051 A 
ENDBRANCH  14  15
ENDBRANCH  13  14
ENDBRANCH   2  13
TORSDOF 3
ENDMDL
MODEL 7
REMARK VINA RESULT:      -7.2      4.692      6.594
REMARK  3 active torsions:
REMARK  status: ('A' for Active; 'I' for Inactive)
REMARK    1  A    between atoms: C2_2  and  O1_3 
REMARK    2  A    between atoms: O1_3  and  C3_4 
REMARK    3  A    between atoms: C3_4  and  C4_5 
ROOT
HETATM    1  C1  UNL     1      23.558   2.491  52.879  1.00  0.00     0.051 C 
HETATM    2  C2  UNL     1      23.660   1.308  51.941  1.00  0.00     0.082 C 
HETATM    3  C10 UNL     1      22.923   0.180  52.622  1.00  0.00     0.027 C 
HETATM    4  C11 UNL     1      21.580   0.162  52.626  1.00  0.00     0.085 C 
HETATM    5  N1  UNL     1      20.580   1.048  52.083  1.00  0.00    -0.364 N 
HETATM    6  C12 UNL     1      20.983   2.587  52.080  1.00  0.00     0.217 A 
HETATM    7  N2  UNL     1      19.947   3.240  52.666  1.00  0.00    -0.245 NA
HETATM    8  C13 UNL     1      20.280   3.549  51.339  1.00  0.00     0.247 A 
HETATM    9  N3  UNL     1      21.084   3.373  50.183  1.00  0.00    -0.250 NA
HETATM   10  C14 UNL     1      21.793   2.491  50.841  1.00  0.00     0.068 A 
HETATM   11  C15 UNL     1      22.977   1.628  50.631  1.00  0.00     0.101 C 
HETATM   12  H12 UNL     1      19.663   0.636  51.730  1.00  0.00     0.162 HD
ENDROOT
BRANCH   2  13
HETATM   13  O1  UNL     1      24.960   0.931  51.846  1.00  0.00    -0.372 OA
BRANCH  13  14
HETATM   14  C3  UNL     1      25.465   0.068  52.761  1.00  0.00     0.207 C 
BRANCH  14  15
HETATM   15  C4  UNL     1      26.873   0.433  53.155  1.00  0.00    -0.032 A 
HETATM   16  C5  UNL     1      27.213   1.757  53.365  1.00  0.00     0.009 A 
HETATM   17  C6  UNL     1      28.460   2.205  53.726  1.00  0.00     0.004 A 
HETATM   18  C7  UNL     1      29.455   1.250  53.892  1.00  0.00     0.042 A 
HETATM   19  C8  UNL     1      29.140  -0.092  53.686  1.00  0.00     0.117 A 
HETATM   20  F1  UNL     1      30.113  -1.029  53.848  1.00  0.00    -0.206 F 
HETATM   21  C9  UNL     1      27.861  -0.521  53.319  1.00  0.00     0.051 A 
ENDBRANCH  14  15
ENDBRANCH  13  14
ENDBRANCH   2  13
TORSDOF 3
ENDMDL
MODEL 8
REMARK VINA RESULT:      -7.1      4.364      5.885
REMARK  3 active torsions:
REMARK  status: ('A' for Active; 'I' for Inactive)
REMARK    1  A    between atoms: C2_2  and  O1_3 
REMARK    2  A    between atoms: O1_3  and  C3_4 
REMARK    3  A    between atoms: C3_4  and  C4_5 
ROOT
HETATM    1  C1  UNL     1      24.719   2.634  53.600  1.00  0.00     0.051 C 
HETATM    2  C2  UNL     1      24.276   1.609  52.580  1.00  0.00     0.082 C 
HETATM    3  C10 UNL     1      25.148   1.832  51.368  1.00  0.00     0.027 C 
HETATM    4  C11 UNL     1      26.420   1.399  51.367  1.00  0.00     0.085 C 
HETATM    5  N1  UNL     1      27.226   0.707  52.341  1.00  0.00    -0.364 N 
HETATM    6  C12 UNL     1      26.903   1.072  53.856  1.00  0.00     0.217 A 
HETATM    7  N2  UNL     1      28.097   1.385  54.421  1.00  0.00    -0.245 NA
HETATM    8  C13 UNL     1      27.368   0.301  54.932  1.00  0.00     0.247 A 
HETATM    9  N3  UNL     1      26.229  -0.546  54.931  1.00  0.00    -0.250 NA
HETATM   10  C14 UNL     1      25.735   0.161  53.947  1.00  0.00     0.068 A 
HETATM   11  C15 UNL     1      24.515   0.215  53.112  1.00  0.00     0.101 C 
HETATM   12  H12 UNL     1      27.964   0.018  52.002  1.00  0.00     0.162 HD
ENDROOT
BRANCH   2  13
HETATM   13  O1  UNL     1      23.000   1.882  52.205  1.00  0.00    -0.372 OA
BRANCH  13  14
HETATM   14  C3  UNL     1      22.436   1.159  51.207  1.00  0.00     0.207 C 
BRANCH  14  15
HETATM   15  C4  UNL     1      21.087   0.616  51.604  1.00  0.00    -0.032 A 
HETATM   16  C5  UNL     1      20.907   0.055  52.855  1.00  0.00     0.009 A 
HETATM   17  C6  UNL     1      19.727  -0.469  53.323  1.00  0.00     0.004 A 
HETATM   18  C7  UNL     1      18.632  -0.430  52.471  1.00  0.00     0.042 A 
HETATM   19  C8  UNL     1      18.786   0.131  51.203  1.00  0.00     0.117 A 
HETATM   20  F1  UNL     1      17.714   0.171  50.367  1.00  0.00    -0.206 F 
HETATM   21  C9  UNL     1      19.999   0.658  50.752  1.00  0.00     0.051 A 
ENDBRANCH  14  15
ENDBRANCH  13  14
ENDBRANCH   2  13
TORSDOF 3
ENDMDL
MODEL 9
REMARK VINA RESULT:      -7.0      4.208      6.831
REMARK  3 active torsions:
REMARK  status: ('A' for Active; 'I' for Inactive)
REMARK    1  A    between atoms: C2_2  and  O1_3 
REMARK    2  A    between atoms: O1_3  and  C3_4 
REMARK    3  A    between atoms: C3_4  and  C4_5 
ROOT
HETATM    1  C1  UNL     1      23.144   1.971  50.464  1.00  0.00     0.051 C 
HETATM    2  C2  UNL     1      23.811   2.006  51.821  1.00  0.00     0.082 C 
HETATM    3  C10 UNL     1      24.441   3.373  51.935  1.00  0.00     0.027 C 
HETATM    4  C11 UNL     1      23.675   4.445  52.197  1.00  0.00     0.085 C 
HETATM    5  N1  UNL     1      22.259   4.615  52.416  1.00  0.00    -0.364 N 
HETATM    6  C12 UNL     1      21.332   3.623  51.589  1.00  0.00     0.217 A 
HETATM    7  N2  UNL     1      20.414   4.408  50.969  1.00  0.00    -0.245 NA
HETATM    8  C13 UNL     1      19.972   3.441  51.884  1.00  0.00     0.247 A 
HETATM    9  N3  UNL     1      20.222   2.386  52.800  1.00  0.00    -0.250 NA
HETATM   10  C14 UNL     1      21.499   2.493  52.536  1.00  0.00     0.068 A 
HETATM   11  C15 UNL     1      22.776   1.845  52.911  1.00  0.00     0.101 C 
HETATM   12  H12 UNL     1      21.930   5.369  53.093  1.00  0.00     0.162 HD
ENDROOT
BRANCH   2  13
HETATM   13  O1  UNL     1      24.824   1.102  51.838  1.00  0.00    -0.372 OA
BRANCH  13  14
HETATM   14  C3  UNL     1      25.030   0.363  52.956  1.00  0.00     0.207 C 
BRANCH  14  15
HETATM   15  C4  UNL     1      26.499   0.176  53.238  1.00  0.00    -0.032 A 
HETATM   16  C5  UNL     1      27.126  -1.008  52.895  1.00  0.00     0.009 A 
HETATM   17  C6  UNL     1      28.454  -1.288  53.104  1.00  0.00     0.004 A 
HETATM   18  C7  UNL     1      29.224  -0.303  53.707  1.00  0.00     0.042 A 
HETATM   19  C8  UNL     1      28.617   0.901  54.063  1.00  0.00     0.117 A 
HETATM   20  F1  UNL     1      29.370   1.868  54.654  1.00  0.00    -0.206 F 
HETATM   21  C9  UNL     1      27.263   1.160  53.839  1.00  0.00     0.051 A 
ENDBRANCH  14  15
ENDBRANCH  13  14
ENDBRANCH   2  13
TORSDOF 3
ENDMDL
