MODEL 1
REMARK VINA RESULT:      -8.8      0.000      0.000
REMARK  5 active torsions:
REMARK  status: ('A' for Active; 'I' for Inactive)
REMARK    1  A    between atoms: C2_2  and  C5_5 
REMARK    2  A    between atoms: C8_8  and  N1_9 
REMARK    3  A    between atoms: N1_9  and  C9_10 
REMARK    4  A    between atoms: C14_17  and  N4_18 
REMARK       I    between atoms: N4_18  and  C15_19 
REMARK    5  A    between atoms: C15_19  and  C16_21 
ROOT
HETATM    1  C9  UNL     1      26.553   2.089  52.019  1.00  0.00     0.142 A 
HETATM    2  N2  UNL     1      27.827   2.412  52.275  1.00  0.00    -0.224 NA
HETATM    3  C10 UNL     1      28.547   1.992  53.311  1.00  0.00     0.236 A 
HETATM    4  N3  UNL     1      27.933   1.174  54.167  1.00  0.00    -0.241 NA
HETATM    5  C11 UNL     1      26.662   0.771  54.033  1.00  0.00     0.072 A 
HETATM    6  C12 UNL     1      26.153  -0.073  54.989  1.00  0.00     0.035 A 
HETATM    7  C13 UNL     1      24.842  -0.493  54.861  1.00  0.00     0.032 A 
HETATM    8  C14 UNL     1      24.112  -0.045  53.783  1.00  0.00     0.035 A 
HETATM    9  C17 UNL     1      24.659   0.811  52.828  1.00  0.00     0.047 A 
HETATM   10  C18 UNL     1      25.963   1.244  52.931  1.00  0.00     0.041 A 
ENDROOT
BRANCH   1  11
HETATM   11  N1  UNL     1      25.824   2.552  50.899  1.00  0.00    -0.340 N 
HETATM   12  H12 UNL     1      25.043   2.033  50.454  1.00  0.00     0.167 HD
BRANCH  11  13
HETATM   13  C8  UNL     1      26.038   3.765  50.225  1.00  0.00     0.033 A 
HETATM   14  C7  UNL     1      25.291   4.902  50.423  1.00  0.00     0.030 A 
HETATM   15  C6  UNL     1      25.509   6.102  49.779  1.00  0.00     0.010 A 
HETATM   16  C5  UNL     1      26.518   6.223  48.874  1.00  0.00    -0.051 A 
HETATM   17  C20 UNL     1      27.307   5.138  48.619  1.00  0.00     0.010 A 
HETATM   18  C19 UNL     1      27.052   3.967  49.284  1.00  0.00     0.030 A 
BRANCH  16  19
HETATM   19  C2  UNL     1      26.829   7.467  48.133  1.00  0.00    -0.024 C 
HETATM   20  C1  UNL     1      27.005   8.552  49.202  1.00  0.00     0.019 C 
HETATM   21  C3  UNL     1      28.120   7.378  47.349  1.00  0.00     0.019 C 
HETATM   22  C4  UNL     1      25.723   7.831  47.162  1.00  0.00     0.019 C 
ENDBRANCH  16  19
ENDBRANCH  11  13
ENDBRANCH   1  11
BRANCH   8  23
HETATM   23  N4  UNL     1      22.775  -0.527  53.728  1.00  0.00    -0.325 N 
HETATM   24  C15 UNL     1      21.844  -1.402  54.335  1.00  0.00     0.250 C 
HETATM   25  O1  UNL     1      22.102  -2.130  55.322  1.00  0.00    -0.271 OA
HETATM   26  H16 UNL     1      22.451   0.050  52.892  1.00  0.00     0.169 HD
BRANCH  24  27
HETATM   27  C16 UNL     1      20.473  -1.464  53.775  1.00  0.00     0.325 C 
HETATM   28  F1  UNL     1      20.283  -0.526  52.763  1.00  0.00    -0.246 F 
ENDBRANCH  24  27
ENDBRANCH   8  23
TORSDOF 5
ENDMDL
MODEL 2
REMARK VINA RESULT:      -8.6      3.505      5.264
REMARK  5 active torsions:
REMARK  status: ('A' for Active; 'I' for Inactive)
REMARK    1  A    between atoms: C2_2  and  C5_5 
REMARK    2  A    between atoms: C8_8  and  N1_9 
REMARK    3  A    between atoms: N1_9  and  C9_10 
REMARK    4  A    between atoms: C14_17  and  N4_18 
REMARK       I    between atoms: N4_18  and  C15_19 
REMARK    5  A    between atoms: C15_19  and  C16_21 
ROOT
HETATM    1  C9  UNL     1      22.170   0.157  52.465  1.00  0.00     0.142 A 
HETATM    2  N2  UNL     1      20.868   0.002  52.735  1.00  0.00    -0.224 NA
HETATM    3  C10 UNL     1      20.357  -0.536  53.840  1.00  0.00     0.236 A 
HETATM    4  N3  UNL     1      21.232  -0.955  54.755  1.00  0.00    -0.241 NA
HETATM    5  C11 UNL     1      22.562  -0.862  54.613  1.00  0.00     0.072 A 
HETATM    6  C12 UNL     1      23.348  -1.333  55.634  1.00  0.00     0.035 A 
HETATM    7  C13 UNL     1      24.721  -1.243  55.498  1.00  0.00     0.032 A 
HETATM    8  C14 UNL     1      25.231  -0.686  54.348  1.00  0.00     0.035 A 
HETATM    9  C17 UNL     1      24.404  -0.215  53.329  1.00  0.00     0.047 A 
HETATM   10  C18 UNL     1      23.033  -0.291  53.439  1.00  0.00     0.041 A 
ENDROOT
BRANCH   1  11
HETATM   11  N1  UNL     1      22.673   0.742  51.280  1.00  0.00    -0.340 N 
HETATM   12  H12 UNL     1      23.026   0.204  50.466  1.00  0.00     0.167 HD
BRANCH  11  13
HETATM   13  C8  UNL     1      22.772   2.119  51.024  1.00  0.00     0.033 A 
HETATM   14  C7  UNL     1      23.008   2.659  49.782  1.00  0.00     0.030 A 
HETATM   15  C6  UNL     1      23.086   4.011  49.519  1.00  0.00     0.010 A 
HETATM   16  C5  UNL     1      22.929   4.916  50.523  1.00  0.00    -0.051 A 
HETATM   17  C20 UNL     1      22.693   4.461  51.789  1.00  0.00     0.010 A 
HETATM   18  C19 UNL     1      22.623   3.109  52.000  1.00  0.00     0.030 A 
BRANCH  16  19
HETATM   19  C2  UNL     1      22.997   6.384  50.341  1.00  0.00    -0.024 C 
HETATM   20  C1  UNL     1      21.654   6.926  50.843  1.00  0.00     0.019 C 
HETATM   21  C3  UNL     1      24.091   7.030  51.164  1.00  0.00     0.019 C 
HETATM   22  C4  UNL     1      23.229   6.757  48.890  1.00  0.00     0.019 C 
ENDBRANCH  16  19
ENDBRANCH  11  13
ENDBRANCH   1  11
BRANCH   8  23
HETATM   23  N4  UNL     1      26.651  -0.632  54.290  1.00  0.00    -0.325 N 
HETATM   24  C15 UNL     1      27.773   0.222  54.408  1.00  0.00     0.250 C 
HETATM   25  O1  UNL     1      27.701   1.448  54.654  1.00  0.00    -0.271 OA
HETATM   26  H16 UNL     1      26.824  -1.663  54.079  1.00  0.00     0.169 HD
BRANCH  24  27
HETATM   27  C16 UNL     1      29.122  -0.366  54.231  1.00  0.00     0.325 C 
HETATM   28  F1  UNL     1      29.089  -1.515  53.445  1.00  0.00    -0.246 F 
ENDBRANCH  24  27
ENDBRANCH   8  23
TORSDOF 5
ENDMDL
MODEL 3
REMARK VINA RESULT:      -8.5      4.545      8.880
REMARK  5 active torsions:
REMARK  status: ('A' for Active; 'I' for Inactive)
REMARK    1  A    between atoms: C2_2  and  C5_5 
REMARK    2  A    between atoms: C8_8  and  N1_9 
REMARK    3  A    between atoms: N1_9  and  C9_10 
REMARK    4  A    between atoms: C14_17  and  N4_18 
REMARK       I    between atoms: N4_18  and  C15_19 
REMARK    5  A    between atoms: C15_19  and  C16_21 
ROOT
HETATM    1  C9  UNL     1      25.355   5.360  49.406  1.00  0.00     0.142 A 
HETATM    2  N2  UNL     1      24.392   6.162  49.877  1.00  0.00    -0.224 NA
HETATM    3  C10 UNL     1      24.480   7.480  50.035  1.00  0.00     0.236 A 
HETATM    4  N3  UNL     1      25.637   8.044  49.687  1.00  0.00    -0.241 NA
HETATM    5  C11 UNL     1      26.684   7.360  49.203  1.00  0.00     0.072 A 
HETATM    6  C12 UNL     1      27.817   8.066  48.884  1.00  0.00     0.035 A 
HETATM    7  C13 UNL     1      28.903   7.371  48.385  1.00  0.00     0.032 A 
HETATM    8  C14 UNL     1      28.795   6.008  48.232  1.00  0.00     0.035 A 
HETATM    9  C17 UNL     1      27.628   5.320  48.563  1.00  0.00     0.047 A 
HETATM   10  C18 UNL     1      26.531   5.988  49.062  1.00  0.00     0.041 A 
ENDROOT
BRANCH   1  11
HETATM   11  N1  UNL     1      25.220   3.962  49.245  1.00  0.00    -0.340 N 
HETATM   12  H12 UNL     1      25.041   3.491  48.338  1.00  0.00     0.167 HD
BRANCH  11  13
HETATM   13  C8  UNL     1      25.305   3.007  50.271  1.00  0.00     0.033 A 
HETATM   14  C7  UNL     1      24.218   2.415  50.870  1.00  0.00     0.030 A 
HETATM   15  C6  UNL     1      24.295   1.462  51.863  1.00  0.00     0.010 A 
HETATM   16  C5  UNL     1      25.506   1.043  52.320  1.00  0.00    -0.051 A 
HETATM   17  C20 UNL     1      26.638   1.582  51.778  1.00  0.00     0.010 A 
HETATM   18  C19 UNL     1      26.510   2.526  50.793  1.00  0.00     0.030 A 
BRANCH  16  19
HETATM   19  C2  UNL     1      25.691   0.027  53.382  1.00  0.00    -0.024 C 
HETATM   20  C1  UNL     1      26.504  -1.102  52.737  1.00  0.00     0.019 C 
HETATM   21  C3  UNL     1      26.481   0.546  54.564  1.00  0.00     0.019 C 
HETATM   22  C4  UNL     1      24.362  -0.486  53.903  1.00  0.00     0.019 C 
ENDBRANCH  16  19
ENDBRANCH  11  13
ENDBRANCH   1  11
BRANCH   8  23
HETATM   23  N4  UNL     1      29.956   5.372  47.712  1.00  0.00    -0.325 N 
HETATM   24  C15 UNL     1      31.285   4.986  48.010  1.00  0.00     0.250 C 
HETATM   25  O1  UNL     1      31.848   5.197  49.109  1.00  0.00    -0.271 OA
HETATM   26  H16 UNL     1      29.571   5.144  46.744  1.00  0.00     0.169 HD
BRANCH  24  27
HETATM   27  C16 UNL     1      32.062   4.286  46.961  1.00  0.00     0.325 C 
HETATM   28  F1  UNL     1      32.529   3.050  47.399  1.00  0.00    -0.246 F 
ENDBRANCH  24  27
ENDBRANCH   8  23
TORSDOF 5
ENDMDL
MODEL 4
REMARK VINA RESULT:      -8.5      1.513      2.033
REMARK  5 active torsions:
REMARK  status: ('A' for Active; 'I' for Inactive)
REMARK    1  A    between atoms: C2_2  and  C5_5 
REMARK    2  A    between atoms: C8_8  and  N1_9 
REMARK    3  A    between atoms: N1_9  and  C9_10 
REMARK    4  A    between atoms: C14_17  and  N4_18 
REMARK       I    between atoms: N4_18  and  C15_19 
REMARK    5  A    between atoms: C15_19  and  C16_21 
ROOT
HETATM    1  C9  UNL     1      25.844   2.140  51.616  1.00  0.00     0.142 A 
HETATM    2  N2  UNL     1      27.146   2.155  51.925  1.00  0.00    -0.224 NA
HETATM    3  C10 UNL     1      27.740   1.402  52.847  1.00  0.00     0.236 A 
HETATM    4  N3  UNL     1      26.956   0.559  53.520  1.00  0.00    -0.241 NA
HETATM    5  C11 UNL     1      25.636   0.442  53.314  1.00  0.00     0.072 A 
HETATM    6  C12 UNL     1      24.947  -0.466  54.077  1.00  0.00     0.035 A 
HETATM    7  C13 UNL     1      23.586  -0.594  53.874  1.00  0.00     0.032 A 
HETATM    8  C14 UNL     1      22.989   0.195  52.917  1.00  0.00     0.035 A 
HETATM    9  C17 UNL     1      23.718   1.108  52.156  1.00  0.00     0.047 A 
HETATM   10  C18 UNL     1      25.076   1.255  52.337  1.00  0.00     0.041 A 
ENDROOT
BRANCH   1  11
HETATM   11  N1  UNL     1      25.252   2.952  50.621  1.00  0.00    -0.340 N 
HETATM   12  H12 UNL     1      24.292   2.817  50.251  1.00  0.00     0.167 HD
BRANCH  11  13
HETATM   13  C8  UNL     1      25.859   4.049  49.989  1.00  0.00     0.033 A 
HETATM   14  C7  UNL     1      26.985   3.965  49.205  1.00  0.00     0.030 A 
HETATM   15  C6  UNL     1      27.574   5.035  48.565  1.00  0.00     0.010 A 
HETATM   16  C5  UNL     1      27.047   6.283  48.686  1.00  0.00    -0.051 A 
HETATM   17  C20 UNL     1      25.927   6.454  49.451  1.00  0.00     0.010 A 
HETATM   18  C19 UNL     1      25.377   5.360  50.066  1.00  0.00     0.030 A 
BRANCH  16  19
HETATM   19  C2  UNL     1      27.607   7.492  48.040  1.00  0.00    -0.024 C 
HETATM   20  C1  UNL     1      28.882   7.026  47.326  1.00  0.00     0.019 C 
HETATM   21  C3  UNL     1      26.685   8.083  46.996  1.00  0.00     0.019 C 
HETATM   22  C4  UNL     1      27.914   8.577  49.054  1.00  0.00     0.019 C 
ENDBRANCH  16  19
ENDBRANCH  11  13
ENDBRANCH   1  11
BRANCH   8  23
HETATM   23  N4  UNL     1      21.587  -0.001  52.772  1.00  0.00    -0.325 N 
HETATM   24  C15 UNL     1      20.334   0.656  52.731  1.00  0.00     0.250 C 
HETATM   25  O1  UNL     1      20.184   1.894  52.853  1.00  0.00    -0.271 OA
HETATM   26  H16 UNL     1      21.604  -1.061  52.658  1.00  0.00     0.169 HD
BRANCH  24  27
HETATM   27  C16 UNL     1      19.119  -0.168  52.531  1.00  0.00     0.325 C 
HETATM   28  F1  UNL     1      18.811  -0.319  51.181  1.00  0.00    -0.246 F 
ENDBRANCH  24  27
ENDBRANCH   8  23
TORSDOF 5
ENDMDL
MODEL 5
REMARK VINA RESULT:      -8.4      2.979      4.389
REMARK  5 active torsions:
REMARK  status: ('A' for Active; 'I' for Inactive)
REMARK    1  A    between atoms: C2_2  and  C5_5 
REMARK    2  A    between atoms: C8_8  and  N1_9 
REMARK    3  A    between atoms: N1_9  and  C9_10 
REMARK    4  A    between atoms: C14_17  and  N4_18 
REMARK       I    between atoms: N4_18  and  C15_19 
REMARK    5  A    between atoms: C15_19  and  C16_21 
ROOT
HETATM    1  C9  UNL     1      25.178   3.095  50.192  1.00  0.00     0.142 A 
HETATM    2  N2  UNL     1      23.960   3.626  50.026  1.00  0.00    -0.224 NA
HETATM    3  C10 UNL     1      22.903   3.416  50.804  1.00  0.00     0.236 A 
HETATM    4  N3  UNL     1      23.083   2.600  51.843  1.00  0.00    -0.241 NA
HETATM    5  C11 UNL     1      24.248   1.999  52.126  1.00  0.00     0.072 A 
HETATM    6  C12 UNL     1      24.296   1.182  53.228  1.00  0.00     0.035 A 
HETATM    7  C13 UNL     1      25.492   0.557  53.528  1.00  0.00     0.032 A 
HETATM    8  C14 UNL     1      26.574   0.784  52.709  1.00  0.00     0.035 A 
HETATM    9  C17 UNL     1      26.494   1.623  51.598  1.00  0.00     0.047 A 
HETATM   10  C18 UNL     1      25.314   2.259  51.276  1.00  0.00     0.041 A 
ENDROOT
BRANCH   1  11
HETATM   11  N1  UNL     1      26.280   3.351  49.345  1.00  0.00    -0.340 N 
HETATM   12  H12 UNL     1      26.853   2.614  48.890  1.00  0.00     0.167 HD
BRANCH  11  13
HETATM   13  C8  UNL     1      26.766   4.620  48.991  1.00  0.00     0.033 A 
HETATM   14  C7  UNL     1      26.025   5.776  49.050  1.00  0.00     0.030 A 
HETATM   15  C6  UNL     1      26.502   7.028  48.724  1.00  0.00     0.010 A 
HETATM   16  C5  UNL     1      27.787   7.187  48.307  1.00  0.00    -0.051 A 
HETATM   17  C20 UNL     1      28.592   6.086  48.219  1.00  0.00     0.010 A 
HETATM   18  C19 UNL     1      28.072   4.863  48.555  1.00  0.00     0.030 A 
BRANCH  16  19
HETATM   19  C2  UNL     1      28.389   8.487  47.934  1.00  0.00    -0.024 C 
HETATM   20  C1  UNL     1      28.234   8.594  46.413  1.00  0.00     0.019 C 
HETATM   21  C3  UNL     1      27.672   9.668  48.554  1.00  0.00     0.019 C 
HETATM   22  C4  UNL     1      29.847   8.566  48.342  1.00  0.00     0.019 C 
ENDBRANCH  16  19
ENDBRANCH  11  13
ENDBRANCH   1  11
BRANCH   8  23
HETATM   23  N4  UNL     1      27.764   0.104  53.091  1.00  0.00    -0.325 N 
HETATM   24  C15 UNL     1      28.760   0.006  54.091  1.00  0.00     0.250 C 
HETATM   25  O1  UNL     1      28.788   0.708  55.128  1.00  0.00    -0.271 OA
HETATM   26  H16 UNL     1      27.834  -0.543  52.246  1.00  0.00     0.169 HD
BRANCH  24  27
HETATM   27  C16 UNL     1      29.841  -0.991  53.906  1.00  0.00     0.325 C 
HETATM   28  F1  UNL     1      29.478  -1.990  53.007  1.00  0.00    -0.246 F 
ENDBRANCH  24  27
ENDBRANCH   8  23
TORSDOF 5
ENDMDL
MODEL 6
REMARK VINA RESULT:      -8.4      5.485      8.993
REMARK  5 active torsions:
REMARK  status: ('A' for Active; 'I' for Inactive)
REMARK    1  A    between atoms: C2_2  and  C5_5 
REMARK    2  A    between atoms: C8_8  and  N1_9 
REMARK    3  A    between atoms: N1_9  and  C9_10 
REMARK    4  A    between atoms: C14_17  and  N4_18 
REMARK       I    between atoms: N4_18  and  C15_19 
REMARK    5  A    between atoms: C15_19  and  C16_21 
ROOT
HETATM    1  C9  UNL     1      28.635   7.521  48.435  1.00  0.00     0.142 A 
HETATM    2  N2  UNL     1      28.285   8.781  48.721  1.00  0.00    -0.224 NA
HETATM    3  C10 UNL     1      29.098   9.738  49.160  1.00  0.00     0.236 A 
HETATM    4  N3  UNL     1      30.378   9.400  49.325  1.00  0.00    -0.241 NA
HETATM    5  C11 UNL     1      30.863   8.175  49.077  1.00  0.00     0.072 A 
HETATM    6  C12 UNL     1      32.203   7.963  49.290  1.00  0.00     0.035 A 
HETATM    7  C13 UNL     1      32.714   6.703  49.039  1.00  0.00     0.032 A 
HETATM    8  C14 UNL     1      31.857   5.725  48.588  1.00  0.00     0.035 A 
HETATM    9  C17 UNL     1      30.500   5.974  48.380  1.00  0.00     0.047 A 
HETATM   10  C18 UNL     1      29.965   7.220  48.621  1.00  0.00     0.041 A 
ENDROOT
BRANCH   1  11
HETATM   11  N1  UNL     1      27.740   6.534  47.962  1.00  0.00    -0.340 N 
HETATM   12  H12 UNL     1      27.582   6.319  46.959  1.00  0.00     0.167 HD
BRANCH  11  13
HETATM   13  C8  UNL     1      26.938   5.703  48.762  1.00  0.00     0.033 A 
HETATM   14  C7  UNL     1      25.800   6.118  49.411  1.00  0.00     0.030 A 
HETATM   15  C6  UNL     1      24.997   5.303  50.181  1.00  0.00     0.010 A 
HETATM   16  C5  UNL     1      25.308   3.989  50.343  1.00  0.00    -0.051 A 
HETATM   17  C20 UNL     1      26.426   3.496  49.732  1.00  0.00     0.010 A 
HETATM   18  C19 UNL     1      27.192   4.345  48.976  1.00  0.00     0.030 A 
BRANCH  16  19
HETATM   19  C2  UNL     1      24.511   3.037  51.150  1.00  0.00    -0.024 C 
HETATM   20  C1  UNL     1      23.408   2.525  50.215  1.00  0.00     0.019 C 
HETATM   21  C3  UNL     1      25.313   1.840  51.613  1.00  0.00     0.019 C 
HETATM   22  C4  UNL     1      23.921   3.701  52.378  1.00  0.00     0.019 C 
ENDBRANCH  16  19
ENDBRANCH  11  13
ENDBRANCH   1  11
BRANCH   8  23
HETATM   23  N4  UNL     1      32.465   4.461  48.354  1.00  0.00    -0.325 N 
HETATM   24  C15 UNL     1      32.536   3.370  47.456  1.00  0.00     0.250 C 
HETATM   25  O1  UNL     1      31.884   3.293  46.389  1.00  0.00    -0.271 OA
HETATM   26  H16 UNL     1      33.063   4.427  49.236  1.00  0.00     0.169 HD
BRANCH  24  27
HETATM   27  C16 UNL     1      33.440   2.245  47.793  1.00  0.00     0.325 C 
HETATM   28  F1  UNL     1      32.772   1.023  47.792  1.00  0.00    -0.246 F 
ENDBRANCH  24  27
ENDBRANCH   8  23
TORSDOF 5
ENDMDL
MODEL 7
REMARK VINA RESULT:      -8.3      5.423      9.036
REMARK  5 active torsions:
REMARK  status: ('A' for Active; 'I' for Inactive)
REMARK    1  A    between atoms: C2_2  and  C5_5 
REMARK    2  A    between atoms: C8_8  and  N1_9 
REMARK    3  A    between atoms: N1_9  and  C9_10 
REMARK    4  A    between atoms: C14_17  and  N4_18 
REMARK       I    between atoms: N4_18  and  C15_19 
REMARK    5  A    between atoms: C15_19  and  C16_21 
ROOT
HETATM    1  C9  UNL     1      28.391   7.485  48.442  1.00  0.00     0.142 A 
HETATM    2  N2  UNL     1      27.965   8.719  48.742  1.00  0.00    -0.224 NA
HETATM    3  C10 UNL     1      28.719   9.718  49.193  1.00  0.00     0.236 A 
HETATM    4  N3  UNL     1      30.016   9.456  49.356  1.00  0.00    -0.241 NA
HETATM    5  C11 UNL     1      30.575   8.266  49.096  1.00  0.00     0.072 A 
HETATM    6  C12 UNL     1      31.925   8.132  49.309  1.00  0.00     0.035 A 
HETATM    7  C13 UNL     1      32.511   6.909  49.044  1.00  0.00     0.032 A 
HETATM    8  C14 UNL     1      31.715   5.886  48.581  1.00  0.00     0.035 A 
HETATM    9  C17 UNL     1      30.347   6.054  48.373  1.00  0.00     0.047 A 
HETATM   10  C18 UNL     1      29.736   7.263  48.628  1.00  0.00     0.041 A 
ENDROOT
BRANCH   1  11
HETATM   11  N1  UNL     1      27.558   6.451  47.957  1.00  0.00    -0.340 N 
HETATM   12  H12 UNL     1      27.405   6.245  46.952  1.00  0.00     0.167 HD
BRANCH  11  13
HETATM   13  C8  UNL     1      26.819   5.555  48.746  1.00  0.00     0.033 A 
HETATM   14  C7  UNL     1      27.219   4.273  49.041  1.00  0.00     0.030 A 
HETATM   15  C6  UNL     1      26.508   3.394  49.831  1.00  0.00     0.010 A 
HETATM   16  C5  UNL     1      25.323   3.771  50.382  1.00  0.00    -0.051 A 
HETATM   17  C20 UNL     1      24.853   5.031  50.137  1.00  0.00     0.010 A 
HETATM   18  C19 UNL     1      25.595   5.867  49.346  1.00  0.00     0.030 A 
BRANCH  16  19
HETATM   19  C2  UNL     1      24.488   2.900  51.242  1.00  0.00    -0.024 C 
HETATM   20  C1  UNL     1      25.435   1.822  51.781  1.00  0.00     0.019 C 
HETATM   21  C3  UNL     1      23.902   3.633  52.430  1.00  0.00     0.019 C 
HETATM   22  C4  UNL     1      23.341   2.283  50.467  1.00  0.00     0.019 C 
ENDBRANCH  16  19
ENDBRANCH  11  13
ENDBRANCH   1  11
BRANCH   8  23
HETATM   23  N4  UNL     1      32.399   4.663  48.335  1.00  0.00    -0.325 N 
HETATM   24  C15 UNL     1      32.492   3.556  47.458  1.00  0.00     0.250 C 
HETATM   25  O1  UNL     1      31.778   3.403  46.440  1.00  0.00    -0.271 OA
HETATM   26  H16 UNL     1      33.056   4.697  49.174  1.00  0.00     0.169 HD
BRANCH  24  27
HETATM   27  C16 UNL     1      33.498   2.510  47.757  1.00  0.00     0.325 C 
HETATM   28  F1  UNL     1      32.963   1.483  48.531  1.00  0.00    -0.246 F 
ENDBRANCH  24  27
ENDBRANCH   8  23
TORSDOF 5
ENDMDL
MODEL 8
REMARK VINA RESULT:      -8.2      4.423      8.677
REMARK  5 active torsions:
REMARK  status: ('A' for Active; 'I' for Inactive)
REMARK    1  A    between atoms: C2_2  and  C5_5 
REMARK    2  A    between atoms: C8_8  and  N1_9 
REMARK    3  A    between atoms: N1_9  and  C9_10 
REMARK    4  A    between atoms: C14_17  and  N4_18 
REMARK       I    between atoms: N4_18  and  C15_19 
REMARK    5  A    between atoms: C15_19  and  C16_21 
ROOT
HETATM    1  C9  UNL     1      23.851   5.019  50.100  1.00  0.00     0.142 A 
HETATM    2  N2  UNL     1      22.641   5.315  50.590  1.00  0.00    -0.224 NA
HETATM    3  C10 UNL     1      22.205   6.529  50.914  1.00  0.00     0.236 A 
HETATM    4  N3  UNL     1      23.059   7.536  50.728  1.00  0.00    -0.241 NA
HETATM    5  C11 UNL     1      24.300   7.381  50.246  1.00  0.00     0.072 A 
HETATM    6  C12 UNL     1      25.077   8.505  50.105  1.00  0.00     0.035 A 
HETATM    7  C13 UNL     1      26.359   8.356  49.609  1.00  0.00     0.032 A 
HETATM    8  C14 UNL     1      26.794   7.092  49.282  1.00  0.00     0.035 A 
HETATM    9  C17 UNL     1      25.979   5.971  49.436  1.00  0.00     0.047 A 
HETATM   10  C18 UNL     1      24.697   6.090  49.927  1.00  0.00     0.041 A 
ENDROOT
BRANCH   1  11
HETATM   11  N1  UNL     1      24.274   3.713  49.760  1.00  0.00    -0.340 N 
HETATM   12  H12 UNL     1      24.269   3.328  48.796  1.00  0.00     0.167 HD
BRANCH  11  13
HETATM   13  C8  UNL     1      24.761   2.749  50.658  1.00  0.00     0.033 A 
HETATM   14  C7  UNL     1      23.963   1.942  51.433  1.00  0.00     0.030 A 
HETATM   15  C6  UNL     1      24.433   0.979  52.302  1.00  0.00     0.010 A 
HETATM   16  C5  UNL     1      25.771   0.773  52.439  1.00  0.00    -0.051 A 
HETATM   17  C20 UNL     1      26.634   1.536  51.704  1.00  0.00     0.010 A 
HETATM   18  C19 UNL     1      26.119   2.479  50.854  1.00  0.00     0.030 A 
BRANCH  16  19
HETATM   19  C2  UNL     1      26.372  -0.234  53.344  1.00  0.00    -0.024 C 
HETATM   20  C1  UNL     1      25.250  -0.647  54.305  1.00  0.00     0.019 C 
HETATM   21  C3  UNL     1      26.836  -1.477  52.617  1.00  0.00     0.019 C 
HETATM   22  C4  UNL     1      27.558   0.331  54.100  1.00  0.00     0.019 C 
ENDBRANCH  16  19
ENDBRANCH  11  13
ENDBRANCH   1  11
BRANCH   8  23
HETATM   23  N4  UNL     1      28.123   7.030  48.780  1.00  0.00    -0.325 N 
HETATM   24  C15 UNL     1      29.140   6.157  48.327  1.00  0.00     0.250 C 
HETATM   25  O1  UNL     1      29.023   4.911  48.270  1.00  0.00    -0.271 OA
HETATM   26  H16 UNL     1      28.326   8.077  48.788  1.00  0.00     0.169 HD
BRANCH  24  27
HETATM   27  C16 UNL     1      30.426   6.748  47.888  1.00  0.00     0.325 C 
HETATM   28  F1  UNL     1      31.443   5.798  47.837  1.00  0.00    -0.246 F 
ENDBRANCH  24  27
ENDBRANCH   8  23
TORSDOF 5
ENDMDL
MODEL 9
REMARK VINA RESULT:      -8.2      3.306      4.845
REMARK  5 active torsions:
REMARK  status: ('A' for Active; 'I' for Inactive)
REMARK    1  A    between atoms: C2_2  and  C5_5 
REMARK    2  A    between atoms: C8_8  and  N1_9 
REMARK    3  A    between atoms: N1_9  and  C9_10 
REMARK    4  A    between atoms: C14_17  and  N4_18 
REMARK       I    between atoms: N4_18  and  C15_19 
REMARK    5  A    between atoms: C15_19  and  C16_21 
ROOT
HETATM    1  C9  UNL     1      22.969   4.273  52.362  1.00  0.00     0.142 A 
HETATM    2  N2  UNL     1      21.662   4.282  52.073  1.00  0.00    -0.224 NA
HETATM    3  C10 UNL     1      20.855   3.225  52.066  1.00  0.00     0.236 A 
HETATM    4  N3  UNL     1      21.410   2.053  52.378  1.00  0.00    -0.241 NA
HETATM    5  C11 UNL     1      22.705   1.900  52.687  1.00  0.00     0.072 A 
HETATM    6  C12 UNL     1      23.146   0.635  52.988  1.00  0.00     0.035 A 
HETATM    7  C13 UNL     1      24.481   0.466  53.307  1.00  0.00     0.032 A 
HETATM    8  C14 UNL     1      25.301   1.571  53.307  1.00  0.00     0.035 A 
HETATM    9  C17 UNL     1      24.821   2.843  52.997  1.00  0.00     0.047 A 
HETATM   10  C18 UNL     1      23.496   3.041  52.676  1.00  0.00     0.041 A 
ENDROOT
BRANCH   1  11
HETATM   11  N1  UNL     1      23.792   5.422  52.366  1.00  0.00    -0.340 N 
HETATM   12  H12 UNL     1      24.169   5.869  53.223  1.00  0.00     0.167 HD
BRANCH  11  13
HETATM   13  C8  UNL     1      24.221   6.128  51.230  1.00  0.00     0.033 A 
HETATM   14  C7  UNL     1      23.938   7.452  50.990  1.00  0.00     0.030 A 
HETATM   15  C6  UNL     1      24.374   8.156  49.887  1.00  0.00     0.010 A 
HETATM   16  C5  UNL     1      25.137   7.547  48.940  1.00  0.00    -0.051 A 
HETATM   17  C20 UNL     1      25.463   6.230  49.104  1.00  0.00     0.010 A 
HETATM   18  C19 UNL     1      25.007   5.573  50.216  1.00  0.00     0.030 A 
BRANCH  16  19
HETATM   19  C2  UNL     1      25.651   8.218  47.724  1.00  0.00    -0.024 C 
HETATM   20  C1  UNL     1      24.639   7.899  46.617  1.00  0.00     0.019 C 
HETATM   21  C3  UNL     1      25.719   9.723  47.865  1.00  0.00     0.019 C 
HETATM   22  C4  UNL     1      27.036   7.725  47.356  1.00  0.00     0.019 C 
ENDBRANCH  16  19
ENDBRANCH  11  13
ENDBRANCH   1  11
BRANCH   8  23
HETATM   23  N4  UNL     1      26.657   1.308  53.646  1.00  0.00    -0.325 N 
HETATM   24  C15 UNL     1      27.998   1.668  53.378  1.00  0.00     0.250 C 
HETATM   25  O1  UNL     1      28.340   2.541  52.546  1.00  0.00    -0.271 OA
HETATM   26  H16 UNL     1      26.475   0.551  54.376  1.00  0.00     0.169 HD
BRANCH  24  27
HETATM   27  C16 UNL     1      29.072   0.975  54.128  1.00  0.00     0.325 C 
HETATM   28  F1  UNL     1      29.775   0.082  53.322  1.00  0.00    -0.246 F 
ENDBRANCH  24  27
ENDBRANCH   8  23
TORSDOF 5
ENDMDL
