MODEL 1
REMARK VINA RESULT:      -8.1      0.000      0.000
REMARK  4 active torsions:
REMARK  status: ('A' for Active; 'I' for Inactive)
REMARK    1  A    between atoms: C2_2  and  C3_3 
REMARK    2  A    between atoms: C7_7  and  N1_8 
REMARK    3  A    between atoms: N1_8  and  C8_9 
REMARK    4  A    between atoms: C19_24  and  N5_25 
ROOT
HETATM    1  C8  UNL     1      24.263   1.000  51.988  1.00  0.00     0.095 C 
HETATM    2  C9  UNL     1      24.212   2.094  51.229  1.00  0.00     0.042 C 
HETATM    3  C10 UNL     1      23.552   3.283  50.635  1.00  0.00     0.179 C 
HETATM    4  N2  UNL     1      23.559   3.294  49.205  1.00  0.00    -0.300 NA
HETATM    5  C11 UNL     1      22.590   2.739  48.591  1.00  0.00     0.105 C 
HETATM    6  C12 UNL     1      21.360   2.033  48.118  1.00  0.00     0.194 C 
HETATM    7  N3  UNL     1      20.491   1.701  49.195  1.00  0.00    -0.300 NA
HETATM    8  C13 UNL     1      19.259   1.959  49.347  1.00  0.00     0.093 C 
HETATM    9  C14 UNL     1      19.391   1.260  50.607  1.00  0.00     0.062 C 
HETATM   10  C15 UNL     1      18.697   0.901  51.661  1.00  0.00     0.004 C 
HETATM   11  C16 UNL     1      19.821   0.242  52.316  1.00  0.00     0.012 A 
HETATM   12 CL1  UNL     1      19.777  -0.558  53.873  1.00  0.00    -0.175 Cl
HETATM   13  C17 UNL     1      21.076  -0.155  52.395  1.00  0.00     0.132 A 
HETATM   14  C18 UNL     1      22.370  -0.719  52.773  1.00  0.00     0.146 C 
HETATM   15  N4  UNL     1      23.461   0.223  52.864  1.00  0.00    -0.375 N 
HETATM   16  H23 UNL     1      23.718   0.385  53.895  1.00  0.00     0.161 HD
ENDROOT
BRANCH   1  17
HETATM   17  N1  UNL     1      25.443   0.194  52.109  1.00  0.00    -0.366 N 
HETATM   18  H10 UNL     1      25.844   0.130  51.128  1.00  0.00     0.161 HD
BRANCH  17  19
HETATM   19  C7  UNL     1      26.047  -0.445  53.257  1.00  0.00     0.143 A 
HETATM   20  C6  UNL     1      26.746  -1.659  52.760  1.00  0.00     0.000 A 
HETATM   21  C5  UNL     1      28.027  -2.007  52.785  1.00  0.00    -0.002 A 
HETATM   22  C4  UNL     1      28.903  -1.023  53.408  1.00  0.00     0.005 A 
HETATM   23  C3  UNL     1      28.409   0.090  53.884  1.00  0.00    -0.046 A 
HETATM   24  C19 UNL     1      26.996   0.548  53.894  1.00  0.00     0.273 A 
BRANCH  23  25
HETATM   25  C2  UNL     1      29.330   1.082  54.518  1.00  0.00     0.032 C 
HETATM   26  C1  UNL     1      29.235   2.433  53.868  1.00  0.00     0.010 C 
ENDBRANCH  23  25
BRANCH  24  27
HETATM   27  N5  UNL     1      26.553   0.839  55.253  1.00  0.00     0.089 N 
HETATM   28  H25 UNL     1      27.396   0.679  55.853  1.00  0.00     0.313 HD
HETATM   29  H26 UNL     1      25.861   0.102  55.524  1.00  0.00     0.313 HD
ENDBRANCH  24  27
ENDBRANCH  17  19
ENDBRANCH   1  17
TORSDOF 4
ENDMDL
MODEL 2
REMARK VINA RESULT:      -8.1      3.134      5.475
REMARK  4 active torsions:
REMARK  status: ('A' for Active; 'I' for Inactive)
REMARK    1  A    between atoms: C2_2  and  C3_3 
REMARK    2  A    between atoms: C7_7  and  N1_8 
REMARK    3  A    between atoms: N1_8  and  C8_9 
REMARK    4  A    between atoms: C19_24  and  N5_25 
ROOT
HETATM    1  C8  UNL     1      23.149   3.087  51.724  1.00  0.00     0.095 C 
HETATM    2  C9  UNL     1      21.891   3.524  51.767  1.00  0.00     0.042 C 
HETATM    3  C10 UNL     1      20.511   3.584  52.309  1.00  0.00     0.179 C 
HETATM    4  N2  UNL     1      19.499   3.270  51.349  1.00  0.00    -0.300 NA
HETATM    5  C11 UNL     1      19.145   2.053  51.219  1.00  0.00     0.105 C 
HETATM    6  C12 UNL     1      18.913   0.576  51.259  1.00  0.00     0.194 C 
HETATM    7  N3  UNL     1      19.635  -0.046  52.315  1.00  0.00    -0.300 NA
HETATM    8  C13 UNL     1      19.218  -0.810  53.237  1.00  0.00     0.093 C 
HETATM    9  C14 UNL     1      20.597  -0.836  53.675  1.00  0.00     0.062 C 
HETATM   10  C15 UNL     1      21.371  -1.344  54.604  1.00  0.00     0.004 C 
HETATM   11  C16 UNL     1      22.585  -0.719  54.093  1.00  0.00     0.012 A 
HETATM   12 CL1  UNL     1      24.187  -0.873  54.782  1.00  0.00    -0.175 Cl
HETATM   13  C17 UNL     1      23.262   0.033  53.247  1.00  0.00     0.132 A 
HETATM   14  C18 UNL     1      24.269   0.784  52.500  1.00  0.00     0.146 C 
HETATM   15  N4  UNL     1      24.038   2.206  52.395  1.00  0.00    -0.375 N 
HETATM   16  H23 UNL     1      24.734   2.735  53.020  1.00  0.00     0.161 HD
ENDROOT
BRANCH   1  17
HETATM   17  N1  UNL     1      24.098   3.548  50.753  1.00  0.00    -0.366 N 
HETATM   18  H10 UNL     1      23.808   3.098  49.836  1.00  0.00     0.161 HD
BRANCH  17  19
HETATM   19  C7  UNL     1      25.239   4.428  50.878  1.00  0.00     0.143 A 
HETATM   20  C6  UNL     1      26.363   3.789  50.146  1.00  0.00     0.000 A 
HETATM   21  C5  UNL     1      27.068   4.190  49.094  1.00  0.00    -0.002 A 
HETATM   22  C4  UNL     1      26.666   5.486  48.562  1.00  0.00     0.005 A 
HETATM   23  C3  UNL     1      25.686   6.149  49.119  1.00  0.00    -0.046 A 
HETATM   24  C19 UNL     1      24.856   5.770  50.290  1.00  0.00     0.273 A 
BRANCH  23  25
HETATM   25  C2  UNL     1      25.294   7.477  48.553  1.00  0.00     0.032 C 
HETATM   26  C1  UNL     1      26.081   7.816  47.318  1.00  0.00     0.010 C 
ENDBRANCH  23  25
BRANCH  24  27
HETATM   27  N5  UNL     1      24.923   6.791  51.329  1.00  0.00     0.089 N 
HETATM   28  H25 UNL     1      25.936   6.845  51.591  1.00  0.00     0.313 HD
HETATM   29  H26 UNL     1      24.427   6.419  52.171  1.00  0.00     0.313 HD
ENDBRANCH  24  27
ENDBRANCH  17  19
ENDBRANCH   1  17
TORSDOF 4
ENDMDL
MODEL 3
REMARK VINA RESULT:      -7.9      3.963      6.293
REMARK  4 active torsions:
REMARK  status: ('A' for Active; 'I' for Inactive)
REMARK    1  A    between atoms: C2_2  and  C3_3 
REMARK    2  A    between atoms: C7_7  and  N1_8 
REMARK    3  A    between atoms: N1_8  and  C8_9 
REMARK    4  A    between atoms: C19_24  and  N5_25 
ROOT
HETATM    1  C8  UNL     1      23.807   3.220  49.771  1.00  0.00     0.095 C 
HETATM    2  C9  UNL     1      22.747   3.921  49.369  1.00  0.00     0.042 C 
HETATM    3  C10 UNL     1      22.057   4.977  48.588  1.00  0.00     0.179 C 
HETATM    4  N2  UNL     1      21.337   5.914  49.394  1.00  0.00    -0.300 NA
HETATM    5  C11 UNL     1      21.949   6.949  49.813  1.00  0.00     0.105 C 
HETATM    6  C12 UNL     1      22.881   8.063  50.172  1.00  0.00     0.194 C 
HETATM    7  N3  UNL     1      24.130   7.946  49.500  1.00  0.00    -0.300 NA
HETATM    8  C13 UNL     1      24.744   8.795  48.786  1.00  0.00     0.093 C 
HETATM    9  C14 UNL     1      25.749   7.765  48.638  1.00  0.00     0.062 C 
HETATM   10  C15 UNL     1      26.904   7.530  48.062  1.00  0.00     0.004 C 
HETATM   11  C16 UNL     1      27.013   6.171  48.578  1.00  0.00     0.012 A 
HETATM   12 CL1  UNL     1      28.332   5.061  48.274  1.00  0.00    -0.175 Cl
HETATM   13  C17 UNL     1      26.591   5.133  49.272  1.00  0.00     0.132 A 
HETATM   14  C18 UNL     1      26.403   3.843  49.935  1.00  0.00     0.146 C 
HETATM   15  N4  UNL     1      25.208   3.120  49.568  1.00  0.00    -0.375 N 
HETATM   16  H23 UNL     1      25.467   2.277  48.954  1.00  0.00     0.161 HD
ENDROOT
BRANCH   1  17
HETATM   17  N1  UNL     1      23.715   2.148  50.719  1.00  0.00    -0.366 N 
HETATM   18  H10 UNL     1      23.659   1.261  50.140  1.00  0.00     0.161 HD
BRANCH  17  19
HETATM   19  C7  UNL     1      23.690   2.154  52.165  1.00  0.00     0.143 A 
HETATM   20  C6  UNL     1      22.504   1.362  52.582  1.00  0.00     0.000 A 
HETATM   21  C5  UNL     1      22.399   0.245  53.294  1.00  0.00    -0.002 A 
HETATM   22  C4  UNL     1      23.674  -0.300  53.744  1.00  0.00     0.005 A 
HETATM   23  C3  UNL     1      24.792   0.306  53.440  1.00  0.00    -0.046 A 
HETATM   24  C19 UNL     1      24.989   1.550  52.653  1.00  0.00     0.273 A 
BRANCH  23  25
HETATM   25  C2  UNL     1      26.086  -0.275  53.915  1.00  0.00     0.032 C 
HETATM   26  C1  UNL     1      26.702  -1.186  52.890  1.00  0.00     0.010 C 
ENDBRANCH  23  25
BRANCH  24  27
HETATM   27  N5  UNL     1      25.725   2.544  53.427  1.00  0.00     0.089 N 
HETATM   28  H25 UNL     1      25.986   2.056  54.316  1.00  0.00     0.313 HD
HETATM   29  H26 UNL     1      25.051   3.296  53.698  1.00  0.00     0.313 HD
ENDBRANCH  24  27
ENDBRANCH  17  19
ENDBRANCH   1  17
TORSDOF 4
ENDMDL
MODEL 4
REMARK VINA RESULT:      -7.7      3.643      6.162
REMARK  4 active torsions:
REMARK  status: ('A' for Active; 'I' for Inactive)
REMARK    1  A    between atoms: C2_2  and  C3_3 
REMARK    2  A    between atoms: C7_7  and  N1_8 
REMARK    3  A    between atoms: N1_8  and  C8_9 
REMARK    4  A    between atoms: C19_24  and  N5_25 
ROOT
HETATM    1  C8  UNL     1      24.096   4.411  51.605  1.00  0.00     0.095 C 
HETATM    2  C9  UNL     1      22.803   4.700  51.745  1.00  0.00     0.042 C 
HETATM    3  C10 UNL     1      21.436   4.498  52.286  1.00  0.00     0.179 C 
HETATM    4  N2  UNL     1      20.438   4.313  51.278  1.00  0.00    -0.300 NA
HETATM    5  C11 UNL     1      20.200   3.130  50.872  1.00  0.00     0.105 C 
HETATM    6  C12 UNL     1      20.112   1.668  50.571  1.00  0.00     0.194 C 
HETATM    7  N3  UNL     1      20.913   0.895  51.457  1.00  0.00    -0.300 NA
HETATM    8  C13 UNL     1      20.592  -0.097  52.178  1.00  0.00     0.093 C 
HETATM    9  C14 UNL     1      21.976  -0.087  52.600  1.00  0.00     0.062 C 
HETATM   10  C15 UNL     1      22.816  -0.715  53.388  1.00  0.00     0.004 C 
HETATM   11  C16 UNL     1      23.952   0.128  53.036  1.00  0.00     0.012 A 
HETATM   12 CL1  UNL     1      25.577  -0.021  53.672  1.00  0.00    -0.175 Cl
HETATM   13  C17 UNL     1      24.535   1.116  52.386  1.00  0.00     0.132 A 
HETATM   14  C18 UNL     1      25.448   2.114  51.832  1.00  0.00     0.146 C 
HETATM   15  N4  UNL     1      25.080   3.492  52.056  1.00  0.00    -0.375 N 
HETATM   16  H23 UNL     1      25.735   3.930  52.786  1.00  0.00     0.161 HD
ENDROOT
BRANCH   1  17
HETATM   17  N1  UNL     1      24.975   5.172  50.766  1.00  0.00    -0.366 N 
HETATM   18  H10 UNL     1      25.406   5.908  51.399  1.00  0.00     0.161 HD
BRANCH  17  19
HETATM   19  C7  UNL     1      25.285   5.059  49.358  1.00  0.00     0.143 A 
HETATM   20  C6  UNL     1      24.264   5.850  48.623  1.00  0.00     0.000 A 
HETATM   21  C5  UNL     1      24.376   6.913  47.834  1.00  0.00    -0.002 A 
HETATM   22  C4  UNL     1      25.743   7.387  47.659  1.00  0.00     0.005 A 
HETATM   23  C3  UNL     1      26.732   6.775  48.256  1.00  0.00    -0.046 A 
HETATM   24  C19 UNL     1      26.687   5.588  49.148  1.00  0.00     0.273 A 
BRANCH  23  25
HETATM   25  C2  UNL     1      28.126   7.283  48.059  1.00  0.00     0.032 C 
HETATM   26  C1  UNL     1      28.289   7.975  46.734  1.00  0.00     0.010 C 
ENDBRANCH  23  25
BRANCH  24  27
HETATM   27  N5  UNL     1      27.538   4.520  48.635  1.00  0.00     0.089 N 
HETATM   28  H25 UNL     1      26.960   4.042  47.903  1.00  0.00     0.313 HD
HETATM   29  H26 UNL     1      27.665   3.822  49.403  1.00  0.00     0.313 HD
ENDBRANCH  24  27
ENDBRANCH  17  19
ENDBRANCH   1  17
TORSDOF 4
ENDMDL
MODEL 5
REMARK VINA RESULT:      -7.4      1.581      2.201
REMARK  4 active torsions:
REMARK  status: ('A' for Active; 'I' for Inactive)
REMARK    1  A    between atoms: C2_2  and  C3_3 
REMARK    2  A    between atoms: C7_7  and  N1_8 
REMARK    3  A    between atoms: N1_8  and  C8_9 
REMARK    4  A    between atoms: C19_24  and  N5_25 
ROOT
HETATM    1  C8  UNL     1      22.704   2.187  52.787  1.00  0.00     0.095 C 
HETATM    2  C9  UNL     1      22.647   3.410  52.261  1.00  0.00     0.042 C 
HETATM    3  C10 UNL     1      21.966   4.564  51.624  1.00  0.00     0.179 C 
HETATM    4  N2  UNL     1      22.529   4.946  50.367  1.00  0.00    -0.300 NA
HETATM    5  C11 UNL     1      22.078   4.395  49.310  1.00  0.00     0.105 C 
HETATM    6  C12 UNL     1      21.386   3.615  48.238  1.00  0.00     0.194 C 
HETATM    7  N3  UNL     1      20.297   2.857  48.753  1.00  0.00    -0.300 NA
HETATM    8  C13 UNL     1      19.086   2.828  48.380  1.00  0.00     0.093 C 
HETATM    9  C14 UNL     1      18.905   1.865  49.444  1.00  0.00     0.062 C 
HETATM   10  C15 UNL     1      17.987   1.121  50.012  1.00  0.00     0.004 C 
HETATM   11  C16 UNL     1      18.901   0.540  50.989  1.00  0.00     0.012 A 
HETATM   12 CL1  UNL     1      18.478  -0.629  52.222  1.00  0.00    -0.175 Cl
HETATM   13  C17 UNL     1      20.081   0.382  51.555  1.00  0.00     0.132 A 
HETATM   14  C18 UNL     1      21.226  -0.005  52.378  1.00  0.00     0.146 C 
HETATM   15  N4  UNL     1      21.879   1.071  53.086  1.00  0.00    -0.375 N 
HETATM   16  H23 UNL     1      21.654   1.006  54.135  1.00  0.00     0.161 HD
ENDROOT
BRANCH   1  17
HETATM   17  N1  UNL     1      23.918   1.617  53.295  1.00  0.00    -0.366 N 
HETATM   18  H10 UNL     1      23.943   1.873  54.324  1.00  0.00     0.161 HD
BRANCH  17  19
HETATM   19  C7  UNL     1      24.955   0.846  52.644  1.00  0.00     0.143 A 
HETATM   20  C6  UNL     1      25.650   1.762  51.702  1.00  0.00     0.000 A 
HETATM   21  C5  UNL     1      26.911   2.175  51.647  1.00  0.00    -0.002 A 
HETATM   22  C4  UNL     1      27.764   1.634  52.698  1.00  0.00     0.005 A 
HETATM   23  C3  UNL     1      27.269   0.817  53.591  1.00  0.00    -0.046 A 
HETATM   24  C19 UNL     1      25.878   0.312  53.717  1.00  0.00     0.273 A 
BRANCH  23  25
HETATM   25  C2  UNL     1      28.167   0.277  54.658  1.00  0.00     0.032 C 
HETATM   26  C1  UNL     1      29.370  -0.416  54.083  1.00  0.00     0.010 C 
ENDBRANCH  23  25
BRANCH  24  27
HETATM   27  N5  UNL     1      25.851  -1.147  53.699  1.00  0.00     0.089 N 
HETATM   28  H25 UNL     1      24.834  -1.398  53.684  1.00  0.00     0.313 HD
HETATM   29  H26 UNL     1      26.218  -1.481  54.619  1.00  0.00     0.313 HD
ENDBRANCH  24  27
ENDBRANCH  17  19
ENDBRANCH   1  17
TORSDOF 4
ENDMDL
MODEL 6
REMARK VINA RESULT:      -7.4      3.016      4.484
REMARK  4 active torsions:
REMARK  status: ('A' for Active; 'I' for Inactive)
REMARK    1  A    between atoms: C2_2  and  C3_3 
REMARK    2  A    between atoms: C7_7  and  N1_8 
REMARK    3  A    between atoms: N1_8  and  C8_9 
REMARK    4  A    between atoms: C19_24  and  N5_25 
ROOT
HETATM    1  C8  UNL     1      24.060   2.987  50.271  1.00  0.00     0.095 C 
HETATM    2  C9  UNL     1      23.243   2.397  49.400  1.00  0.00     0.042 C 
HETATM    3  C10 UNL     1      22.221   2.375  48.323  1.00  0.00     0.179 C 
HETATM    4  N2  UNL     1      21.035   1.656  48.667  1.00  0.00    -0.300 NA
HETATM    5  C11 UNL     1      20.086   2.290  49.234  1.00  0.00     0.105 C 
HETATM    6  C12 UNL     1      19.136   3.247  49.879  1.00  0.00     0.194 C 
HETATM    7  N3  UNL     1      19.615   4.586  49.825  1.00  0.00    -0.300 NA
HETATM    8  C13 UNL     1      19.044   5.630  49.389  1.00  0.00     0.093 C 
HETATM    9  C14 UNL     1      20.264   6.311  49.766  1.00  0.00     0.062 C 
HETATM   10  C15 UNL     1      20.821   7.498  49.766  1.00  0.00     0.004 C 
HETATM   11  C16 UNL     1      22.064   7.039  50.375  1.00  0.00     0.012 A 
HETATM   12 CL1  UNL     1      23.452   8.037  50.754  1.00  0.00    -0.175 Cl
HETATM   13  C17 UNL     1      22.860   6.123  50.891  1.00  0.00     0.132 A 
HETATM   14  C18 UNL     1      23.950   5.362  51.498  1.00  0.00     0.146 C 
HETATM   15  N4  UNL     1      24.472   4.275  50.704  1.00  0.00    -0.375 N 
HETATM   16  H23 UNL     1      25.444   4.535  50.325  1.00  0.00     0.161 HD
ENDROOT
BRANCH   1  17
HETATM   17  N1  UNL     1      24.910   2.250  51.160  1.00  0.00    -0.366 N 
HETATM   18  H10 UNL     1      25.640   1.792  50.540  1.00  0.00     0.161 HD
BRANCH  17  19
HETATM   19  C7  UNL     1      24.877   2.091  52.597  1.00  0.00     0.143 A 
HETATM   20  C6  UNL     1      23.820   1.091  52.898  1.00  0.00     0.000 A 
HETATM   21  C5  UNL     1      23.878  -0.102  53.481  1.00  0.00    -0.002 A 
HETATM   22  C4  UNL     1      25.217  -0.500  53.897  1.00  0.00     0.005 A 
HETATM   23  C3  UNL     1      26.234   0.294  53.686  1.00  0.00    -0.046 A 
HETATM   24  C19 UNL     1      26.248   1.634  53.045  1.00  0.00     0.273 A 
BRANCH  23  25
HETATM   25  C2  UNL     1      27.597  -0.139  54.123  1.00  0.00     0.032 C 
HETATM   26  C1  UNL     1      28.248  -1.045  53.115  1.00  0.00     0.010 C 
ENDBRANCH  23  25
BRANCH  24  27
HETATM   27  N5  UNL     1      26.824   2.633  53.939  1.00  0.00     0.089 N 
HETATM   28  H25 UNL     1      26.036   3.289  54.155  1.00  0.00     0.313 HD
HETATM   29  H26 UNL     1      27.519   3.187  53.388  1.00  0.00     0.313 HD
ENDBRANCH  24  27
ENDBRANCH  17  19
ENDBRANCH   1  17
TORSDOF 4
ENDMDL
MODEL 7
REMARK VINA RESULT:      -7.3      4.723      6.989
REMARK  4 active torsions:
REMARK  status: ('A' for Active; 'I' for Inactive)
REMARK    1  A    between atoms: C2_2  and  C3_3 
REMARK    2  A    between atoms: C7_7  and  N1_8 
REMARK    3  A    between atoms: N1_8  and  C8_9 
REMARK    4  A    between atoms: C19_24  and  N5_25 
ROOT
HETATM    1  C8  UNL     1      25.248   5.039  49.326  1.00  0.00     0.095 C 
HETATM    2  C9  UNL     1      24.022   5.215  48.834  1.00  0.00     0.042 C 
HETATM    3  C10 UNL     1      22.542   5.108  48.855  1.00  0.00     0.179 C 
HETATM    4  N2  UNL     1      21.998   4.407  47.734  1.00  0.00    -0.300 NA
HETATM    5  C11 UNL     1      21.857   3.144  47.820  1.00  0.00     0.105 C 
HETATM    6  C12 UNL     1      21.794   1.692  48.169  1.00  0.00     0.194 C 
HETATM    7  N3  UNL     1      22.142   1.458  49.529  1.00  0.00    -0.300 NA
HETATM    8  C13 UNL     1      21.503   0.833  50.429  1.00  0.00     0.093 C 
HETATM    9  C14 UNL     1      22.617   1.174  51.287  1.00  0.00     0.062 C 
HETATM   10  C15 UNL     1      23.046   1.033  52.519  1.00  0.00     0.004 C 
HETATM   11  C16 UNL     1      24.284   1.770  52.292  1.00  0.00     0.012 A 
HETATM   12 CL1  UNL     1      25.526   2.084  53.485  1.00  0.00    -0.175 Cl
HETATM   13  C17 UNL     1      25.135   2.450  51.550  1.00  0.00     0.132 A 
HETATM   14  C18 UNL     1      26.255   3.217  51.006  1.00  0.00     0.146 C 
HETATM   15  N4  UNL     1      25.920   4.511  50.459  1.00  0.00    -0.375 N 
HETATM   16  H23 UNL     1      26.272   5.286  51.116  1.00  0.00     0.161 HD
ENDROOT
BRANCH   1  17
HETATM   17  N1  UNL     1      26.429   5.469  48.637  1.00  0.00    -0.366 N 
HETATM   18  H10 UNL     1      26.506   4.842  47.784  1.00  0.00     0.161 HD
BRANCH  17  19
HETATM   19  C7  UNL     1      27.384   6.512  48.941  1.00  0.00     0.143 A 
HETATM   20  C6  UNL     1      28.335   6.577  47.802  1.00  0.00     0.000 A 
HETATM   21  C5  UNL     1      28.616   7.553  46.946  1.00  0.00    -0.002 A 
HETATM   22  C4  UNL     1      27.855   8.778  47.163  1.00  0.00     0.005 A 
HETATM   23  C3  UNL     1      26.984   8.846  48.135  1.00  0.00    -0.046 A 
HETATM   24  C19 UNL     1      26.617   7.804  49.128  1.00  0.00     0.273 A 
BRANCH  23  25
HETATM   25  C2  UNL     1      26.217  10.114  48.336  1.00  0.00     0.032 C 
HETATM   26  C1  UNL     1      27.119  11.316  48.376  1.00  0.00     0.010 C 
ENDBRANCH  23  25
BRANCH  24  27
HETATM   27  N5  UNL     1      26.809   8.290  50.489  1.00  0.00     0.089 N 
HETATM   28  H25 UNL     1      27.765   8.720  50.491  1.00  0.00     0.313 HD
HETATM   29  H26 UNL     1      26.867   7.456  51.118  1.00  0.00     0.313 HD
ENDBRANCH  24  27
ENDBRANCH  17  19
ENDBRANCH   1  17
TORSDOF 4
ENDMDL
MODEL 8
REMARK VINA RESULT:      -7.3      8.408     10.321
REMARK  4 active torsions:
REMARK  status: ('A' for Active; 'I' for Inactive)
REMARK    1  A    between atoms: C2_2  and  C3_3 
REMARK    2  A    between atoms: C7_7  and  N1_8 
REMARK    3  A    between atoms: N1_8  and  C8_9 
REMARK    4  A    between atoms: C19_24  and  N5_25 
ROOT
HETATM    1  C8  UNL     1      30.526   6.636  48.503  1.00  0.00     0.095 C 
HETATM    2  C9  UNL     1      30.935   7.881  48.742  1.00  0.00     0.042 C 
HETATM    3  C10 UNL     1      30.811   9.246  49.311  1.00  0.00     0.179 C 
HETATM    4  N2  UNL     1      30.885  10.288  48.335  1.00  0.00    -0.300 NA
HETATM    5  C11 UNL     1      29.806  10.675  47.780  1.00  0.00     0.105 C 
HETATM    6  C12 UNL     1      28.421  10.943  47.284  1.00  0.00     0.194 C 
HETATM    7  N3  UNL     1      27.445  10.211  48.017  1.00  0.00    -0.300 NA
HETATM    8  C13 UNL     1      26.402  10.625  48.608  1.00  0.00     0.093 C 
HETATM    9  C14 UNL     1      26.198   9.237  48.963  1.00  0.00     0.062 C 
HETATM   10  C15 UNL     1      25.373   8.453  49.617  1.00  0.00     0.004 C 
HETATM   11  C16 UNL     1      26.126   7.237  49.333  1.00  0.00     0.012 A 
HETATM   12 CL1  UNL     1      25.707   5.623  49.867  1.00  0.00    -0.175 Cl
HETATM   13  C17 UNL     1      27.125   6.562  48.799  1.00  0.00     0.132 A 
HETATM   14  C18 UNL     1      28.084   5.555  48.347  1.00  0.00     0.146 C 
HETATM   15  N4  UNL     1      29.448   5.753  48.776  1.00  0.00    -0.375 N 
HETATM   16  H23 UNL     1      29.702   5.030  49.530  1.00  0.00     0.161 HD
ENDROOT
BRANCH   1  17
HETATM   17  N1  UNL     1      31.297   5.699  47.738  1.00  0.00    -0.366 N 
HETATM   18  H10 UNL     1      30.616   5.265  47.050  1.00  0.00     0.161 HD
BRANCH  17  19
HETATM   19  C7  UNL     1      32.696   5.339  47.802  1.00  0.00     0.143 A 
HETATM   20  C6  UNL     1      32.758   3.894  48.141  1.00  0.00     0.000 A 
HETATM   21  C5  UNL     1      33.254   2.856  47.477  1.00  0.00    -0.002 A 
HETATM   22  C4  UNL     1      33.841   3.195  46.187  1.00  0.00     0.005 A 
HETATM   23  C3  UNL     1      33.848   4.436  45.774  1.00  0.00    -0.046 A 
HETATM   24  C19 UNL     1      33.316   5.644  46.456  1.00  0.00     0.273 A 
BRANCH  23  25
HETATM   25  C2  UNL     1      34.457   4.756  44.446  1.00  0.00     0.032 C 
HETATM   26  C1  UNL     1      33.428   4.795  43.351  1.00  0.00     0.010 C 
ENDBRANCH  23  25
BRANCH  24  27
HETATM   27  N5  UNL     1      34.358   6.651  46.618  1.00  0.00     0.089 N 
HETATM   28  H25 UNL     1      33.934   7.383  47.236  1.00  0.00     0.313 HD
HETATM   29  H26 UNL     1      34.504   7.107  45.688  1.00  0.00     0.313 HD
ENDBRANCH  24  27
ENDBRANCH  17  19
ENDBRANCH   1  17
TORSDOF 4
ENDMDL
MODEL 9
REMARK VINA RESULT:      -7.2      3.425      5.467
REMARK  4 active torsions:
REMARK  status: ('A' for Active; 'I' for Inactive)
REMARK    1  A    between atoms: C2_2  and  C3_3 
REMARK    2  A    between atoms: C7_7  and  N1_8 
REMARK    3  A    between atoms: N1_8  and  C8_9 
REMARK    4  A    between atoms: C19_24  and  N5_25 
ROOT
HETATM    1  C8  UNL     1      23.769   4.002  50.724  1.00  0.00     0.095 C 
HETATM    2  C9  UNL     1      24.150   5.230  51.075  1.00  0.00     0.042 C 
HETATM    3  C10 UNL     1      24.119   6.712  51.011  1.00  0.00     0.179 C 
HETATM    4  N2  UNL     1      25.382   7.303  50.694  1.00  0.00    -0.300 NA
HETATM    5  C11 UNL     1      25.673   7.488  49.467  1.00  0.00     0.105 C 
HETATM    6  C12 UNL     1      25.771   7.597  47.979  1.00  0.00     0.194 C 
HETATM    7  N3  UNL     1      24.553   7.233  47.339  1.00  0.00    -0.300 NA
HETATM    8  C13 UNL     1      23.863   7.877  46.493  1.00  0.00     0.093 C 
HETATM    9  C14 UNL     1      22.975   6.736  46.528  1.00  0.00     0.062 C 
HETATM   10  C15 UNL     1      21.854   6.289  46.013  1.00  0.00     0.004 C 
HETATM   11  C16 UNL     1      21.887   5.030  46.747  1.00  0.00     0.012 A 
HETATM   12 CL1  UNL     1      20.691   3.755  46.654  1.00  0.00    -0.175 Cl
HETATM   13  C17 UNL     1      22.416   4.168  47.593  1.00  0.00     0.132 A 
HETATM   14  C18 UNL     1      22.739   3.031  48.455  1.00  0.00     0.146 C 
HETATM   15  N4  UNL     1      22.864   3.329  49.862  1.00  0.00    -0.375 N 
HETATM   16  H23 UNL     1      22.017   2.936  50.394  1.00  0.00     0.161 HD
ENDROOT
BRANCH   1  17
HETATM   17  N1  UNL     1      24.331   2.819  51.307  1.00  0.00    -0.366 N 
HETATM   18  H10 UNL     1      24.719   2.258  50.493  1.00  0.00     0.161 HD
BRANCH  17  19
HETATM   19  C7  UNL     1      24.410   2.378  52.682  1.00  0.00     0.143 A 
HETATM   20  C6  UNL     1      23.259   1.468  52.913  1.00  0.00     0.000 A 
HETATM   21  C5  UNL     1      23.207   0.184  53.250  1.00  0.00    -0.002 A 
HETATM   22  C4  UNL     1      24.511  -0.443  53.422  1.00  0.00     0.005 A 
HETATM   23  C3  UNL     1      25.603   0.253  53.246  1.00  0.00    -0.046 A 
HETATM   24  C19 UNL     1      25.742   1.684  52.871  1.00  0.00     0.273 A 
BRANCH  23  25
HETATM   25  C2  UNL     1      26.929  -0.415  53.429  1.00  0.00     0.032 C 
HETATM   26  C1  UNL     1      27.002  -1.727  52.700  1.00  0.00     0.010 C 
ENDBRANCH  23  25
BRANCH  24  27
HETATM   27  N5  UNL     1      26.530   2.408  53.862  1.00  0.00     0.089 N 
HETATM   28  H25 UNL     1      27.520   2.111  53.691  1.00  0.00     0.313 HD
HETATM   29  H26 UNL     1      26.275   2.031  54.804  1.00  0.00     0.313 HD
ENDBRANCH  24  27
ENDBRANCH  17  19
ENDBRANCH   1  17
TORSDOF 4
ENDMDL
