MODEL 1
REMARK VINA RESULT:      -7.5      0.000      0.000
REMARK  5 active torsions:
REMARK  status: ('A' for Active; 'I' for Inactive)
REMARK    1  A    between atoms: O1_2  and  P1_3 
REMARK    2  A    between atoms: C6_9  and  C7_10 
REMARK    3  A    between atoms: C7_10  and  O2_11 
REMARK    4  A    between atoms: O2_11  and  C8_12 
REMARK    5  A    between atoms: C17_22  and  O3_23 
ROOT
HETATM    1  P1  UNL     1      26.306  -0.236  54.081  1.00  0.00     0.053 P 
HETATM    2  C2  UNL     1      25.128  -0.991  54.904  1.00  0.00     0.015 C 
HETATM    3  C3  UNL     1      23.928  -0.736  54.401  1.00  0.00    -0.015 A 
HETATM    4  C4  UNL     1      22.863  -1.184  55.289  1.00  0.00     0.125 A 
HETATM    5  N1  UNL     1      21.642  -1.023  54.913  1.00  0.00    -0.272 NA
HETATM    6  C5  UNL     1      21.341  -0.421  53.661  1.00  0.00     0.122 A 
HETATM    7  C6  UNL     1      22.284   0.000  52.831  1.00  0.00    -0.027 A 
HETATM    8  C15 UNL     1      23.747  -0.076  53.084  1.00  0.00     0.079 A 
HETATM    9  C16 UNL     1      24.318   1.311  53.253  1.00  0.00     0.026 C 
HETATM   10  C17 UNL     1      25.568   1.381  53.734  1.00  0.00     0.089 C 
HETATM   11  H4  UNL     1      26.461  -0.877  52.860  1.00  0.00     0.093 HD
ENDROOT
BRANCH   7  12
HETATM   12  C7  UNL     1      21.940   0.631  51.514  1.00  0.00     0.206 C 
BRANCH  12  13
HETATM   13  O2  UNL     1      21.370   1.870  51.628  1.00  0.00    -0.371 OA
BRANCH  13  14
HETATM   14  C8  UNL     1      21.898   2.849  50.797  1.00  0.00     0.092 A 
HETATM   15  C9  UNL     1      20.730   3.366  49.961  1.00  0.00     0.052 C 
HETATM   16  C10 UNL     1      22.315   3.988  51.669  1.00  0.00     0.012 A 
HETATM   17  C11 UNL     1      23.491   4.593  51.699  1.00  0.00    -0.001 A 
HETATM   18  C12 UNL     1      24.552   4.154  50.809  1.00  0.00    -0.003 A 
HETATM   19  C13 UNL     1      24.247   3.145  50.009  1.00  0.00    -0.008 A 
HETATM   20  C14 UNL     1      22.975   2.386  49.879  1.00  0.00     0.118 A 
HETATM   21 BR1  UNL     1      22.393   2.540  48.019  1.00  0.00    -0.084 Br
ENDBRANCH  13  14
ENDBRANCH  12  13
ENDBRANCH   7  12
BRANCH  10  22
HETATM   22  O3  UNL     1      26.268   2.550  53.961  1.00  0.00    -0.358 OA
HETATM   23  H19 UNL     1      26.506   2.919  54.863  1.00  0.00     0.217 HD
ENDBRANCH  10  22
BRANCH   1  24
HETATM   24  O1  UNL     1      27.702  -0.094  54.990  1.00  0.00    -0.366 OA
HETATM   25  C1  UNL     1      28.779  -0.129  54.084  1.00  0.00     0.207 C 
ENDBRANCH   1  24
TORSDOF 5
ENDMDL
MODEL 2
REMARK VINA RESULT:      -7.5      1.874      2.358
REMARK  5 active torsions:
REMARK  status: ('A' for Active; 'I' for Inactive)
REMARK    1  A    between atoms: O1_2  and  P1_3 
REMARK    2  A    between atoms: C6_9  and  C7_10 
REMARK    3  A    between atoms: C7_10  and  O2_11 
REMARK    4  A    between atoms: O2_11  and  C8_12 
REMARK    5  A    between atoms: C17_22  and  O3_23 
ROOT
HETATM    1  P1  UNL     1      27.046   0.008  53.537  1.00  0.00     0.053 P 
HETATM    2  C2  UNL     1      25.630  -0.667  53.954  1.00  0.00     0.015 C 
HETATM    3  C3  UNL     1      24.601  -0.052  53.389  1.00  0.00    -0.015 A 
HETATM    4  C4  UNL     1      23.333  -0.476  53.969  1.00  0.00     0.125 A 
HETATM    5  N1  UNL     1      22.244   0.023  53.495  1.00  0.00    -0.272 NA
HETATM    6  C5  UNL     1      22.280   0.965  52.432  1.00  0.00     0.122 A 
HETATM    7  C6  UNL     1      23.414   1.375  51.884  1.00  0.00    -0.027 A 
HETATM    8  C15 UNL     1      24.774   0.937  52.296  1.00  0.00     0.079 A 
HETATM    9  C16 UNL     1      25.524   2.090  52.918  1.00  0.00     0.026 C 
HETATM   10  C17 UNL     1      26.660   1.777  53.560  1.00  0.00     0.089 C 
HETATM   11  H4  UNL     1      27.313  -0.328  52.217  1.00  0.00     0.093 HD
ENDROOT
BRANCH   7  12
HETATM   12  C7  UNL     1      23.425   2.370  50.761  1.00  0.00     0.206 C 
BRANCH  12  13
HETATM   13  O2  UNL     1      23.020   3.624  51.131  1.00  0.00    -0.371 OA
BRANCH  13  14
HETATM   14  C8  UNL     1      23.421   4.653  50.292  1.00  0.00     0.092 A 
HETATM   15  C9  UNL     1      23.568   4.033  48.905  1.00  0.00     0.052 C 
HETATM   16  C10 UNL     1      22.279   5.611  50.194  1.00  0.00     0.012 A 
HETATM   17  C11 UNL     1      22.303   6.919  50.395  1.00  0.00    -0.001 A 
HETATM   18  C12 UNL     1      23.549   7.572  50.755  1.00  0.00    -0.003 A 
HETATM   19  C13 UNL     1      24.602   6.777  50.860  1.00  0.00    -0.008 A 
HETATM   20  C14 UNL     1      24.707   5.307  50.662  1.00  0.00     0.118 A 
HETATM   21 BR1  UNL     1      26.048   5.001  49.274  1.00  0.00    -0.084 Br
ENDBRANCH  13  14
ENDBRANCH  12  13
ENDBRANCH   7  12
BRANCH  10  22
HETATM   22  O3  UNL     1      27.489   2.682  54.193  1.00  0.00    -0.358 OA
HETATM   23  H19 UNL     1      27.699   2.689  55.174  1.00  0.00     0.217 HD
ENDBRANCH  10  22
BRANCH   1  24
HETATM   24  O1  UNL     1      28.258  -0.373  54.625  1.00  0.00    -0.366 OA
HETATM   25  C1  UNL     1      29.443  -0.511  53.877  1.00  0.00     0.207 C 
ENDBRANCH   1  24
TORSDOF 5
ENDMDL
MODEL 3
REMARK VINA RESULT:      -7.0      1.763      2.455
REMARK  5 active torsions:
REMARK  status: ('A' for Active; 'I' for Inactive)
REMARK    1  A    between atoms: O1_2  and  P1_3 
REMARK    2  A    between atoms: C6_9  and  C7_10 
REMARK    3  A    between atoms: C7_10  and  O2_11 
REMARK    4  A    between atoms: O2_11  and  C8_12 
REMARK    5  A    between atoms: C17_22  and  O3_23 
ROOT
HETATM    1  P1  UNL     1      27.240   0.243  53.232  1.00  0.00     0.053 P 
HETATM    2  C2  UNL     1      26.070  -0.690  53.863  1.00  0.00     0.015 C 
HETATM    3  C3  UNL     1      24.863  -0.189  53.644  1.00  0.00    -0.015 A 
HETATM    4  C4  UNL     1      23.844  -0.869  54.434  1.00  0.00     0.125 A 
HETATM    5  N1  UNL     1      22.617  -0.501  54.299  1.00  0.00    -0.272 NA
HETATM    6  C5  UNL     1      22.266   0.544  53.402  1.00  0.00     0.122 A 
HETATM    7  C6  UNL     1      23.166   1.185  52.672  1.00  0.00    -0.027 A 
HETATM    8  C15 UNL     1      24.630   0.927  52.693  1.00  0.00     0.079 A 
HETATM    9  C16 UNL     1      25.358   2.110  53.284  1.00  0.00     0.026 C 
HETATM   10  C17 UNL     1      26.648   1.915  53.596  1.00  0.00     0.089 C 
HETATM   11  H4  UNL     1      27.211   0.097  51.852  1.00  0.00     0.093 HD
ENDROOT
BRANCH   7  12
HETATM   12  C7  UNL     1      22.770   2.284  51.731  1.00  0.00     0.206 C 
BRANCH  12  13
HETATM   13  O2  UNL     1      23.118   2.047  50.429  1.00  0.00    -0.371 OA
BRANCH  13  14
HETATM   14  C8  UNL     1      23.384   3.177  49.667  1.00  0.00     0.092 A 
HETATM   15  C9  UNL     1      24.904   3.299  49.611  1.00  0.00     0.052 C 
HETATM   16  C10 UNL     1      22.945   2.877  48.270  1.00  0.00     0.012 A 
HETATM   17  C11 UNL     1      22.144   3.600  47.503  1.00  0.00    -0.001 A 
HETATM   18  C12 UNL     1      21.587   4.842  48.009  1.00  0.00    -0.003 A 
HETATM   19  C13 UNL     1      21.937   5.166  49.244  1.00  0.00    -0.008 A 
HETATM   20  C14 UNL     1      22.820   4.447  50.200  1.00  0.00     0.118 A 
HETATM   21 BR1  UNL     1      24.260   5.673  50.695  1.00  0.00    -0.084 Br
ENDBRANCH  13  14
ENDBRANCH  12  13
ENDBRANCH   7  12
BRANCH  10  22
HETATM   22  O3  UNL     1      27.486   2.867  54.144  1.00  0.00    -0.358 OA
HETATM   23  H19 UNL     1      27.600   3.804  53.804  1.00  0.00     0.217 HD
ENDBRANCH  10  22
BRANCH   1  24
HETATM   24  O1  UNL     1      28.722  -0.056  53.946  1.00  0.00    -0.366 OA
HETATM   25  C1  UNL     1      29.204  -1.256  53.389  1.00  0.00     0.207 C 
ENDBRANCH   1  24
TORSDOF 5
ENDMDL
MODEL 4
REMARK VINA RESULT:      -6.9      1.909      2.941
REMARK  5 active torsions:
REMARK  status: ('A' for Active; 'I' for Inactive)
REMARK    1  A    between atoms: O1_2  and  P1_3 
REMARK    2  A    between atoms: C6_9  and  C7_10 
REMARK    3  A    between atoms: C7_10  and  O2_11 
REMARK    4  A    between atoms: O2_11  and  C8_12 
REMARK    5  A    between atoms: C17_22  and  O3_23 
ROOT
HETATM    1  P1  UNL     1      25.929   0.591  52.514  1.00  0.00     0.053 P 
HETATM    2  C2  UNL     1      25.649  -0.460  53.719  1.00  0.00     0.015 C 
HETATM    3  C3  UNL     1      24.357  -0.569  53.993  1.00  0.00    -0.015 A 
HETATM    4  C4  UNL     1      24.127  -1.292  55.238  1.00  0.00     0.125 A 
HETATM    5  N1  UNL     1      22.912  -1.496  55.613  1.00  0.00    -0.272 NA
HETATM    6  C5  UNL     1      21.822  -1.026  54.832  1.00  0.00     0.122 A 
HETATM    7  C6  UNL     1      21.995  -0.363  53.699  1.00  0.00    -0.027 A 
HETATM    8  C15 UNL     1      23.310  -0.010  53.102  1.00  0.00     0.079 A 
HETATM    9  C16 UNL     1      23.513   1.486  53.141  1.00  0.00     0.026 C 
HETATM   10  C17 UNL     1      24.753   1.921  52.871  1.00  0.00     0.089 C 
HETATM   11  H4  UNL     1      25.523   0.003  51.324  1.00  0.00     0.093 HD
ENDROOT
BRANCH   7  12
HETATM   12  C7  UNL     1      20.827   0.121  52.892  1.00  0.00     0.206 C 
BRANCH  12  13
HETATM   13  O2  UNL     1      21.016   0.033  51.539  1.00  0.00    -0.371 OA
BRANCH  13  14
HETATM   14  C8  UNL     1      20.453   1.056  50.789  1.00  0.00     0.092 A 
HETATM   15  C9  UNL     1      21.199   1.063  49.457  1.00  0.00     0.052 C 
HETATM   16  C10 UNL     1      19.051   0.647  50.472  1.00  0.00     0.012 A 
HETATM   17  C11 UNL     1      17.943   1.343  50.670  1.00  0.00    -0.001 A 
HETATM   18  C12 UNL     1      18.018   2.668  51.260  1.00  0.00    -0.003 A 
HETATM   19  C13 UNL     1      19.234   3.090  51.567  1.00  0.00    -0.008 A 
HETATM   20  C14 UNL     1      20.547   2.412  51.396  1.00  0.00     0.118 A 
HETATM   21 BR1  UNL     1      21.663   3.575  50.291  1.00  0.00    -0.084 Br
ENDBRANCH  13  14
ENDBRANCH  12  13
ENDBRANCH   7  12
BRANCH  10  22
HETATM   22  O3  UNL     1      25.144   3.245  52.855  1.00  0.00    -0.358 OA
HETATM   23  H19 UNL     1      25.921   3.628  53.362  1.00  0.00     0.217 HD
ENDBRANCH  10  22
BRANCH   1  24
HETATM   24  O1  UNL     1      27.508   1.143  52.529  1.00  0.00    -0.366 OA
HETATM   25  C1  UNL     1      27.968   1.015  53.853  1.00  0.00     0.207 C 
ENDBRANCH   1  24
TORSDOF 5
ENDMDL
MODEL 5
REMARK VINA RESULT:      -6.9      2.818      4.189
REMARK  5 active torsions:
REMARK  status: ('A' for Active; 'I' for Inactive)
REMARK    1  A    between atoms: O1_2  and  P1_3 
REMARK    2  A    between atoms: C6_9  and  C7_10 
REMARK    3  A    between atoms: C7_10  and  O2_11 
REMARK    4  A    between atoms: O2_11  and  C8_12 
REMARK    5  A    between atoms: C17_22  and  O3_23 
ROOT
HETATM    1  P1  UNL     1      27.431   0.269  54.368  1.00  0.00     0.053 P 
HETATM    2  C2  UNL     1      27.284   1.532  53.359  1.00  0.00     0.015 C 
HETATM    3  C3  UNL     1      26.105   1.551  52.755  1.00  0.00    -0.015 A 
HETATM    4  C4  UNL     1      26.073   2.513  51.661  1.00  0.00     0.125 A 
HETATM    5  N1  UNL     1      24.976   2.656  51.001  1.00  0.00    -0.272 NA
HETATM    6  C5  UNL     1      23.825   1.893  51.333  1.00  0.00     0.122 A 
HETATM    7  C6  UNL     1      23.819   1.008  52.318  1.00  0.00    -0.027 A 
HETATM    8  C15 UNL     1      24.982   0.681  53.185  1.00  0.00     0.079 A 
HETATM    9  C16 UNL     1      25.448  -0.730  52.918  1.00  0.00     0.026 C 
HETATM   10  C17 UNL     1      26.637  -1.069  53.441  1.00  0.00     0.089 C 
HETATM   11  H4  UNL     1      26.640   0.510  55.482  1.00  0.00     0.093 HD
ENDROOT
BRANCH   7  12
HETATM   12  C7  UNL     1      22.589   0.215  52.650  1.00  0.00     0.206 C 
BRANCH  12  13
HETATM   13  O2  UNL     1      21.552   0.417  51.779  1.00  0.00    -0.371 OA
BRANCH  13  14
HETATM   14  C8  UNL     1      20.338   0.750  52.364  1.00  0.00     0.092 A 
HETATM   15  C9  UNL     1      20.458   0.360  53.835  1.00  0.00     0.052 C 
HETATM   16  C10 UNL     1      20.235   2.240  52.341  1.00  0.00     0.012 A 
HETATM   17  C11 UNL     1      19.235   2.973  51.878  1.00  0.00    -0.001 A 
HETATM   18  C12 UNL     1      18.067   2.324  51.310  1.00  0.00    -0.003 A 
HETATM   19  C13 UNL     1      18.095   1.001  51.299  1.00  0.00    -0.008 A 
HETATM   20  C14 UNL     1      19.148   0.069  51.784  1.00  0.00     0.118 A 
HETATM   21 BR1  UNL     1      18.322  -1.102  53.112  1.00  0.00    -0.084 Br
ENDBRANCH  13  14
ENDBRANCH  12  13
ENDBRANCH   7  12
BRANCH  10  22
HETATM   22  O3  UNL     1      27.238  -2.305  53.312  1.00  0.00    -0.358 OA
HETATM   23  H19 UNL     1      27.353  -2.975  54.050  1.00  0.00     0.217 HD
ENDBRANCH  10  22
BRANCH   1  24
HETATM   24  O1  UNL     1      29.034  -0.077  54.697  1.00  0.00    -0.366 OA
HETATM   25  C1  UNL     1      29.753   0.177  53.514  1.00  0.00     0.207 C 
ENDBRANCH   1  24
TORSDOF 5
ENDMDL
MODEL 6
REMARK VINA RESULT:      -6.8      1.718      2.021
REMARK  5 active torsions:
REMARK  status: ('A' for Active; 'I' for Inactive)
REMARK    1  A    between atoms: O1_2  and  P1_3 
REMARK    2  A    between atoms: C6_9  and  C7_10 
REMARK    3  A    between atoms: C7_10  and  O2_11 
REMARK    4  A    between atoms: O2_11  and  C8_12 
REMARK    5  A    between atoms: C17_22  and  O3_23 
ROOT
HETATM    1  P1  UNL     1      25.541   0.508  53.072  1.00  0.00     0.053 P 
HETATM    2  C2  UNL     1      24.837  -0.533  54.099  1.00  0.00     0.015 C 
HETATM    3  C3  UNL     1      23.520  -0.564  53.951  1.00  0.00    -0.015 A 
HETATM    4  C4  UNL     1      22.871  -1.282  55.040  1.00  0.00     0.125 A 
HETATM    5  N1  UNL     1      21.589  -1.413  55.011  1.00  0.00    -0.272 NA
HETATM    6  C5  UNL     1      20.829  -0.869  53.941  1.00  0.00     0.122 A 
HETATM    7  C6  UNL     1      21.386  -0.208  52.938  1.00  0.00    -0.027 A 
HETATM    8  C15 UNL     1      22.840   0.068  52.793  1.00  0.00     0.079 A 
HETATM    9  C16 UNL     1      23.105   1.547  52.935  1.00  0.00     0.026 C 
HETATM   10  C17 UNL     1      24.389   1.906  53.080  1.00  0.00     0.089 C 
HETATM   11  H4  UNL     1      25.496  -0.042  51.799  1.00  0.00     0.093 HD
ENDROOT
BRANCH   7  12
HETATM   12  C7  UNL     1      20.560   0.356  51.819  1.00  0.00     0.206 C 
BRANCH  12  13
HETATM   13  O2  UNL     1      19.622   1.264  52.230  1.00  0.00    -0.371 OA
BRANCH  13  14
HETATM   14  C8  UNL     1      19.548   2.428  51.478  1.00  0.00     0.092 A 
HETATM   15  C9  UNL     1      18.081   2.852  51.501  1.00  0.00     0.052 C 
HETATM   16  C10 UNL     1      20.293   3.483  52.228  1.00  0.00     0.012 A 
HETATM   17  C11 UNL     1      21.254   4.271  51.773  1.00  0.00    -0.001 A 
HETATM   18  C12 UNL     1      21.690   4.154  50.392  1.00  0.00    -0.003 A 
HETATM   19  C13 UNL     1      21.069   3.234  49.671  1.00  0.00    -0.008 A 
HETATM   20  C14 UNL     1      19.984   2.295  50.060  1.00  0.00     0.118 A 
HETATM   21 BR1  UNL     1      18.479   2.613  48.854  1.00  0.00    -0.084 Br
ENDBRANCH  13  14
ENDBRANCH  12  13
ENDBRANCH   7  12
BRANCH  10  22
HETATM   22  O3  UNL     1      24.840   3.204  53.223  1.00  0.00    -0.358 OA
HETATM   23  H19 UNL     1      24.868   3.893  52.495  1.00  0.00     0.217 HD
ENDBRANCH  10  22
BRANCH   1  24
HETATM   24  O1  UNL     1      27.063   0.961  53.595  1.00  0.00    -0.366 OA
HETATM   25  C1  UNL     1      27.339   0.194  54.744  1.00  0.00     0.207 C 
ENDBRANCH   1  24
TORSDOF 5
ENDMDL
MODEL 7
REMARK VINA RESULT:      -6.8      5.783      8.192
REMARK  5 active torsions:
REMARK  status: ('A' for Active; 'I' for Inactive)
REMARK    1  A    between atoms: O1_2  and  P1_3 
REMARK    2  A    between atoms: C6_9  and  C7_10 
REMARK    3  A    between atoms: C7_10  and  O2_11 
REMARK    4  A    between atoms: O2_11  and  C8_12 
REMARK    5  A    between atoms: C17_22  and  O3_23 
ROOT
HETATM    1  P1  UNL     1      28.038   9.627  48.513  1.00  0.00     0.053 P 
HETATM    2  C2  UNL     1      28.977   8.365  48.110  1.00  0.00     0.015 C 
HETATM    3  C3  UNL     1      28.372   7.206  48.328  1.00  0.00    -0.015 A 
HETATM    4  C4  UNL     1      29.299   6.086  48.228  1.00  0.00     0.125 A 
HETATM    5  N1  UNL     1      28.839   4.893  48.391  1.00  0.00    -0.272 NA
HETATM    6  C5  UNL     1      27.462   4.677  48.663  1.00  0.00     0.122 A 
HETATM    7  C6  UNL     1      26.593   5.672  48.764  1.00  0.00    -0.027 A 
HETATM    8  C15 UNL     1      26.921   7.115  48.629  1.00  0.00     0.079 A 
HETATM    9  C16 UNL     1      26.745   7.815  49.955  1.00  0.00     0.026 C 
HETATM   10  C17 UNL     1      27.247   9.056  50.039  1.00  0.00     0.089 C 
HETATM   11  H4  UNL     1      27.036   9.742  47.560  1.00  0.00     0.093 HD
ENDROOT
BRANCH   7  12
HETATM   12  C7  UNL     1      25.142   5.416  49.051  1.00  0.00     0.206 C 
BRANCH  12  13
HETATM   13  O2  UNL     1      24.847   4.098  49.268  1.00  0.00    -0.371 OA
BRANCH  13  14
HETATM   14  C8  UNL     1      23.764   3.858  50.103  1.00  0.00     0.092 A 
HETATM   15  C9  UNL     1      22.518   4.057  49.244  1.00  0.00     0.052 C 
HETATM   16  C10 UNL     1      23.794   2.405  50.453  1.00  0.00     0.012 A 
HETATM   17  C11 UNL     1      23.747   1.866  51.661  1.00  0.00    -0.001 A 
HETATM   18  C12 UNL     1      23.656   2.721  52.831  1.00  0.00    -0.003 A 
HETATM   19  C13 UNL     1      23.628   4.022  52.589  1.00  0.00    -0.008 A 
HETATM   20  C14 UNL     1      23.673   4.748  51.292  1.00  0.00     0.118 A 
HETATM   21 BR1  UNL     1      22.065   5.855  51.189  1.00  0.00    -0.084 Br
ENDBRANCH  13  14
ENDBRANCH  12  13
ENDBRANCH   7  12
BRANCH  10  22
HETATM   22  O3  UNL     1      27.190   9.862  51.160  1.00  0.00    -0.358 OA
HETATM   23  H19 UNL     1      27.963  10.073  51.763  1.00  0.00     0.217 HD
ENDBRANCH  10  22
BRANCH   1  24
HETATM   24  O1  UNL     1      28.939  11.013  48.766  1.00  0.00    -0.366 OA
HETATM   25  C1  UNL     1      30.281  10.605  48.889  1.00  0.00     0.207 C 
ENDBRANCH   1  24
TORSDOF 5
ENDMDL
MODEL 8
REMARK VINA RESULT:      -6.7      5.497      7.938
REMARK  5 active torsions:
REMARK  status: ('A' for Active; 'I' for Inactive)
REMARK    1  A    between atoms: O1_2  and  P1_3 
REMARK    2  A    between atoms: C6_9  and  C7_10 
REMARK    3  A    between atoms: C7_10  and  O2_11 
REMARK    4  A    between atoms: O2_11  and  C8_12 
REMARK    5  A    between atoms: C17_22  and  O3_23 
ROOT
HETATM    1  P1  UNL     1      27.701   9.307  48.399  1.00  0.00     0.053 P 
HETATM    2  C2  UNL     1      28.522   7.959  48.017  1.00  0.00     0.015 C 
HETATM    3  C3  UNL     1      27.874   6.862  48.381  1.00  0.00    -0.015 A 
HETATM    4  C4  UNL     1      28.720   5.679  48.289  1.00  0.00     0.125 A 
HETATM    5  N1  UNL     1      28.210   4.535  48.589  1.00  0.00    -0.272 NA
HETATM    6  C5  UNL     1      26.854   4.430  49.000  1.00  0.00     0.122 A 
HETATM    7  C6  UNL     1      26.058   5.485  49.098  1.00  0.00    -0.027 A 
HETATM    8  C15 UNL     1      26.456   6.889  48.817  1.00  0.00     0.079 A 
HETATM    9  C16 UNL     1      26.448   7.696  50.093  1.00  0.00     0.026 C 
HETATM   10  C17 UNL     1      27.026   8.906  50.031  1.00  0.00     0.089 C 
HETATM   11  H4  UNL     1      26.622   9.416  47.534  1.00  0.00     0.093 HD
ENDROOT
BRANCH   7  12
HETATM   12  C7  UNL     1      24.629   5.347  49.534  1.00  0.00     0.206 C 
BRANCH  12  13
HETATM   13  O2  UNL     1      24.284   4.074  49.899  1.00  0.00    -0.371 OA
BRANCH  13  14
HETATM   14  C8  UNL     1      22.944   3.750  49.740  1.00  0.00     0.092 A 
HETATM   15  C9  UNL     1      22.171   5.057  49.907  1.00  0.00     0.052 C 
HETATM   16  C10 UNL     1      22.757   3.342  48.315  1.00  0.00     0.012 A 
HETATM   17  C11 UNL     1      22.192   2.235  47.860  1.00  0.00    -0.001 A 
HETATM   18  C12 UNL     1      21.669   1.254  48.795  1.00  0.00    -0.003 A 
HETATM   19  C13 UNL     1      21.805   1.555  50.077  1.00  0.00    -0.008 A 
HETATM   20  C14 UNL     1      22.414   2.754  50.712  1.00  0.00     0.118 A 
HETATM   21 BR1  UNL     1      21.045   3.572  51.843  1.00  0.00    -0.084 Br
ENDBRANCH  13  14
ENDBRANCH  12  13
ENDBRANCH   7  12
BRANCH  10  22
HETATM   22  O3  UNL     1      27.123   9.795  51.083  1.00  0.00    -0.358 OA
HETATM   23  H19 UNL     1      26.744  10.724  51.095  1.00  0.00     0.217 HD
ENDBRANCH  10  22
BRANCH   1  24
HETATM   24  O1  UNL     1      28.701  10.645  48.457  1.00  0.00    -0.366 OA
HETATM   25  C1  UNL     1      29.976  10.181  48.834  1.00  0.00     0.207 C 
ENDBRANCH   1  24
TORSDOF 5
ENDMDL
MODEL 9
REMARK VINA RESULT:      -6.7      3.694      6.332
REMARK  5 active torsions:
REMARK  status: ('A' for Active; 'I' for Inactive)
REMARK    1  A    between atoms: O1_2  and  P1_3 
REMARK    2  A    between atoms: C6_9  and  C7_10 
REMARK    3  A    between atoms: C7_10  and  O2_11 
REMARK    4  A    between atoms: O2_11  and  C8_12 
REMARK    5  A    between atoms: C17_22  and  O3_23 
ROOT
HETATM    1  P1  UNL     1      23.993   6.296  49.176  1.00  0.00     0.053 P 
HETATM    2  C2  UNL     1      25.262   5.311  48.937  1.00  0.00     0.015 C 
HETATM    3  C3  UNL     1      25.340   4.368  49.865  1.00  0.00    -0.015 A 
HETATM    4  C4  UNL     1      26.613   3.661  49.811  1.00  0.00     0.125 A 
HETATM    5  N1  UNL     1      26.816   2.697  50.642  1.00  0.00    -0.272 NA
HETATM    6  C5  UNL     1      25.820   2.334  51.588  1.00  0.00     0.122 A 
HETATM    7  C6  UNL     1      24.654   2.957  51.667  1.00  0.00    -0.027 A 
HETATM    8  C15 UNL     1      24.232   4.101  50.816  1.00  0.00     0.079 A 
HETATM    9  C16 UNL     1      24.116   5.353  51.651  1.00  0.00     0.026 C 
HETATM   10  C17 UNL     1      23.992   6.505  50.975  1.00  0.00     0.089 C 
HETATM   11  H4  UNL     1      22.838   5.600  48.851  1.00  0.00     0.093 HD
ENDROOT
BRANCH   7  12
HETATM   12  C7  UNL     1      23.619   2.552  52.675  1.00  0.00     0.206 C 
BRANCH  12  13
HETATM   13  O2  UNL     1      22.375   2.352  52.139  1.00  0.00    -0.371 OA
BRANCH  13  14
HETATM   14  C8  UNL     1      21.844   1.083  52.321  1.00  0.00     0.092 A 
HETATM   15  C9  UNL     1      21.582   0.531  50.922  1.00  0.00     0.052 C 
HETATM   16  C10 UNL     1      22.926   0.233  52.902  1.00  0.00     0.012 A 
HETATM   17  C11 UNL     1      22.864  -0.522  53.987  1.00  0.00    -0.001 A 
HETATM   18  C12 UNL     1      21.634  -0.581  54.757  1.00  0.00    -0.003 A 
HETATM   19  C13 UNL     1      20.634   0.152  54.295  1.00  0.00    -0.008 A 
HETATM   20  C14 UNL     1      20.575   1.034  53.099  1.00  0.00     0.118 A 
HETATM   21 BR1  UNL     1      19.113   0.390  51.972  1.00  0.00    -0.084 Br
ENDBRANCH  13  14
ENDBRANCH  12  13
ENDBRANCH   7  12
BRANCH  10  22
HETATM   22  O3  UNL     1      23.872   7.755  51.549  1.00  0.00    -0.358 OA
HETATM   23  H19 UNL     1      24.454   8.547  51.345  1.00  0.00     0.217 HD
ENDBRANCH  10  22
BRANCH   1  24
HETATM   24  O1  UNL     1      24.187   7.757  48.385  1.00  0.00    -0.366 OA
HETATM   25  C1  UNL     1      25.572   8.010  48.339  1.00  0.00     0.207 C 
ENDBRANCH   1  24
TORSDOF 5
ENDMDL
