MODEL 1
REMARK VINA RESULT:      -7.7      0.000      0.000
REMARK  0 active torsions:
REMARK  status: ('A' for Active; 'I' for Inactive)
ROOT
HETATM    1  C1  UNL     1      27.095  -0.555  52.681  1.00  0.00    -0.019 C 
HETATM    2  C2  UNL     1      28.235  -0.259  53.230  1.00  0.00     0.012 C 
HETATM    3  C3  UNL     1      28.610   1.119  53.561  1.00  0.00    -0.001 C 
HETATM    4  C4  UNL     1      27.962   2.149  53.003  1.00  0.00     0.003 C 
HETATM    5  C5  UNL     1      26.902   1.659  52.082  1.00  0.00     0.138 C 
HETATM    6  N1  UNL     1      26.069   2.774  51.762  1.00  0.00    -0.363 N 
HETATM    7  C6  UNL     1      24.735   3.246  51.462  1.00  0.00     0.133 C 
HETATM    8  N2  UNL     1      24.071   3.625  52.552  1.00  0.00    -0.225 NA
HETATM    9  C7  UNL     1      22.966   2.897  53.177  1.00  0.00     0.233 C 
HETATM   10  N3  UNL     1      22.446   1.689  53.046  1.00  0.00    -0.241 NA
HETATM   11  C8  UNL     1      22.642   0.736  51.932  1.00  0.00     0.314 C 
HETATM   12  O1  UNL     1      24.015   0.670  51.744  1.00  0.00    -0.351 OA
HETATM   13  C9  UNL     1      24.779   0.447  52.843  1.00  0.00     0.209 C 
HETATM   14  C10 UNL     1      26.241   0.450  52.558  1.00  0.00    -0.019 C 
HETATM   15  S1  UNL     1      21.875   1.415  50.418  1.00  0.00    -0.079 SA
HETATM   16  C11 UNL     1      23.039   2.583  49.650  1.00  0.00    -0.008 C 
HETATM   17  C12 UNL     1      24.078   3.318  50.120  1.00  0.00     0.001 C 
HETATM   18  C13 UNL     1      24.661   4.319  49.238  1.00  0.00     0.043 C 
HETATM   19  C14 UNL     1      23.542   5.036  48.492  1.00  0.00     0.005 C 
HETATM   20  C15 UNL     1      22.723   4.081  47.671  1.00  0.00     0.005 C 
HETATM   21  C16 UNL     1      22.698   2.686  48.211  1.00  0.00     0.046 C 
HETATM   22  H5  UNL     1      26.514   3.714  51.680  1.00  0.00     0.162 HD
ENDROOT
TORSDOF 0
ENDMDL
MODEL 2
REMARK VINA RESULT:      -7.6      7.566      9.652
REMARK  0 active torsions:
REMARK  status: ('A' for Active; 'I' for Inactive)
ROOT
HETATM    1  C1  UNL     1      27.105   7.656  47.710  1.00  0.00    -0.019 C 
HETATM    2  C2  UNL     1      26.093   6.988  48.175  1.00  0.00     0.012 C 
HETATM    3  C3  UNL     1      26.255   5.725  48.899  1.00  0.00    -0.001 C 
HETATM    4  C4  UNL     1      27.400   5.035  48.809  1.00  0.00     0.003 C 
HETATM    5  C5  UNL     1      28.363   5.740  47.921  1.00  0.00     0.138 C 
HETATM    6  N1  UNL     1      29.638   5.125  48.104  1.00  0.00    -0.363 N 
HETATM    7  C6  UNL     1      31.073   5.298  48.156  1.00  0.00     0.133 C 
HETATM    8  N2  UNL     1      31.512   5.558  49.385  1.00  0.00    -0.225 NA
HETATM    9  C7  UNL     1      31.996   6.853  49.866  1.00  0.00     0.233 C 
HETATM   10  N3  UNL     1      31.977   8.091  49.404  1.00  0.00    -0.241 NA
HETATM   11  C8  UNL     1      31.708   8.536  48.019  1.00  0.00     0.314 C 
HETATM   12  O1  UNL     1      30.542   7.885  47.644  1.00  0.00    -0.351 OA
HETATM   13  C9  UNL     1      29.489   7.967  48.497  1.00  0.00     0.209 C 
HETATM   14  C10 UNL     1      28.300   7.192  48.044  1.00  0.00    -0.019 C 
HETATM   15  S1  UNL     1      33.068   7.972  46.934  1.00  0.00    -0.079 SA
HETATM   16  C11 UNL     1      32.756   6.244  46.461  1.00  0.00    -0.008 C 
HETATM   17  C12 UNL     1      32.036   5.235  47.013  1.00  0.00     0.001 C 
HETATM   18  C13 UNL     1      32.189   3.900  46.451  1.00  0.00     0.043 C 
HETATM   19  C14 UNL     1      33.661   3.657  46.141  1.00  0.00     0.005 C 
HETATM   20  C15 UNL     1      34.193   4.662  45.159  1.00  0.00     0.005 C 
HETATM   21  C16 UNL     1      33.484   5.979  45.196  1.00  0.00     0.046 C 
HETATM   22  H5  UNL     1      29.668   4.098  48.287  1.00  0.00     0.162 HD
ENDROOT
TORSDOF 0
ENDMDL
MODEL 3
REMARK VINA RESULT:      -7.3      2.102      5.863
REMARK  0 active torsions:
REMARK  status: ('A' for Active; 'I' for Inactive)
ROOT
HETATM    1  C1  UNL     1      20.501   1.012  49.581  1.00  0.00    -0.019 C 
HETATM    2  C2  UNL     1      19.309   0.791  50.048  1.00  0.00     0.012 C 
HETATM    3  C3  UNL     1      18.994   0.904  51.475  1.00  0.00    -0.001 C 
HETATM    4  C4  UNL     1      19.974   0.893  52.387  1.00  0.00     0.003 C 
HETATM    5  C5  UNL     1      21.299   0.757  51.726  1.00  0.00     0.138 C 
HETATM    6  N1  UNL     1      22.295   1.050  52.705  1.00  0.00    -0.363 N 
HETATM    7  C6  UNL     1      23.593   1.624  52.983  1.00  0.00     0.133 C 
HETATM    8  N2  UNL     1      23.521   2.913  53.309  1.00  0.00    -0.225 NA
HETATM    9  C7  UNL     1      23.933   4.034  52.463  1.00  0.00     0.233 C 
HETATM   10  N3  UNL     1      24.266   4.177  51.192  1.00  0.00    -0.241 NA
HETATM   11  C8  UNL     1      24.648   3.118  50.233  1.00  0.00     0.314 C 
HETATM   12  O1  UNL     1      23.662   2.148  50.345  1.00  0.00    -0.351 OA
HETATM   13  C9  UNL     1      22.374   2.568  50.268  1.00  0.00     0.209 C 
HETATM   14  C10 UNL     1      21.383   1.471  50.457  1.00  0.00    -0.019 C 
HETATM   15  S1  UNL     1      26.245   2.390  50.746  1.00  0.00    -0.079 SA
HETATM   16  C11 UNL     1      25.930   1.142  52.031  1.00  0.00    -0.008 C 
HETATM   17  C12 UNL     1      24.922   0.940  52.916  1.00  0.00     0.001 C 
HETATM   18  C13 UNL     1      25.114  -0.065  53.952  1.00  0.00     0.043 C 
HETATM   19  C14 UNL     1      26.538   0.037  54.484  1.00  0.00     0.005 C 
HETATM   20  C15 UNL     1      27.552  -0.185  53.398  1.00  0.00     0.005 C 
HETATM   21  C16 UNL     1      27.069   0.193  52.033  1.00  0.00     0.046 C 
HETATM   22  H5  UNL     1      22.113   0.767  53.693  1.00  0.00     0.162 HD
ENDROOT
TORSDOF 0
ENDMDL
MODEL 4
REMARK VINA RESULT:      -7.2      2.441      6.152
REMARK  0 active torsions:
REMARK  status: ('A' for Active; 'I' for Inactive)
ROOT
HETATM    1  C1  UNL     1      22.350   2.645  47.402  1.00  0.00    -0.019 C 
HETATM    2  C2  UNL     1      21.410   3.279  46.767  1.00  0.00     0.012 C 
HETATM    3  C3  UNL     1      20.349   4.009  47.466  1.00  0.00    -0.001 C 
HETATM    4  C4  UNL     1      20.101   3.768  48.760  1.00  0.00     0.003 C 
HETATM    5  C5  UNL     1      21.023   2.723  49.280  1.00  0.00     0.138 C 
HETATM    6  N1  UNL     1      20.913   2.731  50.704  1.00  0.00    -0.363 N 
HETATM    7  C6  UNL     1      21.583   2.559  51.974  1.00  0.00     0.133 C 
HETATM    8  N2  UNL     1      22.082   3.699  52.446  1.00  0.00    -0.225 NA
HETATM    9  C7  UNL     1      23.500   4.060  52.490  1.00  0.00     0.233 C 
HETATM   10  N3  UNL     1      24.609   3.568  51.966  1.00  0.00    -0.241 NA
HETATM   11  C8  UNL     1      24.814   2.227  51.378  1.00  0.00     0.314 C 
HETATM   12  O1  UNL     1      23.766   2.053  50.486  1.00  0.00    -0.351 OA
HETATM   13  C9  UNL     1      23.543   3.052  49.594  1.00  0.00     0.209 C 
HETATM   14  C10 UNL     1      22.365   2.808  48.716  1.00  0.00    -0.019 C 
HETATM   15  S1  UNL     1      24.676   0.966  52.695  1.00  0.00    -0.079 SA
HETATM   16  C11 UNL     1      22.915   0.600  52.968  1.00  0.00    -0.008 C 
HETATM   17  C12 UNL     1      21.768   1.286  52.738  1.00  0.00     0.001 C 
HETATM   18  C13 UNL     1      20.530   0.750  53.286  1.00  0.00     0.043 C 
HETATM   19  C14 UNL     1      20.795   0.229  54.693  1.00  0.00     0.005 C 
HETATM   20  C15 UNL     1      21.837  -0.854  54.695  1.00  0.00     0.005 C 
HETATM   21  C16 UNL     1      22.819  -0.751  53.571  1.00  0.00     0.046 C 
HETATM   22  H5  UNL     1      19.981   2.939  51.125  1.00  0.00     0.162 HD
ENDROOT
TORSDOF 0
ENDMDL
MODEL 5
REMARK VINA RESULT:      -7.2      2.986      5.352
REMARK  0 active torsions:
REMARK  status: ('A' for Active; 'I' for Inactive)
ROOT
HETATM    1  C1  UNL     1      23.774   6.274  50.934  1.00  0.00    -0.019 C 
HETATM    2  C2  UNL     1      24.938   6.539  50.420  1.00  0.00     0.012 C 
HETATM    3  C3  UNL     1      25.760   5.512  49.774  1.00  0.00    -0.001 C 
HETATM    4  C4  UNL     1      25.516   4.214  49.993  1.00  0.00     0.003 C 
HETATM    5  C5  UNL     1      24.367   4.049  50.922  1.00  0.00     0.138 C 
HETATM    6  N1  UNL     1      23.975   2.677  50.875  1.00  0.00    -0.363 N 
HETATM    7  C6  UNL     1      22.891   1.721  50.935  1.00  0.00     0.133 C 
HETATM    8  N2  UNL     1      22.383   1.451  49.735  1.00  0.00    -0.225 NA
HETATM    9  C7  UNL     1      21.084   1.905  49.234  1.00  0.00     0.233 C 
HETATM   10  N3  UNL     1      20.181   2.784  49.631  1.00  0.00    -0.241 NA
HETATM   11  C8  UNL     1      20.053   3.409  50.965  1.00  0.00     0.314 C 
HETATM   12  O1  UNL     1      21.322   3.879  51.273  1.00  0.00    -0.351 OA
HETATM   13  C9  UNL     1      21.944   4.635  50.333  1.00  0.00     0.209 C 
HETATM   14  C10 UNL     1      23.321   5.047  50.724  1.00  0.00    -0.019 C 
HETATM   15  S1  UNL     1      19.591   2.129  52.186  1.00  0.00    -0.079 SA
HETATM   16  C11 UNL     1      21.099   1.259  52.716  1.00  0.00    -0.008 C 
HETATM   17  C12 UNL     1      22.320   1.072  52.156  1.00  0.00     0.001 C 
HETATM   18  C13 UNL     1      23.226   0.127  52.793  1.00  0.00     0.043 C 
HETATM   19  C14 UNL     1      22.435  -1.098  53.235  1.00  0.00     0.005 C 
HETATM   20  C15 UNL     1      21.350  -0.734  54.208  1.00  0.00     0.005 C 
HETATM   21  C16 UNL     1      20.836   0.662  54.048  1.00  0.00     0.046 C 
HETATM   22  H5  UNL     1      24.719   1.957  50.746  1.00  0.00     0.162 HD
ENDROOT
TORSDOF 0
ENDMDL
MODEL 6
REMARK VINA RESULT:      -7.0      2.473      5.550
REMARK  0 active torsions:
REMARK  status: ('A' for Active; 'I' for Inactive)
ROOT
HETATM    1  C1  UNL     1      24.058   7.810  50.770  1.00  0.00    -0.019 C 
HETATM    2  C2  UNL     1      24.740   8.571  49.968  1.00  0.00     0.012 C 
HETATM    3  C3  UNL     1      25.561   8.027  48.883  1.00  0.00    -0.001 C 
HETATM    4  C4  UNL     1      25.920   6.737  48.887  1.00  0.00     0.003 C 
HETATM    5  C5  UNL     1      25.373   6.049  50.087  1.00  0.00     0.138 C 
HETATM    6  N1  UNL     1      25.531   4.645  49.882  1.00  0.00    -0.363 N 
HETATM    7  C6  UNL     1      24.993   3.319  50.093  1.00  0.00     0.133 C 
HETATM    8  N2  UNL     1      24.195   2.929  49.101  1.00  0.00    -0.225 NA
HETATM    9  C7  UNL     1      22.737   2.820  49.168  1.00  0.00     0.233 C 
HETATM   10  N3  UNL     1      21.806   3.211  50.021  1.00  0.00    -0.241 NA
HETATM   11  C8  UNL     1      21.988   3.645  51.423  1.00  0.00     0.314 C 
HETATM   12  O1  UNL     1      23.005   4.589  51.385  1.00  0.00    -0.351 OA
HETATM   13  C9  UNL     1      22.884   5.589  50.476  1.00  0.00     0.209 C 
HETATM   14  C10 UNL     1      24.046   6.521  50.465  1.00  0.00    -0.019 C 
HETATM   15  S1  UNL     1      22.548   2.222  52.425  1.00  0.00    -0.079 SA
HETATM   16  C11 UNL     1      24.347   2.041  52.225  1.00  0.00    -0.008 C 
HETATM   17  C12 UNL     1      25.227   2.421  51.265  1.00  0.00     0.001 C 
HETATM   18  C13 UNL     1      26.589   1.912  51.348  1.00  0.00     0.043 C 
HETATM   19  C14 UNL     1      26.547   0.444  51.756  1.00  0.00     0.005 C 
HETATM   20  C15 UNL     1      25.877   0.259  53.088  1.00  0.00     0.005 C 
HETATM   21  C16 UNL     1      24.866   1.314  53.409  1.00  0.00     0.046 C 
HETATM   22  H5  UNL     1      26.374   4.315  49.363  1.00  0.00     0.162 HD
ENDROOT
TORSDOF 0
ENDMDL
MODEL 7
REMARK VINA RESULT:      -6.7      2.607      5.976
REMARK  0 active torsions:
REMARK  status: ('A' for Active; 'I' for Inactive)
ROOT
HETATM    1  C1  UNL     1      20.044   2.556  49.154  1.00  0.00    -0.019 C 
HETATM    2  C2  UNL     1      18.880   2.426  49.715  1.00  0.00     0.012 C 
HETATM    3  C3  UNL     1      18.657   2.728  51.132  1.00  0.00    -0.001 C 
HETATM    4  C4  UNL     1      19.691   2.808  51.978  1.00  0.00     0.003 C 
HETATM    5  C5  UNL     1      20.970   2.557  51.262  1.00  0.00     0.138 C 
HETATM    6  N1  UNL     1      22.030   2.948  52.134  1.00  0.00    -0.363 N 
HETATM    7  C6  UNL     1      23.353   3.521  52.257  1.00  0.00     0.133 C 
HETATM    8  N2  UNL     1      23.323   4.842  52.419  1.00  0.00    -0.225 NA
HETATM    9  C7  UNL     1      23.699   5.836  51.412  1.00  0.00     0.233 C 
HETATM   10  N3  UNL     1      23.955   5.807  50.116  1.00  0.00    -0.241 NA
HETATM   11  C8  UNL     1      24.258   4.626  49.280  1.00  0.00     0.314 C 
HETATM   12  O1  UNL     1      23.265   3.703  49.575  1.00  0.00    -0.351 OA
HETATM   13  C9  UNL     1      21.981   4.140  49.521  1.00  0.00     0.209 C 
HETATM   14  C10 UNL     1      20.987   3.101  49.909  1.00  0.00    -0.019 C 
HETATM   15  S1  UNL     1      25.872   3.931  49.786  1.00  0.00    -0.079 SA
HETATM   16  C11 UNL     1      25.616   2.864  51.237  1.00  0.00    -0.008 C 
HETATM   17  C12 UNL     1      24.663   2.801  52.199  1.00  0.00     0.001 C 
HETATM   18  C13 UNL     1      24.902   1.932  53.343  1.00  0.00     0.043 C 
HETATM   19  C14 UNL     1      26.358   2.066  53.771  1.00  0.00     0.005 C 
HETATM   20  C15 UNL     1      27.298   1.682  52.664  1.00  0.00     0.005 C 
HETATM   21  C16 UNL     1      26.738   1.895  51.293  1.00  0.00     0.046 C 
HETATM   22  H5  UNL     1      21.905   2.798  53.159  1.00  0.00     0.162 HD
ENDROOT
TORSDOF 0
ENDMDL
MODEL 8
REMARK VINA RESULT:      -6.6      8.336      9.927
REMARK  0 active torsions:
REMARK  status: ('A' for Active; 'I' for Inactive)
ROOT
HETATM    1  C1  UNL     1      33.453   7.767  44.866  1.00  0.00    -0.019 C 
HETATM    2  C2  UNL     1      34.431   8.615  44.765  1.00  0.00     0.012 C 
HETATM    3  C3  UNL     1      34.807   9.510  45.863  1.00  0.00    -0.001 C 
HETATM    4  C4  UNL     1      33.957   9.738  46.872  1.00  0.00     0.003 C 
HETATM    5  C5  UNL     1      32.693   8.981  46.668  1.00  0.00     0.138 C 
HETATM    6  N1  UNL     1      31.967   9.027  47.897  1.00  0.00    -0.363 N 
HETATM    7  C6  UNL     1      31.078   8.340  48.808  1.00  0.00     0.133 C 
HETATM    8  N2  UNL     1      31.734   7.640  49.730  1.00  0.00    -0.225 NA
HETATM    9  C7  UNL     1      31.847   6.182  49.778  1.00  0.00     0.233 C 
HETATM   10  N3  UNL     1      31.574   5.192  48.945  1.00  0.00    -0.241 NA
HETATM   11  C8  UNL     1      30.726   5.238  47.734  1.00  0.00     0.314 C 
HETATM   12  O1  UNL     1      31.171   6.338  47.015  1.00  0.00    -0.351 OA
HETATM   13  C9  UNL     1      32.507   6.430  46.794  1.00  0.00     0.209 C 
HETATM   14  C10 UNL     1      32.901   7.669  46.067  1.00  0.00    -0.019 C 
HETATM   15  S1  UNL     1      28.989   5.526  48.229  1.00  0.00    -0.079 SA
HETATM   16  C11 UNL     1      28.747   7.310  48.490  1.00  0.00    -0.008 C 
HETATM   17  C12 UNL     1      29.582   8.336  48.785  1.00  0.00     0.001 C 
HETATM   18  C13 UNL     1      28.990   9.621  49.130  1.00  0.00     0.043 C 
HETATM   19  C14 UNL     1      27.782   9.386  50.029  1.00  0.00     0.005 C 
HETATM   20  C15 UNL     1      26.744   8.538  49.350  1.00  0.00     0.005 C 
HETATM   21  C16 UNL     1      27.302   7.602  48.325  1.00  0.00     0.046 C 
HETATM   22  H5  UNL     1      32.033   9.893  48.476  1.00  0.00     0.162 HD
ENDROOT
TORSDOF 0
ENDMDL
MODEL 9
REMARK VINA RESULT:      -6.5      9.242     10.462
REMARK  0 active torsions:
REMARK  status: ('A' for Active; 'I' for Inactive)
ROOT
HETATM    1  C1  UNL     1      31.758   3.063  46.708  1.00  0.00    -0.019 C 
HETATM    2  C2  UNL     1      32.652   2.154  46.957  1.00  0.00     0.012 C 
HETATM    3  C3  UNL     1      33.966   2.483  47.515  1.00  0.00    -0.001 C 
HETATM    4  C4  UNL     1      34.429   3.738  47.466  1.00  0.00     0.003 C 
HETATM    5  C5  UNL     1      33.442   4.630  46.801  1.00  0.00     0.138 C 
HETATM    6  N1  UNL     1      33.852   5.975  47.045  1.00  0.00    -0.363 N 
HETATM    7  C6  UNL     1      33.447   7.343  47.286  1.00  0.00     0.133 C 
HETATM    8  N2  UNL     1      33.311   7.614  48.583  1.00  0.00    -0.225 NA
HETATM    9  C7  UNL     1      32.043   7.804  49.288  1.00  0.00     0.233 C 
HETATM   10  N3  UNL     1      30.769   7.597  49.000  1.00  0.00    -0.241 NA
HETATM   11  C8  UNL     1      30.167   7.377  47.668  1.00  0.00     0.314 C 
HETATM   12  O1  UNL     1      30.941   6.390  47.074  1.00  0.00    -0.351 OA
HETATM   13  C9  UNL     1      31.173   5.268  47.802  1.00  0.00     0.209 C 
HETATM   14  C10 UNL     1      32.058   4.289  47.112  1.00  0.00    -0.019 C 
HETATM   15  S1  UNL     1      30.317   8.909  46.681  1.00  0.00    -0.079 SA
HETATM   16  C11 UNL     1      31.979   8.967  45.943  1.00  0.00    -0.008 C 
HETATM   17  C12 UNL     1      33.168   8.400  46.265  1.00  0.00     0.001 C 
HETATM   18  C13 UNL     1      34.354   8.847  45.548  1.00  0.00     0.043 C 
HETATM   19  C14 UNL     1      34.292  10.360  45.382  1.00  0.00     0.005 C 
HETATM   20  C15 UNL     1      33.072  10.783  44.614  1.00  0.00     0.005 C 
HETATM   21  C16 UNL     1      31.916   9.842  44.748  1.00  0.00     0.046 C 
HETATM   22  H5  UNL     1      34.874   6.178  47.088  1.00  0.00     0.162 HD
ENDROOT
TORSDOF 0
ENDMDL
