MODEL 1
REMARK VINA RESULT:      -7.2      0.000      0.000
REMARK  3 active torsions:
REMARK  status: ('A' for Active; 'I' for Inactive)
REMARK    1  A    between atoms: O1_2  and  C2_3 
REMARK    2  A    between atoms: C11_14  and  N2_15 
REMARK    3  A    between atoms: N2_15  and  C12_16 
ROOT
HETATM    1  C12 UNL     1      26.291  -0.542  53.472  1.00  0.00     0.244 C 
HETATM    2  C13 UNL     1      27.298   0.121  54.317  1.00  0.00     0.078 C 
HETATM    3  N3  UNL     1      28.076   0.654  54.988  1.00  0.00    -0.196 NA
ENDROOT
BRANCH   1   4
HETATM    4  N2  UNL     1      24.949  -0.181  53.783  1.00  0.00    -0.376 N 
HETATM    5  H8  UNL     1      24.578  -0.420  54.705  1.00  0.00     0.160 HD
BRANCH   4   6
HETATM    6  C11 UNL     1      23.928   0.459  53.107  1.00  0.00     0.059 C 
HETATM    7  C2  UNL     1      22.558   0.335  53.459  1.00  0.00     0.096 C 
HETATM    8  C3  UNL     1      21.493   1.095  52.887  1.00  0.00     0.070 C 
HETATM    9  C4  UNL     1      21.235   2.229  52.023  1.00  0.00     0.055 C 
HETATM   10  N1  UNL     1      22.153   3.336  52.282  1.00  0.00    -0.274 NA
HETATM   11  C17 UNL     1      20.110   1.570  51.322  1.00  0.00     0.043 C 
HETATM   12  C5  UNL     1      23.206   3.219  51.307  1.00  0.00     0.108 A 
HETATM   13  C6  UNL     1      22.801   4.152  50.489  1.00  0.00     0.046 A 
HETATM   14  C9  UNL     1      24.250   2.158  51.129  1.00  0.00     0.055 A 
HETATM   15  C8  UNL     1      23.570   3.177  50.678  1.00  0.00     0.083 A 
HETATM   16  C7  UNL     1      22.023   5.264  50.087  1.00  0.00     0.130 C 
HETATM   17 CL1  UNL     1      22.685   6.736  50.862  1.00  0.00    -0.129 Cl
HETATM   18  C10 UNL     1      24.522   1.207  52.042  1.00  0.00     0.021 C 
HETATM   19  N4  UNL     1      23.345   2.821  49.255  1.00  0.00    -0.405 N 
HETATM   20  C14 UNL     1      21.952   2.294  49.338  1.00  0.00     0.143 C 
HETATM   21  H11 UNL     1      24.032   2.929  48.491  1.00  0.00     0.154 HD
HETATM   22  C15 UNL     1      21.758   1.014  49.969  1.00  0.00     0.004 C 
HETATM   23  C16 UNL     1      20.443   0.949  50.192  1.00  0.00    -0.026 C 
BRANCH   7  24
HETATM   24  O1  UNL     1      22.466  -0.603  54.397  1.00  0.00    -0.354 OA
HETATM   25  C1  UNL     1      21.387  -1.499  54.449  1.00  0.00     0.210 C 
ENDBRANCH   7  24
ENDBRANCH   4   6
ENDBRANCH   1   4
TORSDOF 3
ENDMDL
MODEL 2
REMARK VINA RESULT:      -7.0      3.075      4.582
REMARK  3 active torsions:
REMARK  status: ('A' for Active; 'I' for Inactive)
REMARK    1  A    between atoms: O1_2  and  C2_3 
REMARK    2  A    between atoms: C11_14  and  N2_15 
REMARK    3  A    between atoms: N2_15  and  C12_16 
ROOT
HETATM    1  C12 UNL     1      27.415   1.702  52.691  1.00  0.00     0.244 C 
HETATM    2  C13 UNL     1      28.412   2.045  53.719  1.00  0.00     0.078 C 
HETATM    3  N3  UNL     1      29.199   2.332  54.518  1.00  0.00    -0.196 NA
ENDROOT
BRANCH   1   4
HETATM    4  N2  UNL     1      26.993   2.812  51.904  1.00  0.00    -0.376 N 
HETATM    5  H8  UNL     1      27.651   3.576  51.742  1.00  0.00     0.160 HD
BRANCH   4   6
HETATM    6  C11 UNL     1      25.826   3.157  51.251  1.00  0.00     0.059 C 
HETATM    7  C2  UNL     1      25.777   3.530  49.881  1.00  0.00     0.096 C 
HETATM    8  C3  UNL     1      24.581   3.744  49.132  1.00  0.00     0.070 C 
HETATM    9  C4  UNL     1      23.143   3.580  49.206  1.00  0.00     0.055 C 
HETATM   10  N1  UNL     1      22.766   2.311  49.825  1.00  0.00    -0.274 NA
HETATM   11  C17 UNL     1      22.858   4.885  48.566  1.00  0.00     0.043 C 
HETATM   12  C5  UNL     1      22.498   2.606  51.208  1.00  0.00     0.108 A 
HETATM   13  C6  UNL     1      21.195   2.607  51.145  1.00  0.00     0.046 A 
HETATM   14  C9  UNL     1      23.418   3.070  52.297  1.00  0.00     0.055 A 
HETATM   15  C8  UNL     1      22.218   2.888  51.818  1.00  0.00     0.083 A 
HETATM   16  C7  UNL     1      19.934   2.366  50.549  1.00  0.00     0.130 C 
HETATM   17 CL1  UNL     1      19.563   0.619  50.682  1.00  0.00    -0.129 Cl
HETATM   18  C10 UNL     1      24.761   3.072  52.201  1.00  0.00     0.021 C 
HETATM   19  N4  UNL     1      21.489   4.094  52.282  1.00  0.00    -0.405 N 
HETATM   20  C14 UNL     1      21.547   4.923  51.042  1.00  0.00     0.143 C 
HETATM   21  H11 UNL     1      21.099   4.237  53.228  1.00  0.00     0.154 HD
HETATM   22  C15 UNL     1      22.817   5.499  50.682  1.00  0.00     0.004 C 
HETATM   23  C16 UNL     1      22.657   5.890  49.416  1.00  0.00    -0.026 C 
BRANCH   7  24
HETATM   24  O1  UNL     1      27.030   3.640  49.449  1.00  0.00    -0.354 OA
HETATM   25  C1  UNL     1      27.466   4.752  48.711  1.00  0.00     0.210 C 
ENDBRANCH   7  24
ENDBRANCH   4   6
ENDBRANCH   1   4
TORSDOF 3
ENDMDL
MODEL 3
REMARK VINA RESULT:      -6.7      9.244     11.092
REMARK  3 active torsions:
REMARK  status: ('A' for Active; 'I' for Inactive)
REMARK    1  A    between atoms: O1_2  and  C2_3 
REMARK    2  A    between atoms: C11_14  and  N2_15 
REMARK    3  A    between atoms: N2_15  and  C12_16 
ROOT
HETATM    1  C12 UNL     1      26.952   5.072  48.607  1.00  0.00     0.244 C 
HETATM    2  C13 UNL     1      26.863   4.030  49.643  1.00  0.00     0.078 C 
HETATM    3  N3  UNL     1      26.808   3.218  50.467  1.00  0.00    -0.196 NA
ENDROOT
BRANCH   1   4
HETATM    4  N2  UNL     1      27.788   6.169  48.963  1.00  0.00    -0.376 N 
HETATM    5  H8  UNL     1      27.509   6.765  49.745  1.00  0.00     0.160 HD
BRANCH   4   6
HETATM    6  C11 UNL     1      28.977   6.685  48.485  1.00  0.00     0.059 C 
HETATM    7  C2  UNL     1      29.258   8.076  48.424  1.00  0.00     0.096 C 
HETATM    8  C3  UNL     1      30.524   8.642  48.084  1.00  0.00     0.070 C 
HETATM    9  C4  UNL     1      31.910   8.286  47.856  1.00  0.00     0.055 C 
HETATM   10  N1  UNL     1      32.388   7.295  48.817  1.00  0.00    -0.274 NA
HETATM   11  C17 UNL     1      32.060   9.195  46.697  1.00  0.00     0.043 C 
HETATM   12  C5  UNL     1      32.269   6.016  48.165  1.00  0.00     0.108 A 
HETATM   13  C6  UNL     1      33.524   5.857  47.846  1.00  0.00     0.046 A 
HETATM   14  C9  UNL     1      31.051   5.263  47.721  1.00  0.00     0.055 A 
HETATM   15  C8  UNL     1      32.339   5.466  47.694  1.00  0.00     0.083 A 
HETATM   16  C7  UNL     1      34.909   6.145  47.884  1.00  0.00     0.130 C 
HETATM   17 CL1  UNL     1      35.588   5.488  49.405  1.00  0.00    -0.129 Cl
HETATM   18  C10 UNL     1      29.793   5.582  48.083  1.00  0.00     0.021 C 
HETATM   19  N4  UNL     1      32.682   5.228  46.269  1.00  0.00    -0.405 N 
HETATM   20  C14 UNL     1      32.738   6.636  45.778  1.00  0.00     0.143 C 
HETATM   21  H11 UNL     1      32.809   4.303  45.827  1.00  0.00     0.154 HD
HETATM   22  C15 UNL     1      31.493   7.347  45.640  1.00  0.00     0.004 C 
HETATM   23  C16 UNL     1      31.853   8.625  45.511  1.00  0.00    -0.026 C 
BRANCH   7  24
HETATM   24  O1  UNL     1      28.141   8.727  48.735  1.00  0.00    -0.354 OA
HETATM   25  C1  UNL     1      27.995   9.412  49.952  1.00  0.00     0.210 C 
ENDBRANCH   7  24
ENDBRANCH   4   6
ENDBRANCH   1   4
TORSDOF 3
ENDMDL
MODEL 4
REMARK VINA RESULT:      -6.6      1.814      2.244
REMARK  3 active torsions:
REMARK  status: ('A' for Active; 'I' for Inactive)
REMARK    1  A    between atoms: O1_2  and  C2_3 
REMARK    2  A    between atoms: C11_14  and  N2_15 
REMARK    3  A    between atoms: N2_15  and  C12_16 
ROOT
HETATM    1  C12 UNL     1      22.439  -1.399  54.948  1.00  0.00     0.244 C 
HETATM    2  C13 UNL     1      23.826  -1.291  55.433  1.00  0.00     0.078 C 
HETATM    3  N3  UNL     1      24.916  -1.188  55.808  1.00  0.00    -0.196 NA
ENDROOT
BRANCH   1   4
HETATM    4  N2  UNL     1      21.834  -0.144  54.650  1.00  0.00    -0.376 N 
HETATM    5  H8  UNL     1      21.546   0.457  55.424  1.00  0.00     0.160 HD
BRANCH   4   6
HETATM    6  C11 UNL     1      21.502   0.528  53.490  1.00  0.00     0.059 C 
HETATM    7  C2  UNL     1      20.231   0.430  52.865  1.00  0.00     0.096 C 
HETATM    8  C3  UNL     1      19.798   1.222  51.758  1.00  0.00     0.070 C 
HETATM    9  C4  UNL     1      20.171   2.375  50.964  1.00  0.00     0.055 C 
HETATM   10  N1  UNL     1      20.708   3.457  51.786  1.00  0.00    -0.274 NA
HETATM   11  C17 UNL     1      19.767   1.752  49.683  1.00  0.00     0.043 C 
HETATM   12  C5  UNL     1      22.141   3.332  51.726  1.00  0.00     0.108 A 
HETATM   13  C6  UNL     1      22.371   4.287  50.866  1.00  0.00     0.046 A 
HETATM   14  C9  UNL     1      23.043   2.251  52.242  1.00  0.00     0.055 A 
HETATM   15  C8  UNL     1      22.827   3.292  51.484  1.00  0.00     0.083 A 
HETATM   16  C7  UNL     1      22.049   5.421  50.085  1.00  0.00     0.130 C 
HETATM   17 CL1  UNL     1      22.057   6.866  51.142  1.00  0.00    -0.129 Cl
HETATM   18  C10 UNL     1      22.650   1.280  53.087  1.00  0.00     0.021 C 
HETATM   19  N4  UNL     1      23.578   2.963  50.247  1.00  0.00    -0.405 N 
HETATM   20  C14 UNL     1      22.461   2.465  49.391  1.00  0.00     0.143 C 
HETATM   21  H11 UNL     1      24.597   3.068  50.115  1.00  0.00     0.154 HD
HETATM   22  C15 UNL     1      21.895   1.181  49.711  1.00  0.00     0.004 C 
HETATM   23  C16 UNL     1      20.751   1.141  49.025  1.00  0.00    -0.026 C 
BRANCH   7  24
HETATM   24  O1  UNL     1      19.545  -0.520  53.493  1.00  0.00    -0.354 OA
HETATM   25  C1  UNL     1      18.296  -0.964  53.032  1.00  0.00     0.210 C 
ENDBRANCH   7  24
ENDBRANCH   4   6
ENDBRANCH   1   4
TORSDOF 3
ENDMDL
MODEL 5
REMARK VINA RESULT:      -6.5      3.285      4.711
REMARK  3 active torsions:
REMARK  status: ('A' for Active; 'I' for Inactive)
REMARK    1  A    between atoms: O1_2  and  C2_3 
REMARK    2  A    between atoms: C11_14  and  N2_15 
REMARK    3  A    between atoms: N2_15  and  C12_16 
ROOT
HETATM    1  C12 UNL     1      24.337   6.799  51.234  1.00  0.00     0.244 C 
HETATM    2  C13 UNL     1      25.316   6.369  50.222  1.00  0.00     0.078 C 
HETATM    3  N3  UNL     1      26.088   6.014  49.436  1.00  0.00    -0.196 NA
ENDROOT
BRANCH   1   4
HETATM    4  N2  UNL     1      23.863   5.742  52.063  1.00  0.00    -0.376 N 
HETATM    5  H8  UNL     1      24.211   5.677  53.021  1.00  0.00     0.160 HD
BRANCH   4   6
HETATM    6  C11 UNL     1      22.983   4.690  51.896  1.00  0.00     0.059 C 
HETATM    7  C2  UNL     1      23.159   3.419  52.503  1.00  0.00     0.096 C 
HETATM    8  C3  UNL     1      22.202   2.360  52.482  1.00  0.00     0.070 C 
HETATM    9  C4  UNL     1      20.828   2.070  52.123  1.00  0.00     0.055 C 
HETATM   10  N1  UNL     1      19.921   3.151  52.504  1.00  0.00    -0.274 NA
HETATM   11  C17 UNL     1      21.153   0.751  51.534  1.00  0.00     0.043 C 
HETATM   12  C5  UNL     1      19.741   3.955  51.323  1.00  0.00     0.108 A 
HETATM   13  C6  UNL     1      18.565   3.507  50.976  1.00  0.00     0.046 A 
HETATM   14  C9  UNL     1      20.720   4.801  50.566  1.00  0.00     0.055 A 
HETATM   15  C8  UNL     1      19.579   4.173  50.647  1.00  0.00     0.083 A 
HETATM   16  C7  UNL     1      17.349   2.806  51.156  1.00  0.00     0.130 C 
HETATM   17 CL1  UNL     1      16.268   3.791  52.189  1.00  0.00    -0.129 Cl
HETATM   18  C10 UNL     1      21.940   5.137  51.026  1.00  0.00     0.021 C 
HETATM   19  N4  UNL     1      19.409   3.614  49.283  1.00  0.00    -0.405 N 
HETATM   20  C14 UNL     1      19.870   2.215  49.518  1.00  0.00     0.143 C 
HETATM   21  H11 UNL     1      19.074   4.135  48.456  1.00  0.00     0.154 HD
HETATM   22  C15 UNL     1      21.279   2.000  49.723  1.00  0.00     0.004 C 
HETATM   23  C16 UNL     1      21.358   0.763  50.218  1.00  0.00    -0.026 C 
BRANCH   7  24
HETATM   24  O1  UNL     1      24.359   3.409  53.077  1.00  0.00    -0.354 OA
HETATM   25  C1  UNL     1      25.108   2.230  53.214  1.00  0.00     0.210 C 
ENDBRANCH   7  24
ENDBRANCH   4   6
ENDBRANCH   1   4
TORSDOF 3
ENDMDL
MODEL 6
REMARK VINA RESULT:      -6.4      2.452      4.161
REMARK  3 active torsions:
REMARK  status: ('A' for Active; 'I' for Inactive)
REMARK    1  A    between atoms: O1_2  and  C2_3 
REMARK    2  A    between atoms: C11_14  and  N2_15 
REMARK    3  A    between atoms: N2_15  and  C12_16 
ROOT
HETATM    1  C12 UNL     1      22.050  -0.576  52.976  1.00  0.00     0.244 C 
HETATM    2  C13 UNL     1      22.125  -1.267  54.274  1.00  0.00     0.078 C 
HETATM    3  N3  UNL     1      22.203  -1.805  55.296  1.00  0.00    -0.196 NA
ENDROOT
BRANCH   1   4
HETATM    4  N2  UNL     1      23.190   0.225  52.682  1.00  0.00    -0.376 N 
HETATM    5  H8  UNL     1      24.092  -0.042  53.079  1.00  0.00     0.160 HD
BRANCH   4   6
HETATM    6  C11 UNL     1      23.414   1.369  51.940  1.00  0.00     0.059 C 
HETATM    7  C2  UNL     1      24.683   1.999  51.838  1.00  0.00     0.096 C 
HETATM    8  C3  UNL     1      24.990   3.086  50.965  1.00  0.00     0.070 C 
HETATM    9  C4  UNL     1      24.449   3.851  49.860  1.00  0.00     0.055 C 
HETATM   10  N1  UNL     1      23.766   3.001  48.886  1.00  0.00    -0.274 NA
HETATM   11  C17 UNL     1      24.932   5.148  50.386  1.00  0.00     0.043 C 
HETATM   12  C5  UNL     1      22.365   3.062  49.217  1.00  0.00     0.108 A 
HETATM   13  C6  UNL     1      21.995   3.897  48.285  1.00  0.00     0.046 A 
HETATM   14  C9  UNL     1      21.632   2.571  50.429  1.00  0.00     0.055 A 
HETATM   15  C8  UNL     1      21.692   3.303  49.350  1.00  0.00     0.083 A 
HETATM   16  C7  UNL     1      22.145   4.651  47.097  1.00  0.00     0.130 C 
HETATM   17 CL1  UNL     1      21.933   3.558  45.695  1.00  0.00    -0.129 Cl
HETATM   18  C10 UNL     1      22.167   1.751  51.353  1.00  0.00     0.021 C 
HETATM   19  N4  UNL     1      20.989   4.546  49.754  1.00  0.00    -0.405 N 
HETATM   20  C14 UNL     1      22.161   5.416  50.064  1.00  0.00     0.143 C 
HETATM   21  H11 UNL     1      19.965   4.673  49.795  1.00  0.00     0.154 HD
HETATM   22  C15 UNL     1      22.910   5.130  51.260  1.00  0.00     0.004 C 
HETATM   23  C16 UNL     1      24.043   5.819  51.116  1.00  0.00    -0.026 C 
BRANCH   7  24
HETATM   24  O1  UNL     1      25.503   1.396  52.693  1.00  0.00    -0.354 OA
HETATM   25  C1  UNL     1      26.129   2.092  53.739  1.00  0.00     0.210 C 
ENDBRANCH   7  24
ENDBRANCH   4   6
ENDBRANCH   1   4
TORSDOF 3
ENDMDL
MODEL 7
REMARK VINA RESULT:      -6.3      3.672      5.133
REMARK  3 active torsions:
REMARK  status: ('A' for Active; 'I' for Inactive)
REMARK    1  A    between atoms: O1_2  and  C2_3 
REMARK    2  A    between atoms: C11_14  and  N2_15 
REMARK    3  A    between atoms: N2_15  and  C12_16 
ROOT
HETATM    1  C12 UNL     1      28.396   5.791  48.359  1.00  0.00     0.244 C 
HETATM    2  C13 UNL     1      29.781   5.356  48.108  1.00  0.00     0.078 C 
HETATM    3  N3  UNL     1      30.868   5.003  47.926  1.00  0.00    -0.196 NA
ENDROOT
BRANCH   1   4
HETATM    4  N2  UNL     1      27.695   4.972  49.289  1.00  0.00    -0.376 N 
HETATM    5  H8  UNL     1      28.230   4.464  49.996  1.00  0.00     0.160 HD
BRANCH   4   6
HETATM    6  C11 UNL     1      26.368   4.654  49.503  1.00  0.00     0.059 C 
HETATM    7  C2  UNL     1      25.938   3.674  50.436  1.00  0.00     0.096 C 
HETATM    8  C3  UNL     1      24.579   3.425  50.796  1.00  0.00     0.070 C 
HETATM    9  C4  UNL     1      23.242   3.960  50.645  1.00  0.00     0.055 C 
HETATM   10  N1  UNL     1      23.216   5.416  50.767  1.00  0.00    -0.274 NA
HETATM   11  C17 UNL     1      22.622   2.631  50.439  1.00  0.00     0.043 C 
HETATM   12  C5  UNL     1      23.246   5.930  49.423  1.00  0.00     0.108 A 
HETATM   13  C6  UNL     1      21.980   6.226  49.313  1.00  0.00     0.046 A 
HETATM   14  C9  UNL     1      24.320   5.856  48.379  1.00  0.00     0.055 A 
HETATM   15  C8  UNL     1      23.081   6.072  48.728  1.00  0.00     0.083 A 
HETATM   16  C7  UNL     1      20.663   6.447  49.783  1.00  0.00     0.130 C 
HETATM   17 CL1  UNL     1      20.599   8.055  50.569  1.00  0.00    -0.129 Cl
HETATM   18  C10 UNL     1      25.585   5.468  48.625  1.00  0.00     0.021 C 
HETATM   19  N4  UNL     1      22.313   5.487  47.601  1.00  0.00    -0.405 N 
HETATM   20  C14 UNL     1      21.950   4.166  48.193  1.00  0.00     0.143 C 
HETATM   21  H11 UNL     1      22.144   5.940  46.688  1.00  0.00     0.154 HD
HETATM   22  C15 UNL     1      22.997   3.189  48.341  1.00  0.00     0.004 C 
HETATM   23  C16 UNL     1      22.482   2.272  49.164  1.00  0.00    -0.026 C 
BRANCH   7  24
HETATM   24  O1  UNL     1      27.020   3.050  50.893  1.00  0.00    -0.354 OA
HETATM   25  C1  UNL     1      26.958   2.134  51.954  1.00  0.00     0.210 C 
ENDBRANCH   7  24
ENDBRANCH   4   6
ENDBRANCH   1   4
TORSDOF 3
ENDMDL
MODEL 8
REMARK VINA RESULT:      -6.3      3.349      6.276
REMARK  3 active torsions:
REMARK  status: ('A' for Active; 'I' for Inactive)
REMARK    1  A    between atoms: O1_2  and  C2_3 
REMARK    2  A    between atoms: C11_14  and  N2_15 
REMARK    3  A    between atoms: N2_15  and  C12_16 
ROOT
HETATM    1  C12 UNL     1      21.856   4.251  45.808  1.00  0.00     0.244 C 
HETATM    2  C13 UNL     1      21.218   3.905  44.527  1.00  0.00     0.078 C 
HETATM    3  N3  UNL     1      20.719   3.614  43.524  1.00  0.00    -0.196 NA
ENDROOT
BRANCH   1   4
HETATM    4  N2  UNL     1      21.994   3.149  46.700  1.00  0.00    -0.376 N 
HETATM    5  H8  UNL     1      22.168   2.221  46.309  1.00  0.00     0.160 HD
BRANCH   4   6
HETATM    6  C11 UNL     1      21.946   2.992  48.071  1.00  0.00     0.059 C 
HETATM    7  C2  UNL     1      20.774   2.607  48.775  1.00  0.00     0.096 C 
HETATM    8  C3  UNL     1      20.721   2.285  50.165  1.00  0.00     0.070 C 
HETATM    9  C4  UNL     1      21.569   2.035  51.312  1.00  0.00     0.055 C 
HETATM   10  N1  UNL     1      22.737   1.228  50.966  1.00  0.00    -0.274 NA
HETATM   11  C17 UNL     1      20.706   2.795  52.245  1.00  0.00     0.043 C 
HETATM   12  C5  UNL     1      23.816   2.158  50.753  1.00  0.00     0.108 A 
HETATM   13  C6  UNL     1      24.426   1.993  51.895  1.00  0.00     0.046 A 
HETATM   14  C9  UNL     1      24.001   3.204  49.695  1.00  0.00     0.055 A 
HETATM   15  C8  UNL     1      24.313   2.681  50.849  1.00  0.00     0.083 A 
HETATM   16  C7  UNL     1      24.703   1.354  53.127  1.00  0.00     0.130 C 
HETATM   17 CL1  UNL     1      25.685  -0.109  52.804  1.00  0.00    -0.129 Cl
HETATM   18  C10 UNL     1      23.247   3.294  48.584  1.00  0.00     0.021 C 
HETATM   19  N4  UNL     1      24.559   3.873  51.699  1.00  0.00    -0.405 N 
HETATM   20  C14 UNL     1      23.251   3.955  52.412  1.00  0.00     0.143 C 
HETATM   21  H11 UNL     1      25.424   4.437  51.709  1.00  0.00     0.154 HD
HETATM   22  C15 UNL     1      22.104   4.393  51.659  1.00  0.00     0.004 C 
HETATM   23  C16 UNL     1      21.060   4.066  52.424  1.00  0.00    -0.026 C 
BRANCH   7  24
HETATM   24  O1  UNL     1      19.765   2.609  47.908  1.00  0.00    -0.354 OA
HETATM   25  C1  UNL     1      18.619   3.395  48.104  1.00  0.00     0.210 C 
ENDBRANCH   7  24
ENDBRANCH   4   6
ENDBRANCH   1   4
TORSDOF 3
ENDMDL
MODEL 9
REMARK VINA RESULT:      -6.3     10.282     12.450
REMARK  3 active torsions:
REMARK  status: ('A' for Active; 'I' for Inactive)
REMARK    1  A    between atoms: O1_2  and  C2_3 
REMARK    2  A    between atoms: C11_14  and  N2_15 
REMARK    3  A    between atoms: N2_15  and  C12_16 
ROOT
HETATM    1  C12 UNL     1      27.265   9.180  49.910  1.00  0.00     0.244 C 
HETATM    2  C13 UNL     1      26.671  10.016  48.853  1.00  0.00     0.078 C 
HETATM    3  N3  UNL     1      26.221  10.684  48.021  1.00  0.00    -0.196 NA
ENDROOT
BRANCH   1   4
HETATM    4  N2  UNL     1      28.675   9.327  50.037  1.00  0.00    -0.376 N 
HETATM    5  H8  UNL     1      29.057   9.644  50.931  1.00  0.00     0.160 HD
BRANCH   4   6
HETATM    6  C11 UNL     1      29.756   9.142  49.197  1.00  0.00     0.059 C 
HETATM    7  C2  UNL     1      30.498  10.211  48.629  1.00  0.00     0.096 C 
HETATM    8  C3  UNL     1      31.708  10.064  47.884  1.00  0.00     0.070 C 
HETATM    9  C4  UNL     1      32.715   9.088  47.524  1.00  0.00     0.055 C 
HETATM   10  N1  UNL     1      33.067   8.221  48.647  1.00  0.00    -0.274 NA
HETATM   11  C17 UNL     1      32.819   9.560  46.124  1.00  0.00     0.043 C 
HETATM   12  C5  UNL     1      32.284   7.023  48.487  1.00  0.00     0.108 A 
HETATM   13  C6  UNL     1      33.222   6.256  48.003  1.00  0.00     0.046 A 
HETATM   14  C9  UNL     1      30.801   6.817  48.559  1.00  0.00     0.055 A 
HETATM   15  C8  UNL     1      31.994   6.412  48.219  1.00  0.00     0.083 A 
HETATM   16  C7  UNL     1      34.551   5.896  47.676  1.00  0.00     0.130 C 
HETATM   17 CL1  UNL     1      35.379   5.351  49.168  1.00  0.00    -0.129 Cl
HETATM   18  C10 UNL     1      29.934   7.733  49.031  1.00  0.00     0.021 C 
HETATM   19  N4  UNL     1      31.758   5.745  46.914  1.00  0.00    -0.405 N 
HETATM   20  C14 UNL     1      32.175   6.836  45.986  1.00  0.00     0.143 C 
HETATM   21  H11 UNL     1      31.387   4.789  46.785  1.00  0.00     0.154 HD
HETATM   22  C15 UNL     1      31.307   7.979  45.864  1.00  0.00     0.004 C 
HETATM   23  C16 UNL     1      32.055   8.901  45.255  1.00  0.00    -0.026 C 
BRANCH   7  24
HETATM   24  O1  UNL     1      29.861  11.342  48.918  1.00  0.00    -0.354 OA
HETATM   25  C1  UNL     1      30.534  12.571  49.012  1.00  0.00     0.210 C 
ENDBRANCH   7  24
ENDBRANCH   4   6
ENDBRANCH   1   4
TORSDOF 3
ENDMDL
