MODEL 1
REMARK VINA RESULT:      -9.3      0.000      0.000
REMARK  5 active torsions:
REMARK  status: ('A' for Active; 'I' for Inactive)
REMARK    1  A    between atoms: C7_11  and  C8_12 
REMARK    2  A    between atoms: N3_22  and  C17_23 
REMARK    3  A    between atoms: C17_23  and  C18_24 
REMARK    4  A    between atoms: C18_24  and  C19_25 
REMARK    5  A    between atoms: C19_25  and  N4_26 
ROOT
HETATM    1  O1  UNL     1      28.726   2.052  53.030  1.00  0.00    -0.271 OA
HETATM    2  C1  UNL     1      27.723   1.420  53.498  1.00  0.00     0.248 C 
HETATM    3  C2  UNL     1      28.103   0.508  54.609  1.00  0.00     0.279 C 
HETATM    4  O2  UNL     1      27.031  -0.334  54.982  1.00  0.00    -0.340 OA
HETATM    5  C3  UNL     1      25.741  -0.167  54.478  1.00  0.00     0.098 A 
HETATM    6  C4  UNL     1      24.789  -1.005  55.019  1.00  0.00     0.071 A 
HETATM    7  C5  UNL     1      23.481  -0.915  54.585  1.00  0.00     0.073 A 
HETATM    8  N1  UNL     1      22.537  -1.708  55.096  1.00  0.00    -0.241 NA
HETATM    9  C6  UNL     1      21.276  -1.543  54.614  1.00  0.00     0.234 A 
HETATM   10  N2  UNL     1      20.956  -0.641  53.669  1.00  0.00    -0.240 NA
HETATM   11  C7  UNL     1      21.896   0.163  53.144  1.00  0.00     0.081 A 
HETATM   12  C14 UNL     1      23.175   0.025  53.609  1.00  0.00     0.025 A 
HETATM   13  C15 UNL     1      24.120   0.867  53.063  1.00  0.00     0.049 A 
HETATM   14  C16 UNL     1      25.402   0.762  53.508  1.00  0.00     0.071 A 
HETATM   15  N3  UNL     1      26.397   1.620  52.957  1.00  0.00    -0.314 N 
ENDROOT
BRANCH  15  16
HETATM   16  C17 UNL     1      26.171   2.624  51.941  1.00  0.00     0.134 C 
BRANCH  16  17
HETATM   17  C18 UNL     1      26.348   2.163  50.559  1.00  0.00     0.040 C 
BRANCH  17  18
HETATM   18  C19 UNL     1      26.579   3.305  49.614  1.00  0.00     0.118 C 
BRANCH  18  19
HETATM   19  N4  UNL     1      25.627   4.282  49.423  1.00  0.00    -0.408 N 
HETATM   20  C20 UNL     1      25.915   5.655  49.455  1.00  0.00     0.143 C 
HETATM   21  C21 UNL     1      24.971   6.393  50.398  1.00  0.00     0.187 C 
HETATM   22  O3  UNL     1      23.650   6.010  50.191  1.00  0.00    -0.388 OA
HETATM   23  C22 UNL     1      23.489   4.639  50.379  1.00  0.00     0.187 C 
HETATM   24  C23 UNL     1      24.262   3.959  49.267  1.00  0.00     0.143 C 
ENDBRANCH  18  19
ENDBRANCH  17  18
ENDBRANCH  16  17
ENDBRANCH  15  16
BRANCH  11  25
HETATM   25  C8  UNL     1      21.377   1.077  52.142  1.00  0.00    -0.004 A 
HETATM   26  C9  UNL     1      20.731   2.285  52.280  1.00  0.00     0.014 A 
HETATM   27  C10 UNL     1      20.279   3.019  51.234  1.00  0.00     0.004 A 
HETATM   28  C11 UNL     1      20.463   2.553  49.950  1.00  0.00     0.042 A 
HETATM   29  C12 UNL     1      21.096   1.359  49.692  1.00  0.00     0.117 A 
HETATM   30  F1  UNL     1      21.289   0.879  48.451  1.00  0.00    -0.206 F 
HETATM   31  C13 UNL     1      21.534   0.657  50.814  1.00  0.00     0.056 A 
ENDBRANCH  11  25
TORSDOF 5
ENDMDL
MODEL 2
REMARK VINA RESULT:      -9.2      2.004      3.245
REMARK  5 active torsions:
REMARK  status: ('A' for Active; 'I' for Inactive)
REMARK    1  A    between atoms: C7_11  and  C8_12 
REMARK    2  A    between atoms: N3_22  and  C17_23 
REMARK    3  A    between atoms: C17_23  and  C18_24 
REMARK    4  A    between atoms: C18_24  and  C19_25 
REMARK    5  A    between atoms: C19_25  and  N4_26 
ROOT
HETATM    1  O1  UNL     1      26.169  -0.749  54.922  1.00  0.00    -0.271 OA
HETATM    2  C1  UNL     1      24.907  -0.742  54.748  1.00  0.00     0.248 C 
HETATM    3  C2  UNL     1      24.182  -1.399  55.868  1.00  0.00     0.279 C 
HETATM    4  O2  UNL     1      22.810  -1.569  55.573  1.00  0.00    -0.340 OA
HETATM    5  C3  UNL     1      22.214  -1.005  54.446  1.00  0.00     0.098 A 
HETATM    6  C4  UNL     1      20.849  -1.178  54.357  1.00  0.00     0.071 A 
HETATM    7  C5  UNL     1      20.168  -0.655  53.276  1.00  0.00     0.073 A 
HETATM    8  N1  UNL     1      18.846  -0.800  53.168  1.00  0.00    -0.241 NA
HETATM    9  C6  UNL     1      18.259  -0.245  52.073  1.00  0.00     0.234 A 
HETATM   10  N2  UNL     1      18.941   0.423  51.125  1.00  0.00    -0.240 NA
HETATM   11  C7  UNL     1      20.273   0.576  51.221  1.00  0.00     0.081 A 
HETATM   12  C14 UNL     1      20.894   0.031  52.310  1.00  0.00     0.025 A 
HETATM   13  C15 UNL     1      22.259   0.210  52.391  1.00  0.00     0.049 A 
HETATM   14  C16 UNL     1      22.909  -0.313  53.466  1.00  0.00     0.071 A 
HETATM   15  N3  UNL     1      24.319  -0.144  53.570  1.00  0.00    -0.314 N 
ENDROOT
BRANCH  15  16
HETATM   16  C17 UNL     1      25.154   0.553  52.617  1.00  0.00     0.134 C 
BRANCH  16  17
HETATM   17  C18 UNL     1      25.627   1.873  53.051  1.00  0.00     0.040 C 
BRANCH  17  18
HETATM   18  C19 UNL     1      24.502   2.859  53.167  1.00  0.00     0.118 C 
BRANCH  18  19
HETATM   19  N4  UNL     1      24.034   3.547  52.068  1.00  0.00    -0.408 N 
HETATM   20  C20 UNL     1      24.490   3.314  50.762  1.00  0.00     0.143 C 
HETATM   21  C21 UNL     1      24.910   4.615  50.087  1.00  0.00     0.187 C 
HETATM   22  O3  UNL     1      23.959   5.613  50.276  1.00  0.00    -0.388 OA
HETATM   23  C22 UNL     1      23.753   5.858  51.633  1.00  0.00     0.187 C 
HETATM   24  C23 UNL     1      23.114   4.608  52.203  1.00  0.00     0.143 C 
ENDBRANCH  18  19
ENDBRANCH  17  18
ENDBRANCH  16  17
ENDBRANCH  15  16
BRANCH  11  25
HETATM   25  C8  UNL     1      20.846   1.323  50.115  1.00  0.00    -0.004 A 
HETATM   26  C9  UNL     1      21.552   0.892  49.014  1.00  0.00     0.014 A 
HETATM   27  C10 UNL     1      22.048   1.726  48.067  1.00  0.00     0.004 A 
HETATM   28  C11 UNL     1      21.850   3.084  48.189  1.00  0.00     0.042 A 
HETATM   29  C12 UNL     1      21.159   3.628  49.247  1.00  0.00     0.117 A 
HETATM   30  F1  UNL     1      20.950   4.948  49.393  1.00  0.00    -0.206 F 
HETATM   31  C13 UNL     1      20.677   2.713  50.182  1.00  0.00     0.056 A 
ENDBRANCH  11  25
TORSDOF 5
ENDMDL
MODEL 3
REMARK VINA RESULT:      -8.8      2.822      4.892
REMARK  5 active torsions:
REMARK  status: ('A' for Active; 'I' for Inactive)
REMARK    1  A    between atoms: C7_11  and  C8_12 
REMARK    2  A    between atoms: N3_22  and  C17_23 
REMARK    3  A    between atoms: C17_23  and  C18_24 
REMARK    4  A    between atoms: C18_24  and  C19_25 
REMARK    5  A    between atoms: C19_25  and  N4_26 
ROOT
HETATM    1  O1  UNL     1      25.201  -1.031  54.959  1.00  0.00    -0.271 OA
HETATM    2  C1  UNL     1      23.985  -0.893  54.604  1.00  0.00     0.248 C 
HETATM    3  C2  UNL     1      23.043  -1.507  55.577  1.00  0.00     0.279 C 
HETATM    4  O2  UNL     1      21.721  -1.530  55.079  1.00  0.00    -0.340 OA
HETATM    5  C3  UNL     1      21.355  -0.877  53.902  1.00  0.00     0.098 A 
HETATM    6  C4  UNL     1      20.008  -0.910  53.609  1.00  0.00     0.071 A 
HETATM    7  C5  UNL     1      19.548  -0.291  52.464  1.00  0.00     0.073 A 
HETATM    8  N1  UNL     1      18.249  -0.300  52.158  1.00  0.00    -0.241 NA
HETATM    9  C6  UNL     1      17.887   0.343  51.015  1.00  0.00     0.234 A 
HETATM   10  N2  UNL     1      18.762   0.966  50.207  1.00  0.00    -0.240 NA
HETATM   11  C7  UNL     1      20.073   0.983  50.501  1.00  0.00     0.081 A 
HETATM   12  C14 UNL     1      20.471   0.347  51.645  1.00  0.00     0.025 A 
HETATM   13  C15 UNL     1      21.820   0.387  51.931  1.00  0.00     0.049 A 
HETATM   14  C16 UNL     1      22.250  -0.230  53.065  1.00  0.00     0.071 A 
HETATM   15  N3  UNL     1      23.639  -0.205  53.380  1.00  0.00    -0.314 N 
ENDROOT
BRANCH  15  16
HETATM   16  C17 UNL     1      24.668   0.432  52.590  1.00  0.00     0.134 C 
BRANCH  16  17
HETATM   17  C18 UNL     1      24.910   1.845  52.905  1.00  0.00     0.040 C 
BRANCH  17  18
HETATM   18  C19 UNL     1      26.108   2.023  53.790  1.00  0.00     0.118 C 
BRANCH  18  19
HETATM   19  N4  UNL     1      27.357   1.589  53.404  1.00  0.00    -0.408 N 
HETATM   20  C20 UNL     1      27.608   0.295  52.921  1.00  0.00     0.143 C 
HETATM   21  C21 UNL     1      28.765  -0.356  53.670  1.00  0.00     0.187 C 
HETATM   22  O3  UNL     1      29.843   0.514  53.790  1.00  0.00    -0.388 OA
HETATM   23  C22 UNL     1      29.476   1.680  54.460  1.00  0.00     0.187 C 
HETATM   24  C23 UNL     1      28.499   2.404  53.556  1.00  0.00     0.143 C 
ENDBRANCH  18  19
ENDBRANCH  17  18
ENDBRANCH  16  17
ENDBRANCH  15  16
BRANCH  11  25
HETATM   25  C8  UNL     1      20.872   1.701  49.524  1.00  0.00    -0.004 A 
HETATM   26  C9  UNL     1      21.686   1.234  48.516  1.00  0.00     0.014 A 
HETATM   27  C10 UNL     1      22.396   2.041  47.689  1.00  0.00     0.004 A 
HETATM   28  C11 UNL     1      22.316   3.408  47.844  1.00  0.00     0.042 A 
HETATM   29  C12 UNL     1      21.534   3.987  48.817  1.00  0.00     0.117 A 
HETATM   30  F1  UNL     1      21.436   5.317  48.992  1.00  0.00    -0.206 F 
HETATM   31  C13 UNL     1      20.833   3.098  49.631  1.00  0.00     0.056 A 
ENDBRANCH  11  25
TORSDOF 5
ENDMDL
MODEL 4
REMARK VINA RESULT:      -8.8      2.306      5.839
REMARK  5 active torsions:
REMARK  status: ('A' for Active; 'I' for Inactive)
REMARK    1  A    between atoms: C7_11  and  C8_12 
REMARK    2  A    between atoms: N3_22  and  C17_23 
REMARK    3  A    between atoms: C17_23  and  C18_24 
REMARK    4  A    between atoms: C18_24  and  C19_25 
REMARK    5  A    between atoms: C19_25  and  N4_26 
ROOT
HETATM    1  O1  UNL     1      27.434   3.928  49.774  1.00  0.00    -0.271 OA
HETATM    2  C1  UNL     1      26.171   4.045  49.890  1.00  0.00     0.248 C 
HETATM    3  C2  UNL     1      25.644   5.216  49.140  1.00  0.00     0.279 C 
HETATM    4  O2  UNL     1      24.284   5.457  49.438  1.00  0.00    -0.340 OA
HETATM    5  C3  UNL     1      23.518   4.571  50.195  1.00  0.00     0.098 A 
HETATM    6  C4  UNL     1      22.184   4.901  50.308  1.00  0.00     0.071 A 
HETATM    7  C5  UNL     1      21.343   4.085  51.039  1.00  0.00     0.073 A 
HETATM    8  N1  UNL     1      20.046   4.375  51.159  1.00  0.00    -0.241 NA
HETATM    9  C6  UNL     1      19.293   3.510  51.891  1.00  0.00     0.234 A 
HETATM   10  N2  UNL     1      19.793   2.409  52.481  1.00  0.00    -0.240 NA
HETATM   11  C7  UNL     1      21.097   2.105  52.369  1.00  0.00     0.081 A 
HETATM   12  C14 UNL     1      21.882   2.954  51.638  1.00  0.00     0.025 A 
HETATM   13  C15 UNL     1      23.214   2.615  51.529  1.00  0.00     0.049 A 
HETATM   14  C16 UNL     1      24.023   3.434  50.803  1.00  0.00     0.071 A 
HETATM   15  N3  UNL     1      25.404   3.107  50.679  1.00  0.00    -0.314 N 
ENDROOT
BRANCH  15  16
HETATM   16  C17 UNL     1      26.050   1.954  51.266  1.00  0.00     0.134 C 
BRANCH  16  17
HETATM   17  C18 UNL     1      26.332   2.061  52.702  1.00  0.00     0.040 C 
BRANCH  17  18
HETATM   18  C19 UNL     1      27.660   1.462  53.057  1.00  0.00     0.118 C 
BRANCH  18  19
HETATM   19  N4  UNL     1      27.764   0.167  53.519  1.00  0.00    -0.408 N 
HETATM   20  C20 UNL     1      28.975  -0.408  53.932  1.00  0.00     0.143 C 
HETATM   21  C21 UNL     1      29.210  -1.748  53.242  1.00  0.00     0.187 C 
HETATM   22  O3  UNL     1      28.068  -2.541  53.276  1.00  0.00    -0.388 OA
HETATM   23  C22 UNL     1      26.995  -1.901  52.658  1.00  0.00     0.187 C 
HETATM   24  C23 UNL     1      26.653  -0.704  53.521  1.00  0.00     0.143 C 
ENDBRANCH  18  19
ENDBRANCH  17  18
ENDBRANCH  16  17
ENDBRANCH  15  16
BRANCH  11  25
HETATM   25  C8  UNL     1      21.464   0.883  53.064  1.00  0.00    -0.004 A 
HETATM   26  C9  UNL     1      22.682   0.458  53.545  1.00  0.00     0.014 A 
HETATM   27  C10 UNL     1      22.872  -0.735  54.159  1.00  0.00     0.004 A 
HETATM   28  C11 UNL     1      21.803  -1.590  54.323  1.00  0.00     0.042 A 
HETATM   29  C12 UNL     1      20.540  -1.270  53.883  1.00  0.00     0.117 A 
HETATM   30  F1  UNL     1      19.479  -2.083  54.029  1.00  0.00    -0.206 F 
HETATM   31  C13 UNL     1      20.418  -0.028  53.261  1.00  0.00     0.056 A 
ENDBRANCH  11  25
TORSDOF 5
ENDMDL
MODEL 5
REMARK VINA RESULT:      -8.7      3.354      5.638
REMARK  5 active torsions:
REMARK  status: ('A' for Active; 'I' for Inactive)
REMARK    1  A    between atoms: C7_11  and  C8_12 
REMARK    2  A    between atoms: N3_22  and  C17_23 
REMARK    3  A    between atoms: C17_23  and  C18_24 
REMARK    4  A    between atoms: C18_24  and  C19_25 
REMARK    5  A    between atoms: C19_25  and  N4_26 
ROOT
HETATM    1  O1  UNL     1      21.184   5.882  50.498  1.00  0.00    -0.271 OA
HETATM    2  C1  UNL     1      21.064   4.754  51.077  1.00  0.00     0.248 C 
HETATM    3  C2  UNL     1      19.642   4.400  51.327  1.00  0.00     0.279 C 
HETATM    4  O2  UNL     1      19.526   3.253  52.145  1.00  0.00    -0.340 OA
HETATM    5  C3  UNL     1      20.627   2.471  52.493  1.00  0.00     0.098 A 
HETATM    6  C4  UNL     1      20.331   1.331  53.211  1.00  0.00     0.071 A 
HETATM    7  C5  UNL     1      21.355   0.491  53.601  1.00  0.00     0.073 A 
HETATM    8  N1  UNL     1      21.098  -0.623  54.290  1.00  0.00    -0.241 NA
HETATM    9  C6  UNL     1      22.168  -1.393  54.625  1.00  0.00     0.234 A 
HETATM   10  N2  UNL     1      23.435  -1.082  54.300  1.00  0.00    -0.240 NA
HETATM   11  C7  UNL     1      23.709   0.037  53.608  1.00  0.00     0.081 A 
HETATM   12  C14 UNL     1      22.656   0.833  53.254  1.00  0.00     0.025 A 
HETATM   13  C15 UNL     1      22.960   1.970  52.535  1.00  0.00     0.049 A 
HETATM   14  C16 UNL     1      21.935   2.782  52.160  1.00  0.00     0.071 A 
HETATM   15  N3  UNL     1      22.226   3.964  51.420  1.00  0.00    -0.314 N 
ENDROOT
BRANCH  15  16
HETATM   16  C17 UNL     1      23.544   4.398  51.014  1.00  0.00     0.134 C 
BRANCH  16  17
HETATM   17  C18 UNL     1      23.792   4.370  49.568  1.00  0.00     0.040 C 
BRANCH  17  18
HETATM   18  C19 UNL     1      23.595   2.999  48.993  1.00  0.00     0.118 C 
BRANCH  18  19
HETATM   19  N4  UNL     1      22.486   2.690  48.236  1.00  0.00    -0.408 N 
HETATM   20  C20 UNL     1      21.937   3.561  47.284  1.00  0.00     0.143 C 
HETATM   21  C21 UNL     1      20.438   3.741  47.503  1.00  0.00     0.187 C 
HETATM   22  O3  UNL     1      19.807   2.518  47.706  1.00  0.00    -0.388 OA
HETATM   23  C22 UNL     1      20.344   1.854  48.808  1.00  0.00     0.187 C 
HETATM   24  C23 UNL     1      21.768   1.491  48.437  1.00  0.00     0.143 C 
ENDBRANCH  18  19
ENDBRANCH  17  18
ENDBRANCH  16  17
ENDBRANCH  15  16
BRANCH  11  25
HETATM   25  C8  UNL     1      25.126   0.215  53.341  1.00  0.00    -0.004 A 
HETATM   26  C9  UNL     1      25.785   0.522  52.172  1.00  0.00     0.014 A 
HETATM   27  C10 UNL     1      27.133   0.632  52.076  1.00  0.00     0.004 A 
HETATM   28  C11 UNL     1      27.910   0.430  53.197  1.00  0.00     0.042 A 
HETATM   29  C12 UNL     1      27.360   0.120  54.419  1.00  0.00     0.117 A 
HETATM   30  F1  UNL     1      28.093  -0.083  55.528  1.00  0.00    -0.206 F 
HETATM   31  C13 UNL     1      25.970   0.022  54.444  1.00  0.00     0.056 A 
ENDBRANCH  11  25
TORSDOF 5
ENDMDL
MODEL 6
REMARK VINA RESULT:      -8.6      3.242      5.372
REMARK  5 active torsions:
REMARK  status: ('A' for Active; 'I' for Inactive)
REMARK    1  A    between atoms: C7_11  and  C8_12 
REMARK    2  A    between atoms: N3_22  and  C17_23 
REMARK    3  A    between atoms: C17_23  and  C18_24 
REMARK    4  A    between atoms: C18_24  and  C19_25 
REMARK    5  A    between atoms: C19_25  and  N4_26 
ROOT
HETATM    1  O1  UNL     1      20.837   5.762  50.468  1.00  0.00    -0.271 OA
HETATM    2  C1  UNL     1      20.777   4.640  51.067  1.00  0.00     0.248 C 
HETATM    3  C2  UNL     1      19.377   4.234  51.359  1.00  0.00     0.279 C 
HETATM    4  O2  UNL     1      19.327   3.098  52.199  1.00  0.00    -0.340 OA
HETATM    5  C3  UNL     1      20.467   2.366  52.532  1.00  0.00     0.098 A 
HETATM    6  C4  UNL     1      20.235   1.229  53.275  1.00  0.00     0.071 A 
HETATM    7  C5  UNL     1      21.301   0.437  53.653  1.00  0.00     0.073 A 
HETATM    8  N1  UNL     1      21.106  -0.674  54.366  1.00  0.00    -0.241 NA
HETATM    9  C6  UNL     1      22.214  -1.396  54.687  1.00  0.00     0.234 A 
HETATM   10  N2  UNL     1      23.459  -1.041  54.325  1.00  0.00    -0.240 NA
HETATM   11  C7  UNL     1      23.671   0.076  53.608  1.00  0.00     0.081 A 
HETATM   12  C14 UNL     1      22.578   0.824  53.267  1.00  0.00     0.025 A 
HETATM   13  C15 UNL     1      22.819   1.960  52.523  1.00  0.00     0.049 A 
HETATM   14  C16 UNL     1      21.753   2.723  52.160  1.00  0.00     0.071 A 
HETATM   15  N3  UNL     1      21.978   3.903  51.394  1.00  0.00    -0.314 N 
ENDROOT
BRANCH  15  16
HETATM   16  C17 UNL     1      23.267   4.382  50.948  1.00  0.00     0.134 C 
BRANCH  16  17
HETATM   17  C18 UNL     1      23.683   3.908  49.622  1.00  0.00     0.040 C 
BRANCH  17  18
HETATM   18  C19 UNL     1      23.553   4.979  48.580  1.00  0.00     0.118 C 
BRANCH  18  19
HETATM   19  N4  UNL     1      24.156   6.208  48.734  1.00  0.00    -0.408 N 
HETATM   20  C20 UNL     1      25.534   6.368  48.945  1.00  0.00     0.143 C 
HETATM   21  C21 UNL     1      25.804   7.256  50.155  1.00  0.00     0.187 C 
HETATM   22  O3  UNL     1      25.012   8.399  50.131  1.00  0.00    -0.388 OA
HETATM   23  C22 UNL     1      23.658   8.070  50.110  1.00  0.00     0.187 C 
HETATM   24  C23 UNL     1      23.399   7.398  48.777  1.00  0.00     0.143 C 
ENDBRANCH  18  19
ENDBRANCH  17  18
ENDBRANCH  16  17
ENDBRANCH  15  16
BRANCH  11  25
HETATM   25  C8  UNL     1      25.072   0.306  53.303  1.00  0.00    -0.004 A 
HETATM   26  C9  UNL     1      25.682   0.684  52.127  1.00  0.00     0.014 A 
HETATM   27  C10 UNL     1      27.023   0.836  51.992  1.00  0.00     0.004 A 
HETATM   28  C11 UNL     1      27.843   0.606  53.075  1.00  0.00     0.042 A 
HETATM   29  C12 UNL     1      27.344   0.224  54.299  1.00  0.00     0.117 A 
HETATM   30  F1  UNL     1      28.120  -0.008  55.373  1.00  0.00    -0.206 F 
HETATM   31  C13 UNL     1      25.958   0.087  54.366  1.00  0.00     0.056 A 
ENDBRANCH  11  25
TORSDOF 5
ENDMDL
MODEL 7
REMARK VINA RESULT:      -8.6      2.707      5.260
REMARK  5 active torsions:
REMARK  status: ('A' for Active; 'I' for Inactive)
REMARK    1  A    between atoms: C7_11  and  C8_12 
REMARK    2  A    between atoms: N3_22  and  C17_23 
REMARK    3  A    between atoms: C17_23  and  C18_24 
REMARK    4  A    between atoms: C18_24  and  C19_25 
REMARK    5  A    between atoms: C19_25  and  N4_26 
ROOT
HETATM    1  O1  UNL     1      19.399  -0.460  53.407  1.00  0.00    -0.271 OA
HETATM    2  C1  UNL     1      20.668  -0.500  53.508  1.00  0.00     0.248 C 
HETATM    3  C2  UNL     1      21.125  -1.588  54.413  1.00  0.00     0.279 C 
HETATM    4  O2  UNL     1      22.510  -1.497  54.680  1.00  0.00    -0.340 OA
HETATM    5  C3  UNL     1      23.342  -0.602  54.008  1.00  0.00     0.098 A 
HETATM    6  C4  UNL     1      24.683  -0.710  54.311  1.00  0.00     0.071 A 
HETATM    7  C5  UNL     1      25.586   0.133  53.696  1.00  0.00     0.073 A 
HETATM    8  N1  UNL     1      26.891   0.047  53.964  1.00  0.00    -0.241 NA
HETATM    9  C6  UNL     1      27.708   0.913  53.306  1.00  0.00     0.234 A 
HETATM   10  N2  UNL     1      27.263   1.825  52.423  1.00  0.00    -0.240 NA
HETATM   11  C7  UNL     1      25.951   1.924  52.144  1.00  0.00     0.081 A 
HETATM   12  C14 UNL     1      25.103   1.067  52.789  1.00  0.00     0.025 A 
HETATM   13  C15 UNL     1      23.764   1.181  52.479  1.00  0.00     0.049 A 
HETATM   14  C16 UNL     1      22.892   0.338  53.096  1.00  0.00     0.071 A 
HETATM   15  N3  UNL     1      21.504   0.439  52.794  1.00  0.00    -0.314 N 
ENDROOT
BRANCH  15  16
HETATM   16  C17 UNL     1      20.912   1.377  51.866  1.00  0.00     0.134 C 
BRANCH  16  17
HETATM   17  C18 UNL     1      20.632   0.838  50.529  1.00  0.00     0.040 C 
BRANCH  17  18
HETATM   18  C19 UNL     1      21.657   1.272  49.525  1.00  0.00     0.118 C 
BRANCH  18  19
HETATM   19  N4  UNL     1      21.313   2.037  48.432  1.00  0.00    -0.408 N 
HETATM   20  C20 UNL     1      22.244   2.491  47.486  1.00  0.00     0.143 C 
HETATM   21  C21 UNL     1      22.111   3.994  47.262  1.00  0.00     0.187 C 
HETATM   22  O3  UNL     1      20.781   4.364  47.095  1.00  0.00    -0.388 OA
HETATM   23  C22 UNL     1      20.018   4.008  48.206  1.00  0.00     0.187 C 
HETATM   24  C23 UNL     1      19.991   2.494  48.240  1.00  0.00     0.143 C 
ENDBRANCH  18  19
ENDBRANCH  17  18
ENDBRANCH  16  17
ENDBRANCH  15  16
BRANCH  11  25
HETATM   25  C8  UNL     1      25.648   2.958  51.170  1.00  0.00    -0.004 A 
HETATM   26  C9  UNL     1      24.493   3.676  50.958  1.00  0.00     0.014 A 
HETATM   27  C10 UNL     1      24.355   4.604  49.979  1.00  0.00     0.004 A 
HETATM   28  C11 UNL     1      25.414   4.862  49.136  1.00  0.00     0.042 A 
HETATM   29  C12 UNL     1      26.617   4.205  49.255  1.00  0.00     0.117 A 
HETATM   30  F1  UNL     1      27.667   4.435  48.448  1.00  0.00    -0.206 F 
HETATM   31  C13 UNL     1      26.688   3.265  50.282  1.00  0.00     0.056 A 
ENDBRANCH  11  25
TORSDOF 5
ENDMDL
MODEL 8
REMARK VINA RESULT:      -8.5      3.037      5.486
REMARK  5 active torsions:
REMARK  status: ('A' for Active; 'I' for Inactive)
REMARK    1  A    between atoms: C7_11  and  C8_12 
REMARK    2  A    between atoms: N3_22  and  C17_23 
REMARK    3  A    between atoms: C17_23  and  C18_24 
REMARK    4  A    between atoms: C18_24  and  C19_25 
REMARK    5  A    between atoms: C19_25  and  N4_26 
ROOT
HETATM    1  O1  UNL     1      18.242   0.932  50.659  1.00  0.00    -0.271 OA
HETATM    2  C1  UNL     1      19.002   0.364  51.509  1.00  0.00     0.248 C 
HETATM    3  C2  UNL     1      18.263  -0.603  52.363  1.00  0.00     0.279 C 
HETATM    4  O2  UNL     1      19.062  -1.073  53.430  1.00  0.00    -0.340 OA
HETATM    5  C3  UNL     1      20.425  -0.790  53.523  1.00  0.00     0.098 A 
HETATM    6  C4  UNL     1      21.081  -1.407  54.567  1.00  0.00     0.071 A 
HETATM    7  C5  UNL     1      22.433  -1.188  54.742  1.00  0.00     0.073 A 
HETATM    8  N1  UNL     1      23.096  -1.778  55.738  1.00  0.00    -0.241 NA
HETATM    9  C6  UNL     1      24.426  -1.510  55.829  1.00  0.00     0.234 A 
HETATM   10  N2  UNL     1      25.078  -0.697  54.978  1.00  0.00    -0.240 NA
HETATM   11  C7  UNL     1      24.423  -0.095  53.970  1.00  0.00     0.081 A 
HETATM   12  C14 UNL     1      23.084  -0.345  53.850  1.00  0.00     0.025 A 
HETATM   13  C15 UNL     1      22.436   0.276  52.803  1.00  0.00     0.049 A 
HETATM   14  C16 UNL     1      21.103   0.044  52.649  1.00  0.00     0.071 A 
HETATM   15  N3  UNL     1      20.412   0.677  51.577  1.00  0.00    -0.314 N 
ENDROOT
BRANCH  15  16
HETATM   16  C17 UNL     1      21.005   1.567  50.604  1.00  0.00     0.134 C 
BRANCH  16  17
HETATM   17  C18 UNL     1      21.533   0.911  49.401  1.00  0.00     0.040 C 
BRANCH  17  18
HETATM   18  C19 UNL     1      21.645   1.865  48.248  1.00  0.00     0.118 C 
BRANCH  18  19
HETATM   19  N4  UNL     1      22.237   3.100  48.393  1.00  0.00    -0.408 N 
HETATM   20  C20 UNL     1      23.549   3.276  48.860  1.00  0.00     0.143 C 
HETATM   21  C21 UNL     1      23.595   4.285  50.002  1.00  0.00     0.187 C 
HETATM   22  O3  UNL     1      22.854   5.423  49.701  1.00  0.00    -0.388 OA
HETATM   23  C22 UNL     1      21.523   5.100  49.442  1.00  0.00     0.187 C 
HETATM   24  C23 UNL     1      21.518   4.292  48.160  1.00  0.00     0.143 C 
ENDBRANCH  18  19
ENDBRANCH  17  18
ENDBRANCH  16  17
ENDBRANCH  15  16
BRANCH  11  25
HETATM   25  C8  UNL     1      25.278   0.744  53.149  1.00  0.00    -0.004 A 
HETATM   26  C9  UNL     1      25.240   1.011  51.799  1.00  0.00     0.014 A 
HETATM   27  C10 UNL     1      26.136   1.808  51.165  1.00  0.00     0.004 A 
HETATM   28  C11 UNL     1      27.150   2.395  51.890  1.00  0.00     0.042 A 
HETATM   29  C12 UNL     1      27.286   2.200  53.245  1.00  0.00     0.117 A 
HETATM   30  F1  UNL     1      28.265   2.760  53.977  1.00  0.00    -0.206 F 
HETATM   31  C13 UNL     1      26.331   1.370  53.830  1.00  0.00     0.056 A 
ENDBRANCH  11  25
TORSDOF 5
ENDMDL
MODEL 9
REMARK VINA RESULT:      -8.3      3.020      5.918
REMARK  5 active torsions:
REMARK  status: ('A' for Active; 'I' for Inactive)
REMARK    1  A    between atoms: C7_11  and  C8_12 
REMARK    2  A    between atoms: N3_22  and  C17_23 
REMARK    3  A    between atoms: C17_23  and  C18_24 
REMARK    4  A    between atoms: C18_24  and  C19_25 
REMARK    5  A    between atoms: C19_25  and  N4_26 
ROOT
HETATM    1  O1  UNL     1      19.459  -0.547  53.436  1.00  0.00    -0.271 OA
HETATM    2  C1  UNL     1      20.729  -0.558  53.539  1.00  0.00     0.248 C 
HETATM    3  C2  UNL     1      21.208  -1.618  54.464  1.00  0.00     0.279 C 
HETATM    4  O2  UNL     1      22.590  -1.492  54.731  1.00  0.00    -0.340 OA
HETATM    5  C3  UNL     1      23.404  -0.592  54.043  1.00  0.00     0.098 A 
HETATM    6  C4  UNL     1      24.746  -0.665  54.349  1.00  0.00     0.071 A 
HETATM    7  C5  UNL     1      25.632   0.186  53.719  1.00  0.00     0.073 A 
HETATM    8  N1  UNL     1      26.938   0.133  53.989  1.00  0.00    -0.241 NA
HETATM    9  C6  UNL     1      27.736   1.004  53.315  1.00  0.00     0.234 A 
HETATM   10  N2  UNL     1      27.272   1.890  52.415  1.00  0.00    -0.240 NA
HETATM   11  C7  UNL     1      25.960   1.955  52.134  1.00  0.00     0.081 A 
HETATM   12  C14 UNL     1      25.130   1.092  52.793  1.00  0.00     0.025 A 
HETATM   13  C15 UNL     1      23.789   1.171  52.480  1.00  0.00     0.049 A 
HETATM   14  C16 UNL     1      22.934   0.321  53.113  1.00  0.00     0.071 A 
HETATM   15  N3  UNL     1      21.544   0.386  52.808  1.00  0.00    -0.314 N 
ENDROOT
BRANCH  15  16
HETATM   16  C17 UNL     1      20.934   1.294  51.862  1.00  0.00     0.134 C 
BRANCH  16  17
HETATM   17  C18 UNL     1      20.838   0.788  50.487  1.00  0.00     0.040 C 
BRANCH  17  18
HETATM   18  C19 UNL     1      20.065   1.720  49.602  1.00  0.00     0.118 C 
BRANCH  18  19
HETATM   19  N4  UNL     1      18.763   2.067  49.887  1.00  0.00    -0.408 N 
HETATM   20  C20 UNL     1      18.371   3.369  50.236  1.00  0.00     0.143 C 
HETATM   21  C21 UNL     1      17.547   3.370  51.519  1.00  0.00     0.187 C 
HETATM   22  O3  UNL     1      16.569   2.381  51.491  1.00  0.00    -0.388 OA
HETATM   23  C22 UNL     1      17.136   1.119  51.324  1.00  0.00     0.187 C 
HETATM   24  C23 UNL     1      17.737   1.099  49.933  1.00  0.00     0.143 C 
ENDBRANCH  18  19
ENDBRANCH  17  18
ENDBRANCH  16  17
ENDBRANCH  15  16
BRANCH  11  25
HETATM   25  C8  UNL     1      25.635   2.964  51.140  1.00  0.00    -0.004 A 
HETATM   26  C9  UNL     1      24.451   3.619  50.884  1.00  0.00     0.014 A 
HETATM   27  C10 UNL     1      24.297   4.531  49.892  1.00  0.00     0.004 A 
HETATM   28  C11 UNL     1      25.369   4.836  49.081  1.00  0.00     0.042 A 
HETATM   29  C12 UNL     1      26.599   4.244  49.245  1.00  0.00     0.117 A 
HETATM   30  F1  UNL     1      27.662   4.522  48.469  1.00  0.00    -0.206 F 
HETATM   31  C13 UNL     1      26.686   3.317  50.283  1.00  0.00     0.056 A 
ENDBRANCH  11  25
TORSDOF 5
ENDMDL
