MODEL 1
REMARK VINA RESULT:      -7.8      0.000      0.000
REMARK  3 active torsions:
REMARK  status: ('A' for Active; 'I' for Inactive)
REMARK    1  A    between atoms: C2_2  and  C3_4 
REMARK    2  A    between atoms: N4_17  and  C13_18 
REMARK    3  A    between atoms: C13_18  and  C14_19 
ROOT
HETATM    1  C3  UNL     1      24.622   3.420  50.440  1.00  0.00     0.224 C 
HETATM    2  N1  UNL     1      25.621   4.230  49.892  1.00  0.00    -0.348 N 
HETATM    3  C4  UNL     1      26.621   4.955  49.192  1.00  0.00     0.147 A 
HETATM    4  N2  UNL     1      27.883   4.578  48.938  1.00  0.00    -0.223 NA
HETATM    5  C5  UNL     1      28.655   5.444  48.219  1.00  0.00     0.235 A 
HETATM    6  N3  UNL     1      28.252   6.609  47.765  1.00  0.00    -0.245 NA
HETATM    7  C6  UNL     1      27.049   7.125  47.926  1.00  0.00     0.054 A 
HETATM    8  C7  UNL     1      26.340   8.352  47.603  1.00  0.00     0.072 C 
HETATM    9  C8  UNL     1      26.358   6.251  48.621  1.00  0.00     0.087 A 
HETATM   10  C9  UNL     1      25.132   6.107  49.210  1.00  0.00    -0.061 C 
HETATM   11  C10 UNL     1      24.135   5.970  49.697  1.00  0.00    -0.099 C 
HETATM   12  C11 UNL     1      22.885   5.773  50.323  1.00  0.00     0.113 C 
HETATM   13  C12 UNL     1      23.128   4.996  51.641  1.00  0.00     0.131 C 
HETATM   14  N4  UNL     1      23.889   3.846  51.559  1.00  0.00    -0.383 N 
HETATM   15  H4  UNL     1      25.876   4.827  50.724  1.00  0.00     0.163 HD
ENDROOT
BRANCH  14  16
HETATM   16  C13 UNL     1      24.139   3.134  52.785  1.00  0.00     0.158 C 
BRANCH  16  17
HETATM   17  C14 UNL     1      23.407   1.844  52.859  1.00  0.00    -0.041 A 
HETATM   18  C15 UNL     1      22.046   1.694  52.693  1.00  0.00     0.009 A 
HETATM   19  C16 UNL     1      21.456   0.451  52.771  1.00  0.00     0.001 A 
HETATM   20  C17 UNL     1      22.194  -0.691  53.018  1.00  0.00     0.000 A 
HETATM   21  C18 UNL     1      23.565  -0.586  53.190  1.00  0.00     0.001 A 
HETATM   22  C19 UNL     1      24.141   0.677  53.107  1.00  0.00     0.009 A 
ENDBRANCH  16  17
ENDBRANCH  14  16
BRANCH   1  23
HETATM   23  C2  UNL     1      23.589   3.104  49.346  1.00  0.00     0.019 C 
HETATM   24  C1  UNL     1      22.706   2.095  49.324  1.00  0.00     0.201 C 
HETATM   25 CL1  UNL     1      22.500   3.012  47.958  1.00  0.00    -0.224 Cl
ENDBRANCH   1  23
TORSDOF 3
ENDMDL
MODEL 2
REMARK VINA RESULT:      -7.7      1.678      2.426
REMARK  3 active torsions:
REMARK  status: ('A' for Active; 'I' for Inactive)
REMARK    1  A    between atoms: C2_2  and  C3_4 
REMARK    2  A    between atoms: N4_17  and  C13_18 
REMARK    3  A    between atoms: C13_18  and  C14_19 
ROOT
HETATM    1  C3  UNL     1      24.053   2.482  50.503  1.00  0.00     0.224 C 
HETATM    2  N1  UNL     1      25.043   3.395  50.126  1.00  0.00    -0.348 N 
HETATM    3  C4  UNL     1      26.013   4.276  49.580  1.00  0.00     0.147 A 
HETATM    4  N2  UNL     1      27.213   3.962  49.069  1.00  0.00    -0.223 NA
HETATM    5  C5  UNL     1      27.964   4.990  48.577  1.00  0.00     0.235 A 
HETATM    6  N3  UNL     1      27.598   6.251  48.570  1.00  0.00    -0.245 NA
HETATM    7  C6  UNL     1      26.457   6.725  49.032  1.00  0.00     0.054 A 
HETATM    8  C7  UNL     1      25.804   8.012  49.204  1.00  0.00     0.072 C 
HETATM    9  C8  UNL     1      25.782   5.694  49.489  1.00  0.00     0.087 A 
HETATM   10  C9  UNL     1      24.617   5.406  50.143  1.00  0.00    -0.061 C 
HETATM   11  C10 UNL     1      23.668   5.149  50.677  1.00  0.00    -0.099 C 
HETATM   12  C11 UNL     1      22.479   4.800  51.352  1.00  0.00     0.113 C 
HETATM   13  C12 UNL     1      22.803   3.629  52.314  1.00  0.00     0.131 C 
HETATM   14  N4  UNL     1      23.470   2.544  51.778  1.00  0.00    -0.383 N 
HETATM   15  H4  UNL     1      25.423   3.680  51.068  1.00  0.00     0.163 HD
ENDROOT
BRANCH  14  16
HETATM   16  C13 UNL     1      23.797   1.465  52.674  1.00  0.00     0.158 C 
BRANCH  16  17
HETATM   17  C14 UNL     1      25.259   1.317  52.883  1.00  0.00    -0.041 A 
HETATM   18  C15 UNL     1      26.078   2.265  53.461  1.00  0.00     0.009 A 
HETATM   19  C16 UNL     1      27.427   2.033  53.621  1.00  0.00     0.001 A 
HETATM   20  C17 UNL     1      28.016   0.851  53.213  1.00  0.00     0.000 A 
HETATM   21  C18 UNL     1      27.230  -0.129  52.629  1.00  0.00     0.001 A 
HETATM   22  C19 UNL     1      25.871   0.125  52.476  1.00  0.00     0.009 A 
ENDBRANCH  16  17
ENDBRANCH  14  16
BRANCH   1  23
HETATM   23  C2  UNL     1      22.893   2.572  49.497  1.00  0.00     0.019 C 
HETATM   24  C1  UNL     1      21.963   1.641  49.239  1.00  0.00     0.201 C 
HETATM   25 CL1  UNL     1      21.657   2.974  48.301  1.00  0.00    -0.224 Cl
ENDBRANCH   1  23
TORSDOF 3
ENDMDL
MODEL 3
REMARK VINA RESULT:      -7.5      3.746      4.865
REMARK  3 active torsions:
REMARK  status: ('A' for Active; 'I' for Inactive)
REMARK    1  A    between atoms: C2_2  and  C3_4 
REMARK    2  A    between atoms: N4_17  and  C13_18 
REMARK    3  A    between atoms: C13_18  and  C14_19 
ROOT
HETATM    1  C3  UNL     1      22.584   1.647  51.489  1.00  0.00     0.224 C 
HETATM    2  N1  UNL     1      23.745   1.150  52.089  1.00  0.00    -0.348 N 
HETATM    3  C4  UNL     1      24.969   0.588  52.540  1.00  0.00     0.147 A 
HETATM    4  N2  UNL     1      25.256  -0.707  52.734  1.00  0.00    -0.223 NA
HETATM    5  C5  UNL     1      26.521  -1.005  53.151  1.00  0.00     0.235 A 
HETATM    6  N3  UNL     1      27.466  -0.120  53.374  1.00  0.00    -0.245 NA
HETATM    7  C6  UNL     1      27.348   1.186  53.231  1.00  0.00     0.054 A 
HETATM    8  C7  UNL     1      28.153   2.379  53.434  1.00  0.00     0.072 C 
HETATM    9  C8  UNL     1      26.117   1.408  52.831  1.00  0.00     0.087 A 
HETATM   10  C9  UNL     1      25.272   2.446  52.554  1.00  0.00    -0.061 C 
HETATM   11  C10 UNL     1      24.565   3.282  52.323  1.00  0.00    -0.099 C 
HETATM   12  C11 UNL     1      23.653   4.319  52.027  1.00  0.00     0.113 C 
HETATM   13  C12 UNL     1      22.253   3.878  52.524  1.00  0.00     0.131 C 
HETATM   14  N4  UNL     1      21.813   2.629  52.129  1.00  0.00    -0.383 N 
HETATM   15  H4  UNL     1      23.548   1.347  53.106  1.00  0.00     0.163 HD
ENDROOT
BRANCH  14  16
HETATM   16  C13 UNL     1      20.523   2.205  52.609  1.00  0.00     0.158 C 
BRANCH  16  17
HETATM   17  C14 UNL     1      20.560   0.860  53.237  1.00  0.00    -0.041 A 
HETATM   18  C15 UNL     1      21.469   0.455  54.193  1.00  0.00     0.009 A 
HETATM   19  C16 UNL     1      21.419  -0.815  54.726  1.00  0.00     0.001 A 
HETATM   20  C17 UNL     1      20.465  -1.733  54.330  1.00  0.00     0.000 A 
HETATM   21  C18 UNL     1      19.531  -1.368  53.373  1.00  0.00     0.001 A 
HETATM   22  C19 UNL     1      19.599  -0.082  52.848  1.00  0.00     0.009 A 
ENDBRANCH  16  17
ENDBRANCH  14  16
BRANCH   1  23
HETATM   23  C2  UNL     1      22.950   2.220  50.110  1.00  0.00     0.019 C 
HETATM   24  C1  UNL     1      22.249   2.115  48.971  1.00  0.00     0.201 C 
HETATM   25 CL1  UNL     1      23.611   3.014  48.678  1.00  0.00    -0.224 Cl
ENDBRANCH   1  23
TORSDOF 3
ENDMDL
MODEL 4
REMARK VINA RESULT:      -7.5      2.184      7.125
REMARK  3 active torsions:
REMARK  status: ('A' for Active; 'I' for Inactive)
REMARK    1  A    between atoms: C2_2  and  C3_4 
REMARK    2  A    between atoms: N4_17  and  C13_18 
REMARK    3  A    between atoms: C13_18  and  C14_19 
ROOT
HETATM    1  C3  UNL     1      24.968   3.173  51.572  1.00  0.00     0.224 C 
HETATM    2  N1  UNL     1      24.895   2.019  52.359  1.00  0.00    -0.348 N 
HETATM    3  C4  UNL     1      24.784   0.954  53.290  1.00  0.00     0.147 A 
HETATM    4  N2  UNL     1      25.662   0.597  54.240  1.00  0.00    -0.223 NA
HETATM    5  C5  UNL     1      25.318  -0.456  55.037  1.00  0.00     0.235 A 
HETATM    6  N3  UNL     1      24.199  -1.137  54.939  1.00  0.00    -0.245 NA
HETATM    7  C6  UNL     1      23.236  -0.916  54.066  1.00  0.00     0.054 A 
HETATM    8  C7  UNL     1      21.957  -1.495  53.688  1.00  0.00     0.072 C 
HETATM    9  C8  UNL     1      23.624   0.102  53.332  1.00  0.00     0.087 A 
HETATM   10  C9  UNL     1      23.224   0.827  52.244  1.00  0.00    -0.061 C 
HETATM   11  C10 UNL     1      22.915   1.433  51.356  1.00  0.00    -0.099 C 
HETATM   12  C11 UNL     1      22.547   2.211  50.237  1.00  0.00     0.113 C 
HETATM   13  C12 UNL     1      23.838   2.555  49.451  1.00  0.00     0.131 C 
HETATM   14  N4  UNL     1      24.886   3.092  50.174  1.00  0.00    -0.383 N 
HETATM   15  H4  UNL     1      25.210   1.285  51.670  1.00  0.00     0.163 HD
ENDROOT
BRANCH  14  16
HETATM   16  C13 UNL     1      26.097   3.389  49.453  1.00  0.00     0.158 C 
BRANCH  16  17
HETATM   17  C14 UNL     1      26.146   4.793  48.970  1.00  0.00    -0.041 A 
HETATM   18  C15 UNL     1      25.051   5.618  48.817  1.00  0.00     0.009 A 
HETATM   19  C16 UNL     1      25.196   6.913  48.368  1.00  0.00     0.001 A 
HETATM   20  C17 UNL     1      26.434   7.439  48.053  1.00  0.00     0.000 A 
HETATM   21  C18 UNL     1      27.562   6.644  48.192  1.00  0.00     0.001 A 
HETATM   22  C19 UNL     1      27.393   5.341  48.647  1.00  0.00     0.009 A 
ENDBRANCH  16  17
ENDBRANCH  14  16
BRANCH   1  23
HETATM   23  C2  UNL     1      23.855   4.139  52.011  1.00  0.00     0.019 C 
HETATM   24  C1  UNL     1      23.967   5.450  52.269  1.00  0.00     0.201 C 
HETATM   25 CL1  UNL     1      22.384   5.001  52.471  1.00  0.00    -0.224 Cl
ENDBRANCH   1  23
TORSDOF 3
ENDMDL
MODEL 5
REMARK VINA RESULT:      -7.4      3.918      6.711
REMARK  3 active torsions:
REMARK  status: ('A' for Active; 'I' for Inactive)
REMARK    1  A    between atoms: C2_2  and  C3_4 
REMARK    2  A    between atoms: N4_17  and  C13_18 
REMARK    3  A    between atoms: C13_18  and  C14_19 
ROOT
HETATM    1  C3  UNL     1      22.964   1.756  50.796  1.00  0.00     0.224 C 
HETATM    2  N1  UNL     1      23.937   1.066  51.526  1.00  0.00    -0.348 N 
HETATM    3  C4  UNL     1      24.984   0.522  52.314  1.00  0.00     0.147 A 
HETATM    4  N2  UNL     1      26.291   0.464  52.017  1.00  0.00    -0.223 NA
HETATM    5  C5  UNL     1      27.115  -0.089  52.954  1.00  0.00     0.235 A 
HETATM    6  N3  UNL     1      26.721  -0.565  54.113  1.00  0.00    -0.245 NA
HETATM    7  C6  UNL     1      25.479  -0.584  54.556  1.00  0.00     0.054 A 
HETATM    8  C7  UNL     1      24.746  -1.061  55.717  1.00  0.00     0.072 C 
HETATM    9  C8  UNL     1      24.739  -0.042  53.616  1.00  0.00     0.087 A 
HETATM   10  C9  UNL     1      23.428   0.212  53.325  1.00  0.00    -0.061 C 
HETATM   11  C10 UNL     1      22.360   0.430  53.069  1.00  0.00    -0.099 C 
HETATM   12  C11 UNL     1      21.022   0.712  52.721  1.00  0.00     0.113 C 
HETATM   13  C12 UNL     1      20.868   0.489  51.196  1.00  0.00     0.131 C 
HETATM   14  N4  UNL     1      21.791   1.109  50.376  1.00  0.00    -0.383 N 
HETATM   15  H4  UNL     1      23.739   0.072  51.235  1.00  0.00     0.163 HD
ENDROOT
BRANCH  14  16
HETATM   16  C13 UNL     1      21.668   0.884  48.959  1.00  0.00     0.158 C 
BRANCH  16  17
HETATM   17  C14 UNL     1      21.410   2.135  48.201  1.00  0.00    -0.041 A 
HETATM   18  C15 UNL     1      22.262   2.686  47.266  1.00  0.00     0.009 A 
HETATM   19  C16 UNL     1      21.932   3.849  46.605  1.00  0.00     0.001 A 
HETATM   20  C17 UNL     1      20.743   4.511  46.847  1.00  0.00     0.000 A 
HETATM   21  C18 UNL     1      19.858   3.992  47.777  1.00  0.00     0.001 A 
HETATM   22  C19 UNL     1      20.210   2.817  48.433  1.00  0.00     0.009 A 
ENDBRANCH  16  17
ENDBRANCH  14  16
BRANCH   1  23
HETATM   23  C2  UNL     1      22.510   2.977  51.613  1.00  0.00     0.019 C 
HETATM   24  C1  UNL     1      23.286   3.900  52.201  1.00  0.00     0.201 C 
HETATM   25 CL1  UNL     1      21.698   4.294  52.465  1.00  0.00    -0.224 Cl
ENDBRANCH   1  23
TORSDOF 3
ENDMDL
MODEL 6
REMARK VINA RESULT:      -7.3      5.432      8.668
REMARK  3 active torsions:
REMARK  status: ('A' for Active; 'I' for Inactive)
REMARK    1  A    between atoms: C2_2  and  C3_4 
REMARK    2  A    between atoms: N4_17  and  C13_18 
REMARK    3  A    between atoms: C13_18  and  C14_19 
ROOT
HETATM    1  C3  UNL     1      30.773   8.380  46.799  1.00  0.00     0.224 C 
HETATM    2  N1  UNL     1      31.671   7.308  46.831  1.00  0.00    -0.348 N 
HETATM    3  C4  UNL     1      32.679   6.312  46.754  1.00  0.00     0.147 A 
HETATM    4  N2  UNL     1      32.914   5.456  45.748  1.00  0.00    -0.223 NA
HETATM    5  C5  UNL     1      33.966   4.600  45.896  1.00  0.00     0.235 A 
HETATM    6  N3  UNL     1      34.756   4.555  46.945  1.00  0.00    -0.245 NA
HETATM    7  C6  UNL     1      34.662   5.323  48.013  1.00  0.00     0.054 A 
HETATM    8  C7  UNL     1      35.321   5.481  49.299  1.00  0.00     0.072 C 
HETATM    9  C8  UNL     1      33.638   6.120  47.812  1.00  0.00     0.087 A 
HETATM   10  C9  UNL     1      32.913   7.085  48.454  1.00  0.00    -0.061 C 
HETATM   11  C10 UNL     1      32.309   7.878  48.962  1.00  0.00    -0.099 C 
HETATM   12  C11 UNL     1      31.529   8.878  49.583  1.00  0.00     0.113 C 
HETATM   13  C12 UNL     1      30.055   8.665  49.157  1.00  0.00     0.131 C 
HETATM   14  N4  UNL     1      29.806   8.534  47.804  1.00  0.00    -0.383 N 
HETATM   15  H4  UNL     1      31.132   6.612  47.412  1.00  0.00     0.163 HD
ENDROOT
BRANCH  14  16
HETATM   16  C13 UNL     1      28.441   8.311  47.405  1.00  0.00     0.158 C 
BRANCH  16  17
HETATM   17  C14 UNL     1      27.885   7.045  47.947  1.00  0.00    -0.041 A 
HETATM   18  C15 UNL     1      28.578   5.858  48.058  1.00  0.00     0.009 A 
HETATM   19  C16 UNL     1      27.979   4.734  48.583  1.00  0.00     0.001 A 
HETATM   20  C17 UNL     1      26.667   4.744  49.017  1.00  0.00     0.000 A 
HETATM   21  C18 UNL     1      25.933   5.917  48.924  1.00  0.00     0.001 A 
HETATM   22  C19 UNL     1      26.557   7.040  48.392  1.00  0.00     0.009 A 
ENDBRANCH  16  17
ENDBRANCH  14  16
BRANCH   1  23
HETATM   23  C2  UNL     1      31.575   9.692  46.770  1.00  0.00     0.019 C 
HETATM   24  C1  UNL     1      31.136  10.909  46.418  1.00  0.00     0.201 C 
HETATM   25 CL1  UNL     1      32.728  11.026  46.867  1.00  0.00    -0.224 Cl
ENDBRANCH   1  23
TORSDOF 3
ENDMDL
MODEL 7
REMARK VINA RESULT:      -7.3      3.758      5.342
REMARK  3 active torsions:
REMARK  status: ('A' for Active; 'I' for Inactive)
REMARK    1  A    between atoms: C2_2  and  C3_4 
REMARK    2  A    between atoms: N4_17  and  C13_18 
REMARK    3  A    between atoms: C13_18  and  C14_19 
ROOT
HETATM    1  C3  UNL     1      22.153   1.727  51.606  1.00  0.00     0.224 C 
HETATM    2  N1  UNL     1      23.293   1.253  52.262  1.00  0.00    -0.348 N 
HETATM    3  C4  UNL     1      24.484   0.682  52.782  1.00  0.00     0.147 A 
HETATM    4  N2  UNL     1      24.673  -0.575  53.212  1.00  0.00    -0.223 NA
HETATM    5  C5  UNL     1      25.925  -0.898  53.648  1.00  0.00     0.235 A 
HETATM    6  N3  UNL     1      26.947  -0.072  53.677  1.00  0.00    -0.245 NA
HETATM    7  C6  UNL     1      26.929   1.189  53.292  1.00  0.00     0.054 A 
HETATM    8  C7  UNL     1      27.835   2.325  53.245  1.00  0.00     0.072 C 
HETATM    9  C8  UNL     1      25.705   1.438  52.886  1.00  0.00     0.087 A 
HETATM   10  C9  UNL     1      24.936   2.476  52.437  1.00  0.00    -0.061 C 
HETATM   11  C10 UNL     1      24.290   3.312  52.068  1.00  0.00    -0.099 C 
HETATM   12  C11 UNL     1      23.454   4.350  51.603  1.00  0.00     0.113 C 
HETATM   13  C12 UNL     1      22.044   4.133  52.206  1.00  0.00     0.131 C 
HETATM   14  N4  UNL     1      21.489   2.876  52.066  1.00  0.00    -0.383 N 
HETATM   15  H4  UNL     1      23.152   1.653  53.227  1.00  0.00     0.163 HD
ENDROOT
BRANCH  14  16
HETATM   16  C13 UNL     1      20.189   2.662  52.648  1.00  0.00     0.158 C 
BRANCH  16  17
HETATM   17  C14 UNL     1      19.321   1.797  51.808  1.00  0.00    -0.041 A 
HETATM   18  C15 UNL     1      19.005   0.483  52.085  1.00  0.00     0.009 A 
HETATM   19  C16 UNL     1      18.182  -0.239  51.248  1.00  0.00     0.001 A 
HETATM   20  C17 UNL     1      17.640   0.316  50.104  1.00  0.00     0.000 A 
HETATM   21  C18 UNL     1      17.931   1.634  49.789  1.00  0.00     0.001 A 
HETATM   22  C19 UNL     1      18.763   2.345  50.646  1.00  0.00     0.009 A 
ENDBRANCH  16  17
ENDBRANCH  14  16
BRANCH   1  23
HETATM   23  C2  UNL     1      22.509   1.999  50.135  1.00  0.00     0.019 C 
HETATM   24  C1  UNL     1      21.918   1.488  49.045  1.00  0.00     0.201 C 
HETATM   25 CL1  UNL     1      23.121   2.522  48.563  1.00  0.00    -0.224 Cl
ENDBRANCH   1  23
TORSDOF 3
ENDMDL
MODEL 8
REMARK VINA RESULT:      -7.2      2.714      6.574
REMARK  3 active torsions:
REMARK  status: ('A' for Active; 'I' for Inactive)
REMARK    1  A    between atoms: C2_2  and  C3_4 
REMARK    2  A    between atoms: N4_17  and  C13_18 
REMARK    3  A    between atoms: C13_18  and  C14_19 
ROOT
HETATM    1  C3  UNL     1      25.014   3.532  51.355  1.00  0.00     0.224 C 
HETATM    2  N1  UNL     1      25.881   2.732  52.106  1.00  0.00    -0.348 N 
HETATM    3  C4  UNL     1      26.773   2.054  52.978  1.00  0.00     0.147 A 
HETATM    4  N2  UNL     1      28.095   2.239  53.107  1.00  0.00    -0.223 NA
HETATM    5  C5  UNL     1      28.739   1.478  54.039  1.00  0.00     0.235 A 
HETATM    6  N3  UNL     1      28.160   0.584  54.808  1.00  0.00    -0.245 NA
HETATM    7  C6  UNL     1      26.876   0.282  54.807  1.00  0.00     0.054 A 
HETATM    8  C7  UNL     1      25.977  -0.647  55.470  1.00  0.00     0.072 C 
HETATM    9  C8  UNL     1      26.314   1.043  53.896  1.00  0.00     0.087 A 
HETATM   10  C9  UNL     1      25.102   1.249  53.297  1.00  0.00    -0.061 C 
HETATM   11  C10 UNL     1      24.119   1.432  52.796  1.00  0.00    -0.099 C 
HETATM   12  C11 UNL     1      22.890   1.681  52.148  1.00  0.00     0.113 C 
HETATM   13  C12 UNL     1      23.191   1.998  50.662  1.00  0.00     0.131 C 
HETATM   14  N4  UNL     1      24.151   2.959  50.408  1.00  0.00    -0.383 N 
HETATM   15  H4  UNL     1      25.974   1.890  51.477  1.00  0.00     0.163 HD
ENDROOT
BRANCH  14  16
HETATM   16  C13 UNL     1      24.453   3.240  49.029  1.00  0.00     0.158 C 
BRANCH  16  17
HETATM   17  C14 UNL     1      25.289   4.456  48.861  1.00  0.00    -0.041 A 
HETATM   18  C15 UNL     1      26.666   4.487  48.931  1.00  0.00     0.009 A 
HETATM   19  C16 UNL     1      27.358   5.666  48.753  1.00  0.00     0.001 A 
HETATM   20  C17 UNL     1      26.709   6.859  48.500  1.00  0.00     0.000 A 
HETATM   21  C18 UNL     1      25.326   6.873  48.420  1.00  0.00     0.001 A 
HETATM   22  C19 UNL     1      24.647   5.673  48.603  1.00  0.00     0.009 A 
ENDBRANCH  16  17
ENDBRANCH  14  16
BRANCH   1  23
HETATM   23  C2  UNL     1      24.123   4.331  52.320  1.00  0.00     0.019 C 
HETATM   24  C1  UNL     1      23.342   5.382  52.029  1.00  0.00     0.201 C 
HETATM   25 CL1  UNL     1      23.182   5.031  53.641  1.00  0.00    -0.224 Cl
ENDBRANCH   1  23
TORSDOF 3
ENDMDL
MODEL 9
REMARK VINA RESULT:      -7.2      4.758      8.774
REMARK  3 active torsions:
REMARK  status: ('A' for Active; 'I' for Inactive)
REMARK    1  A    between atoms: C2_2  and  C3_4 
REMARK    2  A    between atoms: N4_17  and  C13_18 
REMARK    3  A    between atoms: C13_18  and  C14_19 
ROOT
HETATM    1  C3  UNL     1      31.295   6.103  47.560  1.00  0.00     0.224 C 
HETATM    2  N1  UNL     1      29.943   5.845  47.806  1.00  0.00    -0.348 N 
HETATM    3  C4  UNL     1      28.610   5.595  48.224  1.00  0.00     0.147 A 
HETATM    4  N2  UNL     1      28.112   4.466  48.750  1.00  0.00    -0.223 NA
HETATM    5  C5  UNL     1      26.793   4.476  49.100  1.00  0.00     0.235 A 
HETATM    6  N3  UNL     1      25.985   5.503  48.957  1.00  0.00    -0.245 NA
HETATM    7  C6  UNL     1      26.315   6.679  48.460  1.00  0.00     0.054 A 
HETATM    8  C7  UNL     1      25.673   7.943  48.141  1.00  0.00     0.072 C 
HETATM    9  C8  UNL     1      27.588   6.607  48.144  1.00  0.00     0.087 A 
HETATM   10  C9  UNL     1      28.568   7.351  47.549  1.00  0.00    -0.061 C 
HETATM   11  C10 UNL     1      29.384   7.945  47.066  1.00  0.00    -0.099 C 
HETATM   12  C11 UNL     1      30.430   8.673  46.458  1.00  0.00     0.113 C 
HETATM   13  C12 UNL     1      31.292   7.678  45.642  1.00  0.00     0.131 C 
HETATM   14  N4  UNL     1      31.723   6.539  46.296  1.00  0.00    -0.383 N 
HETATM   15  H4  UNL     1      29.595   5.645  46.830  1.00  0.00     0.163 HD
ENDROOT
BRANCH  14  16
HETATM   16  C13 UNL     1      32.503   5.598  45.535  1.00  0.00     0.158 C 
BRANCH  16  17
HETATM   17  C14 UNL     1      32.931   4.426  46.340  1.00  0.00    -0.041 A 
HETATM   18  C15 UNL     1      34.073   4.368  47.112  1.00  0.00     0.009 A 
HETATM   19  C16 UNL     1      34.384   3.236  47.833  1.00  0.00     0.001 A 
HETATM   20  C17 UNL     1      33.575   2.116  47.814  1.00  0.00     0.000 A 
HETATM   21  C18 UNL     1      32.417   2.131  47.052  1.00  0.00     0.001 A 
HETATM   22  C19 UNL     1      32.121   3.284  46.333  1.00  0.00     0.009 A 
ENDBRANCH  16  17
ENDBRANCH  14  16
BRANCH   1  23
HETATM   23  C2  UNL     1      31.785   7.158  48.566  1.00  0.00     0.019 C 
HETATM   24  C1  UNL     1      33.053   7.447  48.893  1.00  0.00     0.201 C 
HETATM   25 CL1  UNL     1      32.043   8.451  49.741  1.00  0.00    -0.224 Cl
ENDBRANCH   1  23
TORSDOF 3
ENDMDL
