MODEL 1
REMARK VINA RESULT:      -8.2      0.000      0.000
REMARK  10 active torsions:
REMARK  status: ('A' for Active; 'I' for Inactive)
REMARK    1  A    between atoms: C2_2  and  N1_3 
REMARK    2  A    between atoms: N1_3  and  C3_4 
REMARK    3  A    between atoms: N1_3  and  C5_7 
REMARK    4  A    between atoms: C3_4  and  C4_5 
REMARK    5  A    between atoms: C4_5  and  N2_6 
REMARK    6  A    between atoms: C5_7  and  C6_8 
REMARK    7  A    between atoms: C6_8  and  C7_9 
REMARK    8  A    between atoms: C7_9  and  C8_11 
REMARK    9  A    between atoms: C13_18  and  N5_19 
REMARK   10  A    between atoms: N5_19  and  C14_20 
ROOT
HETATM    1  C8  UNL     1      21.096   0.675  51.425  1.00  0.00     0.011 A 
HETATM    2  C9  UNL     1      20.055   0.189  52.198  1.00  0.00     0.017 A 
HETATM    3  C10 UNL     1      20.291  -0.458  53.394  1.00  0.00     0.033 A 
HETATM    4  C11 UNL     1      21.568  -0.626  53.828  1.00  0.00     0.072 A 
HETATM    5  N3  UNL     1      21.714  -1.268  55.009  1.00  0.00    -0.241 NA
HETATM    6  C12 UNL     1      22.957  -1.463  55.494  1.00  0.00     0.236 A 
HETATM    7  N4  UNL     1      23.996  -1.015  54.788  1.00  0.00    -0.224 NA
HETATM    8  C13 UNL     1      23.922  -0.373  53.616  1.00  0.00     0.142 A 
HETATM    9  C20 UNL     1      22.663  -0.173  53.124  1.00  0.00     0.040 A 
HETATM   10  C21 UNL     1      22.360   0.459  51.949  1.00  0.00     0.032 A 
ENDROOT
BRANCH   1  11
HETATM   11  C7  UNL     1      20.918   1.379  50.132  1.00  0.00     0.161 C 
HETATM   12  O1  UNL     1      19.733   1.530  49.733  1.00  0.00    -0.292 OA
BRANCH  11  13
HETATM   13  C6  UNL     1      22.080   1.867  49.369  1.00  0.00     0.114 C 
BRANCH  13  14
HETATM   14  C5  UNL     1      22.440   3.277  49.530  1.00  0.00     0.280 C 
BRANCH  14  15
HETATM   15  N1  UNL     1      23.462   3.729  50.382  1.00  0.00     0.090 N 
BRANCH  15  16
HETATM   16  C2  UNL     1      24.800   3.743  49.919  1.00  0.00     0.268 C 
HETATM   17  C1  UNL     1      25.798   2.853  50.596  1.00  0.00     0.037 C 
ENDBRANCH  15  16
BRANCH  15  18
HETATM   18  C3  UNL     1      23.019   5.078  50.777  1.00  0.00     0.291 C 
BRANCH  18  19
HETATM   19  C4  UNL     1      24.112   6.067  50.885  1.00  0.00     0.141 C 
BRANCH  19  20
HETATM   20  N2  UNL     1      24.339   6.650  52.164  1.00  0.00    -0.428 N 
HETATM   21  H10 UNL     1      23.512   6.821  52.758  1.00  0.00     0.149 HD
HETATM   22  H11 UNL     1      25.030   7.428  52.171  1.00  0.00     0.149 HD
ENDBRANCH  19  20
ENDBRANCH  18  19
ENDBRANCH  15  18
ENDBRANCH  14  15
ENDBRANCH  13  14
ENDBRANCH  11  13
ENDBRANCH   1  11
BRANCH   8  23
HETATM   23  N5  UNL     1      25.030   0.081  52.899  1.00  0.00    -0.340 N 
HETATM   24  H19 UNL     1      24.933   0.657  52.051  1.00  0.00     0.167 HD
BRANCH  23  25
HETATM   25  C14 UNL     1      26.419  -0.104  53.121  1.00  0.00     0.035 A 
HETATM   26  C15 UNL     1      27.154  -1.251  52.877  1.00  0.00     0.032 A 
HETATM   27  C16 UNL     1      28.492  -1.422  53.086  1.00  0.00     0.046 A 
HETATM   28  C17 UNL     1      29.192  -0.342  53.593  1.00  0.00     0.138 A 
HETATM   29  F1  UNL     1      30.535  -0.535  53.797  1.00  0.00    -0.204 F 
HETATM   30  C18 UNL     1      28.534   0.836  53.862  1.00  0.00     0.074 A 
HETATM   31 CL1  UNL     1      29.556   2.094  54.498  1.00  0.00    -0.081 Cl
HETATM   32  C19 UNL     1      27.163   0.939  53.623  1.00  0.00     0.056 A 
ENDBRANCH  23  25
ENDBRANCH   8  23
TORSDOF 10
ENDMDL
MODEL 2
REMARK VINA RESULT:      -8.2      3.417      5.882
REMARK  10 active torsions:
REMARK  status: ('A' for Active; 'I' for Inactive)
REMARK    1  A    between atoms: C2_2  and  N1_3 
REMARK    2  A    between atoms: N1_3  and  C3_4 
REMARK    3  A    between atoms: N1_3  and  C5_7 
REMARK    4  A    between atoms: C3_4  and  C4_5 
REMARK    5  A    between atoms: C4_5  and  N2_6 
REMARK    6  A    between atoms: C5_7  and  C6_8 
REMARK    7  A    between atoms: C6_8  and  C7_9 
REMARK    8  A    between atoms: C7_9  and  C8_11 
REMARK    9  A    between atoms: C13_18  and  N5_19 
REMARK   10  A    between atoms: N5_19  and  C14_20 
ROOT
HETATM    1  C8  UNL     1      23.934  -0.682  54.101  1.00  0.00     0.011 A 
HETATM    2  C9  UNL     1      22.993  -1.344  54.870  1.00  0.00     0.017 A 
HETATM    3  C10 UNL     1      21.643  -1.230  54.609  1.00  0.00     0.033 A 
HETATM    4  C11 UNL     1      21.220  -0.453  53.577  1.00  0.00     0.072 A 
HETATM    5  N3  UNL     1      19.883  -0.395  53.387  1.00  0.00    -0.241 NA
HETATM    6  C12 UNL     1      19.402   0.358  52.378  1.00  0.00     0.236 A 
HETATM    7  N4  UNL     1      20.266   1.019  51.605  1.00  0.00    -0.224 NA
HETATM    8  C13 UNL     1      21.597   1.005  51.739  1.00  0.00     0.142 A 
HETATM    9  C20 UNL     1      22.086   0.241  52.760  1.00  0.00     0.040 A 
HETATM   10  C21 UNL     1      23.410   0.084  53.073  1.00  0.00     0.032 A 
ENDROOT
BRANCH   1  11
HETATM   11  C7  UNL     1      25.398  -0.757  54.323  1.00  0.00     0.161 C 
HETATM   12  O1  UNL     1      25.802  -0.526  55.494  1.00  0.00    -0.292 OA
BRANCH  11  13
HETATM   13  C6  UNL     1      26.316  -1.086  53.218  1.00  0.00     0.114 C 
BRANCH  13  14
HETATM   14  C5  UNL     1      27.203  -0.020  52.747  1.00  0.00     0.280 C 
BRANCH  14  15
HETATM   15  N1  UNL     1      27.914   0.838  53.602  1.00  0.00     0.090 N 
BRANCH  15  16
HETATM   16  C2  UNL     1      29.287   0.593  53.850  1.00  0.00     0.268 C 
HETATM   17  C1  UNL     1      29.849  -0.748  53.488  1.00  0.00     0.037 C 
ENDBRANCH  15  16
BRANCH  15  18
HETATM   18  C3  UNL     1      27.708   2.172  53.013  1.00  0.00     0.291 C 
BRANCH  18  19
HETATM   19  C4  UNL     1      26.773   2.191  51.867  1.00  0.00     0.141 C 
BRANCH  19  20
HETATM   20  N2  UNL     1      26.800   3.337  51.023  1.00  0.00    -0.428 N 
HETATM   21  H10 UNL     1      27.673   3.521  50.505  1.00  0.00     0.149 HD
HETATM   22  H11 UNL     1      26.367   4.190  51.435  1.00  0.00     0.149 HD
ENDBRANCH  19  20
ENDBRANCH  18  19
ENDBRANCH  15  18
ENDBRANCH  14  15
ENDBRANCH  13  14
ENDBRANCH  11  13
ENDBRANCH   1  11
BRANCH   8  23
HETATM   23  N5  UNL     1      22.475   1.711  50.915  1.00  0.00    -0.340 N 
HETATM   24  H19 UNL     1      22.896   1.288  50.076  1.00  0.00     0.167 HD
BRANCH  23  25
HETATM   25  C14 UNL     1      22.963   3.041  51.000  1.00  0.00     0.035 A 
HETATM   26  C15 UNL     1      23.105   3.802  52.148  1.00  0.00     0.032 A 
HETATM   27  C16 UNL     1      23.581   5.078  52.226  1.00  0.00     0.046 A 
HETATM   28  C17 UNL     1      23.962   5.681  51.040  1.00  0.00     0.138 A 
HETATM   29  F1  UNL     1      24.436   6.964  51.139  1.00  0.00    -0.204 F 
HETATM   30  C18 UNL     1      23.852   4.990  49.854  1.00  0.00     0.074 A 
HETATM   31 CL1  UNL     1      24.370   5.890  48.456  1.00  0.00    -0.081 Cl
HETATM   32  C19 UNL     1      23.356   3.686  49.851  1.00  0.00     0.056 A 
ENDBRANCH  23  25
ENDBRANCH   8  23
TORSDOF 10
ENDMDL
MODEL 3
REMARK VINA RESULT:      -8.1      3.295      6.265
REMARK  10 active torsions:
REMARK  status: ('A' for Active; 'I' for Inactive)
REMARK    1  A    between atoms: C2_2  and  N1_3 
REMARK    2  A    between atoms: N1_3  and  C3_4 
REMARK    3  A    between atoms: N1_3  and  C5_7 
REMARK    4  A    between atoms: C3_4  and  C4_5 
REMARK    5  A    between atoms: C4_5  and  N2_6 
REMARK    6  A    between atoms: C5_7  and  C6_8 
REMARK    7  A    between atoms: C6_8  and  C7_9 
REMARK    8  A    between atoms: C7_9  and  C8_11 
REMARK    9  A    between atoms: C13_18  and  N5_19 
REMARK   10  A    between atoms: N5_19  and  C14_20 
ROOT
HETATM    1  C8  UNL     1      23.998  -0.159  53.460  1.00  0.00     0.011 A 
HETATM    2  C9  UNL     1      22.854  -0.937  53.401  1.00  0.00     0.017 A 
HETATM    3  C10 UNL     1      21.673  -0.440  52.889  1.00  0.00     0.033 A 
HETATM    4  C11 UNL     1      21.624   0.839  52.432  1.00  0.00     0.072 A 
HETATM    5  N3  UNL     1      20.431   1.249  51.945  1.00  0.00    -0.241 NA
HETATM    6  C12 UNL     1      20.319   2.508  51.475  1.00  0.00     0.236 A 
HETATM    7  N4  UNL     1      21.391   3.301  51.509  1.00  0.00    -0.224 NA
HETATM    8  C13 UNL     1      22.597   2.959  51.975  1.00  0.00     0.142 A 
HETATM    9  C20 UNL     1      22.713   1.684  52.451  1.00  0.00     0.040 A 
HETATM   10  C21 UNL     1      23.852   1.129  52.970  1.00  0.00     0.032 A 
ENDROOT
BRANCH   1  11
HETATM   11  C7  UNL     1      25.299  -0.625  53.996  1.00  0.00     0.161 C 
HETATM   12  O1  UNL     1      25.688  -1.763  53.620  1.00  0.00    -0.292 OA
BRANCH  11  13
HETATM   13  C6  UNL     1      26.082   0.214  54.921  1.00  0.00     0.114 C 
BRANCH  13  14
HETATM   14  C5  UNL     1      27.541   0.102  54.852  1.00  0.00     0.280 C 
BRANCH  14  15
HETATM   15  N1  UNL     1      28.259   0.007  53.649  1.00  0.00     0.090 N 
BRANCH  15  16
HETATM   16  C2  UNL     1      28.613   1.189  52.953  1.00  0.00     0.268 C 
HETATM   17  C1  UNL     1      28.677   2.475  53.720  1.00  0.00     0.037 C 
ENDBRANCH  15  16
BRANCH  15  18
HETATM   18  C3  UNL     1      29.454  -0.775  54.014  1.00  0.00     0.291 C 
BRANCH  18  19
HETATM   19  C4  UNL     1      29.602  -2.041  53.264  1.00  0.00     0.141 C 
BRANCH  19  20
HETATM   20  N2  UNL     1      28.493  -2.933  53.266  1.00  0.00    -0.428 N 
HETATM   21  H10 UNL     1      28.700  -3.943  53.230  1.00  0.00     0.149 HD
HETATM   22  H11 UNL     1      27.700  -2.643  52.655  1.00  0.00     0.149 HD
ENDBRANCH  19  20
ENDBRANCH  18  19
ENDBRANCH  15  18
ENDBRANCH  14  15
ENDBRANCH  13  14
ENDBRANCH  11  13
ENDBRANCH   1  11
BRANCH   8  23
HETATM   23  N5  UNL     1      23.700   3.814  52.000  1.00  0.00    -0.340 N 
HETATM   24  H19 UNL     1      23.901   4.421  52.807  1.00  0.00     0.167 HD
BRANCH  23  25
HETATM   25  C14 UNL     1      24.716   4.048  51.038  1.00  0.00     0.035 A 
HETATM   26  C15 UNL     1      25.736   3.184  50.679  1.00  0.00     0.032 A 
HETATM   27  C16 UNL     1      26.708   3.410  49.749  1.00  0.00     0.046 A 
HETATM   28  C17 UNL     1      26.678   4.629  49.093  1.00  0.00     0.138 A 
HETATM   29  F1  UNL     1      27.664   4.838  48.162  1.00  0.00    -0.204 F 
HETATM   30  C18 UNL     1      25.695   5.544  49.393  1.00  0.00     0.074 A 
HETATM   31 CL1  UNL     1      25.801   7.025  48.483  1.00  0.00    -0.081 Cl
HETATM   32  C19 UNL     1      24.732   5.243  50.357  1.00  0.00     0.056 A 
ENDBRANCH  23  25
ENDBRANCH   8  23
TORSDOF 10
ENDMDL
MODEL 4
REMARK VINA RESULT:      -8.0      3.277      6.146
REMARK  10 active torsions:
REMARK  status: ('A' for Active; 'I' for Inactive)
REMARK    1  A    between atoms: C2_2  and  N1_3 
REMARK    2  A    between atoms: N1_3  and  C3_4 
REMARK    3  A    between atoms: N1_3  and  C5_7 
REMARK    4  A    between atoms: C3_4  and  C4_5 
REMARK    5  A    between atoms: C4_5  and  N2_6 
REMARK    6  A    between atoms: C5_7  and  C6_8 
REMARK    7  A    between atoms: C6_8  and  C7_9 
REMARK    8  A    between atoms: C7_9  and  C8_11 
REMARK    9  A    between atoms: C13_18  and  N5_19 
REMARK   10  A    between atoms: N5_19  and  C14_20 
ROOT
HETATM    1  C8  UNL     1      23.232  -0.764  54.127  1.00  0.00     0.011 A 
HETATM    2  C9  UNL     1      22.105  -1.276  54.747  1.00  0.00     0.017 A 
HETATM    3  C10 UNL     1      20.843  -1.061  54.233  1.00  0.00     0.033 A 
HETATM    4  C11 UNL     1      20.694  -0.332  53.096  1.00  0.00     0.072 A 
HETATM    5  N3  UNL     1      19.426  -0.168  52.657  1.00  0.00    -0.241 NA
HETATM    6  C12 UNL     1      19.214   0.544  51.532  1.00  0.00     0.236 A 
HETATM    7  N4  UNL     1      20.266   1.061  50.895  1.00  0.00    -0.224 NA
HETATM    8  C13 UNL     1      21.543   0.937  51.274  1.00  0.00     0.142 A 
HETATM    9  C20 UNL     1      21.760   0.214  52.413  1.00  0.00     0.040 A 
HETATM   10  C21 UNL     1      22.982  -0.037  52.975  1.00  0.00     0.032 A 
ENDROOT
BRANCH   1  11
HETATM   11  C7  UNL     1      24.617  -0.955  54.621  1.00  0.00     0.161 C 
HETATM   12  O1  UNL     1      24.742  -1.285  55.831  1.00  0.00    -0.292 OA
BRANCH  11  13
HETATM   13  C6  UNL     1      25.774  -0.762  53.728  1.00  0.00     0.114 C 
BRANCH  13  14
HETATM   14  C5  UNL     1      26.907  -0.002  54.259  1.00  0.00     0.280 C 
BRANCH  14  15
HETATM   15  N1  UNL     1      28.004   0.408  53.482  1.00  0.00     0.090 N 
BRANCH  15  16
HETATM   16  C2  UNL     1      28.185   1.785  53.205  1.00  0.00     0.268 C 
HETATM   17  C1  UNL     1      27.282   2.436  52.202  1.00  0.00     0.037 C 
ENDBRANCH  15  16
BRANCH  15  18
HETATM   18  C3  UNL     1      29.167  -0.152  54.193  1.00  0.00     0.291 C 
BRANCH  18  19
HETATM   19  C4  UNL     1      29.831  -1.267  53.485  1.00  0.00     0.141 C 
BRANCH  19  20
HETATM   20  N2  UNL     1      29.123  -2.500  53.403  1.00  0.00    -0.428 N 
HETATM   21  H10 UNL     1      28.205  -2.548  53.872  1.00  0.00     0.149 HD
HETATM   22  H11 UNL     1      29.711  -3.349  53.539  1.00  0.00     0.149 HD
ENDBRANCH  19  20
ENDBRANCH  18  19
ENDBRANCH  15  18
ENDBRANCH  14  15
ENDBRANCH  13  14
ENDBRANCH  11  13
ENDBRANCH   1  11
BRANCH   8  23
HETATM   23  N5  UNL     1      22.622   1.494  50.587  1.00  0.00    -0.340 N 
HETATM   24  H19 UNL     1      23.146   0.967  49.873  1.00  0.00     0.167 HD
BRANCH  23  25
HETATM   25  C14 UNL     1      23.216   2.780  50.674  1.00  0.00     0.035 A 
HETATM   26  C15 UNL     1      22.791   3.840  51.455  1.00  0.00     0.032 A 
HETATM   27  C16 UNL     1      23.368   5.073  51.540  1.00  0.00     0.046 A 
HETATM   28  C17 UNL     1      24.496   5.294  50.768  1.00  0.00     0.138 A 
HETATM   29  F1  UNL     1      25.061   6.541  50.867  1.00  0.00    -0.204 F 
HETATM   30  C18 UNL     1      24.982   4.289  49.964  1.00  0.00     0.074 A 
HETATM   31 CL1  UNL     1      26.402   4.729  49.056  1.00  0.00    -0.081 Cl
HETATM   32  C19 UNL     1      24.339   3.052  49.927  1.00  0.00     0.056 A 
ENDBRANCH  23  25
ENDBRANCH   8  23
TORSDOF 10
ENDMDL
MODEL 5
REMARK VINA RESULT:      -8.0      1.279      1.936
REMARK  10 active torsions:
REMARK  status: ('A' for Active; 'I' for Inactive)
REMARK    1  A    between atoms: C2_2  and  N1_3 
REMARK    2  A    between atoms: N1_3  and  C3_4 
REMARK    3  A    between atoms: N1_3  and  C5_7 
REMARK    4  A    between atoms: C3_4  and  C4_5 
REMARK    5  A    between atoms: C4_5  and  N2_6 
REMARK    6  A    between atoms: C5_7  and  C6_8 
REMARK    7  A    between atoms: C6_8  and  C7_9 
REMARK    8  A    between atoms: C7_9  and  C8_11 
REMARK    9  A    between atoms: C13_18  and  N5_19 
REMARK   10  A    between atoms: N5_19  and  C14_20 
ROOT
HETATM    1  C8  UNL     1      20.967   0.568  51.294  1.00  0.00     0.011 A 
HETATM    2  C9  UNL     1      19.931   0.149  52.111  1.00  0.00     0.017 A 
HETATM    3  C10 UNL     1      20.175  -0.440  53.335  1.00  0.00     0.033 A 
HETATM    4  C11 UNL     1      21.456  -0.616  53.753  1.00  0.00     0.072 A 
HETATM    5  N3  UNL     1      21.610  -1.198  54.964  1.00  0.00    -0.241 NA
HETATM    6  C12 UNL     1      22.857  -1.398  55.435  1.00  0.00     0.236 A 
HETATM    7  N4  UNL     1      23.893  -1.014  54.687  1.00  0.00    -0.224 NA
HETATM    8  C13 UNL     1      23.810  -0.433  53.484  1.00  0.00     0.142 A 
HETATM    9  C20 UNL     1      22.548  -0.228  53.006  1.00  0.00     0.040 A 
HETATM   10  C21 UNL     1      22.236   0.349  51.804  1.00  0.00     0.032 A 
ENDROOT
BRANCH   1  11
HETATM   11  C7  UNL     1      20.780   1.207  49.969  1.00  0.00     0.161 C 
HETATM   12  O1  UNL     1      19.606   1.221  49.512  1.00  0.00    -0.292 OA
BRANCH  11  13
HETATM   13  C6  UNL     1      21.922   1.788  49.240  1.00  0.00     0.114 C 
BRANCH  13  14
HETATM   14  C5  UNL     1      22.085   3.242  49.305  1.00  0.00     0.280 C 
BRANCH  14  15
HETATM   15  N1  UNL     1      22.988   3.888  50.166  1.00  0.00     0.090 N 
BRANCH  15  16
HETATM   16  C2  UNL     1      22.661   4.034  51.536  1.00  0.00     0.268 C 
HETATM   17  C1  UNL     1      21.229   4.274  51.905  1.00  0.00     0.037 C 
ENDBRANCH  15  16
BRANCH  15  18
HETATM   18  C3  UNL     1      24.240   3.129  49.994  1.00  0.00     0.291 C 
BRANCH  18  19
HETATM   19  C4  UNL     1      25.414   3.964  49.659  1.00  0.00     0.141 C 
BRANCH  19  20
HETATM   20  N2  UNL     1      26.560   3.840  50.494  1.00  0.00    -0.428 N 
HETATM   21  H10 UNL     1      26.913   2.887  50.673  1.00  0.00     0.149 HD
HETATM   22  H11 UNL     1      26.552   4.451  51.337  1.00  0.00     0.149 HD
ENDBRANCH  19  20
ENDBRANCH  18  19
ENDBRANCH  15  18
ENDBRANCH  14  15
ENDBRANCH  13  14
ENDBRANCH  11  13
ENDBRANCH   1  11
BRANCH   8  23
HETATM   23  N5  UNL     1      24.915  -0.045  52.724  1.00  0.00    -0.340 N 
HETATM   24  H19 UNL     1      24.906  -0.073  51.695  1.00  0.00     0.167 HD
BRANCH  23  25
HETATM   25  C14 UNL     1      26.191   0.436  53.117  1.00  0.00     0.035 A 
HETATM   26  C15 UNL     1      26.527   1.742  53.427  1.00  0.00     0.032 A 
HETATM   27  C16 UNL     1      27.754   2.199  53.810  1.00  0.00     0.046 A 
HETATM   28  C17 UNL     1      28.773   1.266  53.900  1.00  0.00     0.138 A 
HETATM   29  F1  UNL     1      29.999   1.746  54.285  1.00  0.00    -0.204 F 
HETATM   30  C18 UNL     1      28.519  -0.055  53.607  1.00  0.00     0.074 A 
HETATM   31 CL1  UNL     1      29.905  -1.097  53.765  1.00  0.00    -0.081 Cl
HETATM   32  C19 UNL     1      27.238  -0.450  53.222  1.00  0.00     0.056 A 
ENDBRANCH  23  25
ENDBRANCH   8  23
TORSDOF 10
ENDMDL
MODEL 6
REMARK VINA RESULT:      -7.6      2.231      3.793
REMARK  10 active torsions:
REMARK  status: ('A' for Active; 'I' for Inactive)
REMARK    1  A    between atoms: C2_2  and  N1_3 
REMARK    2  A    between atoms: N1_3  and  C3_4 
REMARK    3  A    between atoms: N1_3  and  C5_7 
REMARK    4  A    between atoms: C3_4  and  C4_5 
REMARK    5  A    between atoms: C4_5  and  N2_6 
REMARK    6  A    between atoms: C5_7  and  C6_8 
REMARK    7  A    between atoms: C6_8  and  C7_9 
REMARK    8  A    between atoms: C7_9  and  C8_11 
REMARK    9  A    between atoms: C13_18  and  N5_19 
REMARK   10  A    between atoms: N5_19  and  C14_20 
ROOT
HETATM    1  C8  UNL     1      24.797   3.263  49.899  1.00  0.00     0.011 A 
HETATM    2  C9  UNL     1      23.770   3.271  48.970  1.00  0.00     0.017 A 
HETATM    3  C10 UNL     1      22.627   2.522  49.158  1.00  0.00     0.033 A 
HETATM    4  C11 UNL     1      22.498   1.758  50.274  1.00  0.00     0.072 A 
HETATM    5  N3  UNL     1      21.348   1.056  50.384  1.00  0.00    -0.241 NA
HETATM    6  C12 UNL     1      21.161   0.280  51.470  1.00  0.00     0.236 A 
HETATM    7  N4  UNL     1      22.120   0.234  52.396  1.00  0.00    -0.224 NA
HETATM    8  C13 UNL     1      23.278   0.902  52.350  1.00  0.00     0.142 A 
HETATM    9  C20 UNL     1      23.469   1.690  51.251  1.00  0.00     0.040 A 
HETATM   10  C21 UNL     1      24.576   2.456  51.003  1.00  0.00     0.032 A 
ENDROOT
BRANCH   1  11
HETATM   11  C7  UNL     1      26.053   4.040  49.764  1.00  0.00     0.161 C 
HETATM   12  O1  UNL     1      27.092   3.519  50.251  1.00  0.00    -0.292 OA
BRANCH  11  13
HETATM   13  C6  UNL     1      26.064   5.351  49.091  1.00  0.00     0.114 C 
BRANCH  13  14
HETATM   14  C5  UNL     1      25.611   6.505  49.871  1.00  0.00     0.280 C 
BRANCH  14  15
HETATM   15  N1  UNL     1      24.509   7.302  49.516  1.00  0.00     0.090 N 
BRANCH  15  16
HETATM   16  C2  UNL     1      23.671   6.896  48.449  1.00  0.00     0.268 C 
HETATM   17  C1  UNL     1      23.835   7.567  47.119  1.00  0.00     0.037 C 
ENDBRANCH  15  16
BRANCH  15  18
HETATM   18  C3  UNL     1      23.750   7.429  50.773  1.00  0.00     0.291 C 
BRANCH  18  19
HETATM   19  C4  UNL     1      22.748   6.363  50.987  1.00  0.00     0.141 C 
BRANCH  19  20
HETATM   20  N2  UNL     1      22.935   5.508  52.109  1.00  0.00    -0.428 N 
HETATM   21  H10 UNL     1      23.306   5.937  52.972  1.00  0.00     0.149 HD
HETATM   22  H11 UNL     1      23.356   4.582  51.885  1.00  0.00     0.149 HD
ENDBRANCH  19  20
ENDBRANCH  18  19
ENDBRANCH  15  18
ENDBRANCH  14  15
ENDBRANCH  13  14
ENDBRANCH  11  13
ENDBRANCH   1  11
BRANCH   8  23
HETATM   23  N5  UNL     1      24.265   0.830  53.335  1.00  0.00    -0.340 N 
HETATM   24  H19 UNL     1      24.118   1.207  54.282  1.00  0.00     0.167 HD
BRANCH  23  25
HETATM   25  C14 UNL     1      25.574   0.285  53.301  1.00  0.00     0.035 A 
HETATM   26  C15 UNL     1      25.950  -0.941  52.780  1.00  0.00     0.032 A 
HETATM   27  C16 UNL     1      27.212  -1.459  52.743  1.00  0.00     0.046 A 
HETATM   28  C17 UNL     1      28.225  -0.686  53.282  1.00  0.00     0.138 A 
HETATM   29  F1  UNL     1      29.486  -1.225  53.238  1.00  0.00    -0.204 F 
HETATM   30  C18 UNL     1      27.933   0.547  53.821  1.00  0.00     0.074 A 
HETATM   31 CL1  UNL     1      29.316   1.390  54.460  1.00  0.00    -0.081 Cl
HETATM   32  C19 UNL     1      26.617   1.013  53.823  1.00  0.00     0.056 A 
ENDBRANCH  23  25
ENDBRANCH   8  23
TORSDOF 10
ENDMDL
MODEL 7
REMARK VINA RESULT:      -7.5      1.928      2.341
REMARK  10 active torsions:
REMARK  status: ('A' for Active; 'I' for Inactive)
REMARK    1  A    between atoms: C2_2  and  N1_3 
REMARK    2  A    between atoms: N1_3  and  C3_4 
REMARK    3  A    between atoms: N1_3  and  C5_7 
REMARK    4  A    between atoms: C3_4  and  C4_5 
REMARK    5  A    between atoms: C4_5  and  N2_6 
REMARK    6  A    between atoms: C5_7  and  C6_8 
REMARK    7  A    between atoms: C6_8  and  C7_9 
REMARK    8  A    between atoms: C7_9  and  C8_11 
REMARK    9  A    between atoms: C13_18  and  N5_19 
REMARK   10  A    between atoms: N5_19  and  C14_20 
ROOT
HETATM    1  C8  UNL     1      21.706   3.605  51.491  1.00  0.00     0.011 A 
HETATM    2  C9  UNL     1      20.478   3.302  52.055  1.00  0.00     0.017 A 
HETATM    3  C10 UNL     1      20.290   2.147  52.785  1.00  0.00     0.033 A 
HETATM    4  C11 UNL     1      21.325   1.283  52.957  1.00  0.00     0.072 A 
HETATM    5  N3  UNL     1      21.059   0.176  53.685  1.00  0.00    -0.241 NA
HETATM    6  C12 UNL     1      22.046  -0.719  53.893  1.00  0.00     0.236 A 
HETATM    7  N4  UNL     1      23.249  -0.477  53.369  1.00  0.00    -0.224 NA
HETATM    8  C13 UNL     1      23.578   0.597  52.642  1.00  0.00     0.142 A 
HETATM    9  C20 UNL     1      22.580   1.504  52.431  1.00  0.00     0.040 A 
HETATM   10  C21 UNL     1      22.699   2.668  51.720  1.00  0.00     0.032 A 
ENDROOT
BRANCH   1  11
HETATM   11  C7  UNL     1      21.981   4.826  50.695  1.00  0.00     0.161 C 
HETATM   12  O1  UNL     1      21.364   5.871  51.036  1.00  0.00    -0.292 OA
BRANCH  11  13
HETATM   13  C6  UNL     1      22.930   4.798  49.567  1.00  0.00     0.114 C 
BRANCH  13  14
HETATM   14  C5  UNL     1      24.018   5.777  49.586  1.00  0.00     0.280 C 
BRANCH  14  15
HETATM   15  N1  UNL     1      25.331   5.475  49.985  1.00  0.00     0.090 N 
BRANCH  15  16
HETATM   16  C2  UNL     1      25.643   4.164  50.422  1.00  0.00     0.268 C 
HETATM   17  C1  UNL     1      26.493   3.302  49.539  1.00  0.00     0.037 C 
ENDBRANCH  15  16
BRANCH  15  18
HETATM   18  C3  UNL     1      26.149   5.858  48.819  1.00  0.00     0.291 C 
BRANCH  18  19
HETATM   19  C4  UNL     1      26.601   7.265  48.832  1.00  0.00     0.141 C 
BRANCH  19  20
HETATM   20  N2  UNL     1      26.916   7.837  50.097  1.00  0.00    -0.428 N 
HETATM   21  H10 UNL     1      26.236   7.695  50.861  1.00  0.00     0.149 HD
HETATM   22  H11 UNL     1      27.305   8.802  50.054  1.00  0.00     0.149 HD
ENDBRANCH  19  20
ENDBRANCH  18  19
ENDBRANCH  15  18
ENDBRANCH  14  15
ENDBRANCH  13  14
ENDBRANCH  11  13
ENDBRANCH   1  11
BRANCH   8  23
HETATM   23  N5  UNL     1      24.847   0.820  52.104  1.00  0.00    -0.340 N 
HETATM   24  H19 UNL     1      24.984   1.331  51.221  1.00  0.00     0.167 HD
BRANCH  23  25
HETATM   25  C14 UNL     1      26.134   0.450  52.574  1.00  0.00     0.035 A 
HETATM   26  C15 UNL     1      26.686  -0.819  52.570  1.00  0.00     0.032 A 
HETATM   27  C16 UNL     1      27.927  -1.170  53.017  1.00  0.00     0.046 A 
HETATM   28  C17 UNL     1      28.720  -0.158  53.530  1.00  0.00     0.138 A 
HETATM   29  F1  UNL     1      29.962  -0.532  53.976  1.00  0.00    -0.204 F 
HETATM   30  C18 UNL     1      28.242   1.132  53.570  1.00  0.00     0.074 A 
HETATM   31 CL1  UNL     1      29.360   2.283  54.246  1.00  0.00    -0.081 Cl
HETATM   32  C19 UNL     1      26.962   1.417  53.094  1.00  0.00     0.056 A 
ENDBRANCH  23  25
ENDBRANCH   8  23
TORSDOF 10
ENDMDL
MODEL 8
REMARK VINA RESULT:      -7.5      2.508      5.794
REMARK  10 active torsions:
REMARK  status: ('A' for Active; 'I' for Inactive)
REMARK    1  A    between atoms: C2_2  and  N1_3 
REMARK    2  A    between atoms: N1_3  and  C3_4 
REMARK    3  A    between atoms: N1_3  and  C5_7 
REMARK    4  A    between atoms: C3_4  and  C4_5 
REMARK    5  A    between atoms: C4_5  and  N2_6 
REMARK    6  A    between atoms: C5_7  and  C6_8 
REMARK    7  A    between atoms: C6_8  and  C7_9 
REMARK    8  A    between atoms: C7_9  and  C8_11 
REMARK    9  A    between atoms: C13_18  and  N5_19 
REMARK   10  A    between atoms: N5_19  and  C14_20 
ROOT
HETATM    1  C8  UNL     1      22.495   1.200  51.523  1.00  0.00     0.011 A 
HETATM    2  C9  UNL     1      22.012   1.653  50.307  1.00  0.00     0.017 A 
HETATM    3  C10 UNL     1      22.765   2.479  49.499  1.00  0.00     0.033 A 
HETATM    4  C11 UNL     1      24.007   2.860  49.897  1.00  0.00     0.072 A 
HETATM    5  N3  UNL     1      24.680   3.668  49.048  1.00  0.00    -0.241 NA
HETATM    6  C12 UNL     1      25.919   4.079  49.386  1.00  0.00     0.236 A 
HETATM    7  N4  UNL     1      26.432   3.673  50.548  1.00  0.00    -0.224 NA
HETATM    8  C13 UNL     1      25.822   2.875  51.432  1.00  0.00     0.142 A 
HETATM    9  C20 UNL     1      24.567   2.457  51.090  1.00  0.00     0.040 A 
HETATM   10  C21 UNL     1      23.768   1.639  51.844  1.00  0.00     0.032 A 
ENDROOT
BRANCH   1  11
HETATM   11  C7  UNL     1      21.743   0.312  52.443  1.00  0.00     0.161 C 
HETATM   12  O1  UNL     1      22.328  -0.741  52.813  1.00  0.00    -0.292 OA
BRANCH  11  13
HETATM   13  C6  UNL     1      20.382   0.662  52.890  1.00  0.00     0.114 C 
BRANCH  13  14
HETATM   14  C5  UNL     1      19.302  -0.255  52.520  1.00  0.00     0.280 C 
BRANCH  14  15
HETATM   15  N1  UNL     1      18.045   0.167  52.055  1.00  0.00     0.090 N 
BRANCH  15  16
HETATM   16  C2  UNL     1      17.868   0.438  50.676  1.00  0.00     0.268 C 
HETATM   17  C1  UNL     1      16.842  -0.351  49.921  1.00  0.00     0.037 C 
ENDBRANCH  15  16
BRANCH  15  18
HETATM   18  C3  UNL     1      17.128  -0.892  52.513  1.00  0.00     0.291 C 
BRANCH  18  19
HETATM   19  C4  UNL     1      17.742  -1.866  53.440  1.00  0.00     0.141 C 
BRANCH  19  20
HETATM   20  N2  UNL     1      17.060  -3.102  53.631  1.00  0.00    -0.428 N 
HETATM   21  H10 UNL     1      16.591  -3.246  54.538  1.00  0.00     0.149 HD
HETATM   22  H11 UNL     1      17.573  -3.939  53.284  1.00  0.00     0.149 HD
ENDBRANCH  19  20
ENDBRANCH  18  19
ENDBRANCH  15  18
ENDBRANCH  14  15
ENDBRANCH  13  14
ENDBRANCH  11  13
ENDBRANCH   1  11
BRANCH   8  23
HETATM   23  N5  UNL     1      26.385   2.470  52.643  1.00  0.00    -0.340 N 
HETATM   24  H19 UNL     1      26.149   2.927  53.535  1.00  0.00     0.167 HD
BRANCH  23  25
HETATM   25  C14 UNL     1      27.321   1.444  52.935  1.00  0.00     0.035 A 
HETATM   26  C15 UNL     1      28.591   1.603  53.462  1.00  0.00     0.032 A 
HETATM   27  C16 UNL     1      29.485   0.613  53.747  1.00  0.00     0.046 A 
HETATM   28  C17 UNL     1      29.089  -0.687  53.485  1.00  0.00     0.138 A 
HETATM   29  F1  UNL     1      30.002  -1.668  53.778  1.00  0.00    -0.204 F 
HETATM   30  C18 UNL     1      27.839  -0.929  52.960  1.00  0.00     0.074 A 
HETATM   31 CL1  UNL     1      27.497  -2.615  52.687  1.00  0.00    -0.081 Cl
HETATM   32  C19 UNL     1      26.977   0.134  52.694  1.00  0.00     0.056 A 
ENDBRANCH  23  25
ENDBRANCH   8  23
TORSDOF 10
ENDMDL
MODEL 9
REMARK VINA RESULT:      -7.5      5.621      8.065
REMARK  10 active torsions:
REMARK  status: ('A' for Active; 'I' for Inactive)
REMARK    1  A    between atoms: C2_2  and  N1_3 
REMARK    2  A    between atoms: N1_3  and  C3_4 
REMARK    3  A    between atoms: N1_3  and  C5_7 
REMARK    4  A    between atoms: C3_4  and  C4_5 
REMARK    5  A    between atoms: C4_5  and  N2_6 
REMARK    6  A    between atoms: C5_7  and  C6_8 
REMARK    7  A    between atoms: C6_8  and  C7_9 
REMARK    8  A    between atoms: C7_9  and  C8_11 
REMARK    9  A    between atoms: C13_18  and  N5_19 
REMARK   10  A    between atoms: N5_19  and  C14_20 
ROOT
HETATM    1  C8  UNL     1      27.852   6.249  48.196  1.00  0.00     0.011 A 
HETATM    2  C9  UNL     1      26.908   7.187  47.813  1.00  0.00     0.017 A 
HETATM    3  C10 UNL     1      25.570   7.018  48.102  1.00  0.00     0.033 A 
HETATM    4  C11 UNL     1      25.162   5.910  48.775  1.00  0.00     0.072 A 
HETATM    5  N3  UNL     1      23.835   5.820  49.020  1.00  0.00    -0.241 NA
HETATM    6  C12 UNL     1      23.368   4.745  49.686  1.00  0.00     0.236 A 
HETATM    7  N4  UNL     1      24.235   3.809  50.077  1.00  0.00    -0.224 NA
HETATM    8  C13 UNL     1      25.556   3.837  49.868  1.00  0.00     0.142 A 
HETATM    9  C20 UNL     1      26.031   4.926  49.195  1.00  0.00     0.040 A 
HETATM   10  C21 UNL     1      27.343   5.156  48.877  1.00  0.00     0.032 A 
ENDROOT
BRANCH   1  11
HETATM   11  C7  UNL     1      29.304   6.364  47.920  1.00  0.00     0.161 C 
HETATM   12  O1  UNL     1      29.734   7.515  47.640  1.00  0.00    -0.292 OA
BRANCH  11  13
HETATM   13  C6  UNL     1      30.183   5.182  47.975  1.00  0.00     0.114 C 
BRANCH  13  14
HETATM   14  C5  UNL     1      31.574   5.363  47.555  1.00  0.00     0.280 C 
BRANCH  14  15
HETATM   15  N1  UNL     1      32.651   4.640  48.093  1.00  0.00     0.090 N 
BRANCH  15  16
HETATM   16  C2  UNL     1      33.344   3.712  47.278  1.00  0.00     0.268 C 
HETATM   17  C1  UNL     1      32.790   2.326  47.146  1.00  0.00     0.037 C 
ENDBRANCH  15  16
BRANCH  15  18
HETATM   18  C3  UNL     1      33.557   5.686  48.600  1.00  0.00     0.291 C 
BRANCH  18  19
HETATM   19  C4  UNL     1      34.988   5.313  48.575  1.00  0.00     0.141 C 
BRANCH  19  20
HETATM   20  N2  UNL     1      35.603   5.005  49.821  1.00  0.00    -0.428 N 
HETATM   21  H10 UNL     1      35.256   5.505  50.654  1.00  0.00     0.149 HD
HETATM   22  H11 UNL     1      36.640   4.916  49.784  1.00  0.00     0.149 HD
ENDBRANCH  19  20
ENDBRANCH  18  19
ENDBRANCH  15  18
ENDBRANCH  14  15
ENDBRANCH  13  14
ENDBRANCH  11  13
ENDBRANCH   1  11
BRANCH   8  23
HETATM   23  N5  UNL     1      26.438   2.839  50.288  1.00  0.00    -0.340 N 
HETATM   24  H19 UNL     1      27.175   2.468  49.673  1.00  0.00     0.167 HD
BRANCH  23  25
HETATM   25  C14 UNL     1      26.543   2.152  51.526  1.00  0.00     0.035 A 
HETATM   26  C15 UNL     1      27.549   2.285  52.467  1.00  0.00     0.032 A 
HETATM   27  C16 UNL     1      27.643   1.628  53.658  1.00  0.00     0.046 A 
HETATM   28  C17 UNL     1      26.632   0.733  53.964  1.00  0.00     0.138 A 
HETATM   29  F1  UNL     1      26.745   0.081  55.166  1.00  0.00    -0.204 F 
HETATM   30  C18 UNL     1      25.594   0.544  53.080  1.00  0.00     0.074 A 
HETATM   31 CL1  UNL     1      24.409  -0.615  53.612  1.00  0.00    -0.081 Cl
HETATM   32  C19 UNL     1      25.564   1.253  51.878  1.00  0.00     0.056 A 
ENDBRANCH  23  25
ENDBRANCH   8  23
TORSDOF 10
ENDMDL
