MODEL 1
REMARK VINA RESULT:      -9.5      0.000      0.000
REMARK  6 active torsions:
REMARK  status: ('A' for Active; 'I' for Inactive)
REMARK    1  A    between atoms: O1_1  and  C1_2 
REMARK    2  A    between atoms: C1_2  and  C2_3 
REMARK    3  A    between atoms: C3_4  and  C4_5 
REMARK    4  A    between atoms: C5_6  and  N1_7 
REMARK    5  A    between atoms: C15_19  and  C16_20 
REMARK    6  A    between atoms: C16_20  and  C17_21 
ROOT
HETATM    1  N1  UNL     1      24.193   3.081  50.686  1.00  0.00    -0.175 N 
HETATM    2  N2  UNL     1      24.933   2.177  51.117  1.00  0.00     0.079 N 
HETATM    3  C6  UNL     1      25.496   1.338  51.587  1.00  0.00     0.180 A 
HETATM    4  C7  UNL     1      26.276   0.303  52.118  1.00  0.00    -0.012 A 
HETATM    5  C8  UNL     1      26.293  -0.990  52.402  1.00  0.00     0.007 A 
HETATM    6  C9  UNL     1      27.461  -1.239  53.070  1.00  0.00    -0.015 A 
HETATM    7  C10 UNL     1      28.186  -0.145  53.216  1.00  0.00    -0.004 A 
HETATM    8  C11 UNL     1      28.494   1.443  53.025  1.00  0.00     0.014 A 
HETATM    9  C12 UNL     1      27.440   0.917  52.591  1.00  0.00     0.018 A 
HETATM   10  O2  UNL     1      28.587   1.462  53.068  1.00  0.00     0.000 OA
HETATM   11  C13 UNL     1      29.021   1.287  54.659  1.00  0.00     0.008 A 
HETATM   12  C14 UNL     1      29.254  -0.231  54.414  1.00  0.00     0.015 C 
HETATM   13  C15 UNL     1      24.179   1.380  52.181  1.00  0.00     0.366 A 
HETATM   14  C16 UNL     1      23.467   1.877  50.886  1.00  0.00     0.362 A 
ENDROOT
BRANCH   1  15
HETATM   15  C5  UNL     1      24.598   4.359  50.348  1.00  0.00     0.121 C 
HETATM   16  C4  UNL     1      25.749   4.070  49.789  1.00  0.00     0.018 C 
BRANCH  16  17
HETATM   17  C3  UNL     1      26.916   4.722  49.132  1.00  0.00    -0.001 C 
HETATM   18  C2  UNL     1      27.517   5.781  48.496  1.00  0.00    -0.001 C 
BRANCH  18  19
HETATM   19  C1  UNL     1      28.957   5.564  48.106  1.00  0.00     0.191 C 
BRANCH  19  20
HETATM   20  O1  UNL     1      29.798   5.543  49.185  1.00  0.00    -0.397 OA
HETATM   21  H1  UNL     1      29.302   5.291  50.013  1.00  0.00     0.209 HD
ENDBRANCH  19  20
ENDBRANCH  18  19
ENDBRANCH  16  17
ENDBRANCH   1  15
BRANCH  14  22
HETATM   22  C17 UNL     1      22.040   2.095  51.254  1.00  0.00    -0.004 A 
HETATM   23  C18 UNL     1      21.551   3.311  51.627  1.00  0.00     0.011 A 
HETATM   24  C19 UNL     1      20.274   3.577  51.966  1.00  0.00     0.002 A 
HETATM   25  C20 UNL     1      19.346   2.524  51.940  1.00  0.00     0.024 A 
HETATM   26  C21 UNL     1      19.872   1.308  51.560  1.00  0.00     0.034 A 
HETATM   27 CL1  UNL     1      18.844  -0.143  51.488  1.00  0.00    -0.084 Cl
HETATM   28  C22 UNL     1      21.161   0.980  51.206  1.00  0.00     0.034 A 
ENDBRANCH  14  22
TORSDOF 6
ENDMDL
MODEL 2
REMARK VINA RESULT:      -9.3      3.524      6.695
REMARK  6 active torsions:
REMARK  status: ('A' for Active; 'I' for Inactive)
REMARK    1  A    between atoms: O1_1  and  C1_2 
REMARK    2  A    between atoms: C1_2  and  C2_3 
REMARK    3  A    between atoms: C3_4  and  C4_5 
REMARK    4  A    between atoms: C5_6  and  N1_7 
REMARK    5  A    between atoms: C15_19  and  C16_20 
REMARK    6  A    between atoms: C16_20  and  C17_21 
ROOT
HETATM    1  N1  UNL     1      25.880   2.662  51.188  1.00  0.00    -0.175 N 
HETATM    2  N2  UNL     1      24.753   2.136  51.121  1.00  0.00     0.079 N 
HETATM    3  C6  UNL     1      23.696   1.790  51.048  1.00  0.00     0.180 A 
HETATM    4  C7  UNL     1      22.400   1.266  50.966  1.00  0.00    -0.012 A 
HETATM    5  C8  UNL     1      21.293   1.250  50.238  1.00  0.00     0.007 A 
HETATM    6  C9  UNL     1      20.360   0.543  50.945  1.00  0.00    -0.015 A 
HETATM    7  C10 UNL     1      20.839   0.108  52.096  1.00  0.00    -0.004 A 
HETATM    8  C11 UNL     1      22.005  -0.079  53.219  1.00  0.00     0.014 A 
HETATM    9  C12 UNL     1      22.206   0.560  52.157  1.00  0.00     0.018 A 
HETATM   10  O2  UNL     1      21.964  -0.137  53.295  1.00  0.00     0.000 OA
HETATM   11  C13 UNL     1      20.690   0.253  54.284  1.00  0.00     0.008 A 
HETATM   12  C14 UNL     1      19.706  -0.234  53.183  1.00  0.00     0.015 C 
HETATM   13  C15 UNL     1      23.710   3.225  50.871  1.00  0.00     0.366 A 
HETATM   14  C16 UNL     1      25.098   3.256  50.162  1.00  0.00     0.362 A 
ENDROOT
BRANCH   1  15
HETATM   15  C5  UNL     1      26.894   2.284  52.050  1.00  0.00     0.121 C 
HETATM   16  C4  UNL     1      26.806   0.982  51.914  1.00  0.00     0.018 C 
BRANCH  16  17
HETATM   17  C3  UNL     1      27.428  -0.279  52.403  1.00  0.00    -0.001 C 
HETATM   18  C2  UNL     1      27.354  -1.549  52.922  1.00  0.00    -0.001 C 
BRANCH  18  19
HETATM   19  C1  UNL     1      28.679  -2.229  53.152  1.00  0.00     0.191 C 
BRANCH  19  20
HETATM   20  O1  UNL     1      28.553  -3.574  53.365  1.00  0.00    -0.397 OA
HETATM   21  H1  UNL     1      29.354  -3.930  53.842  1.00  0.00     0.209 HD
ENDBRANCH  19  20
ENDBRANCH  18  19
ENDBRANCH  16  17
ENDBRANCH   1  15
BRANCH  14  22
HETATM   22  C17 UNL     1      25.414   4.694  49.929  1.00  0.00    -0.004 A 
HETATM   23  C18 UNL     1      24.714   5.708  50.511  1.00  0.00     0.011 A 
HETATM   24  C19 UNL     1      24.951   7.024  50.347  1.00  0.00     0.002 A 
HETATM   25  C20 UNL     1      26.008   7.410  49.508  1.00  0.00     0.024 A 
HETATM   26  C21 UNL     1      26.694   6.362  48.934  1.00  0.00     0.034 A 
HETATM   27 CL1  UNL     1      28.054   6.665  47.827  1.00  0.00    -0.084 Cl
HETATM   28  C22 UNL     1      26.498   5.006  49.065  1.00  0.00     0.034 A 
ENDBRANCH  14  22
TORSDOF 6
ENDMDL
MODEL 3
REMARK VINA RESULT:      -9.3      3.276      5.754
REMARK  6 active torsions:
REMARK  status: ('A' for Active; 'I' for Inactive)
REMARK    1  A    between atoms: O1_1  and  C1_2 
REMARK    2  A    between atoms: C1_2  and  C2_3 
REMARK    3  A    between atoms: C3_4  and  C4_5 
REMARK    4  A    between atoms: C5_6  and  N1_7 
REMARK    5  A    between atoms: C15_19  and  C16_20 
REMARK    6  A    between atoms: C16_20  and  C17_21 
ROOT
HETATM    1  N1  UNL     1      23.196   0.933  52.968  1.00  0.00    -0.175 N 
HETATM    2  N2  UNL     1      24.403   1.105  53.224  1.00  0.00     0.079 N 
HETATM    3  C6  UNL     1      25.493   1.312  53.331  1.00  0.00     0.180 A 
HETATM    4  C7  UNL     1      26.857   1.534  53.553  1.00  0.00    -0.012 A 
HETATM    5  C8  UNL     1      27.812   2.452  53.534  1.00  0.00     0.007 A 
HETATM    6  C9  UNL     1      28.994   1.806  53.775  1.00  0.00    -0.015 A 
HETATM    7  C10 UNL     1      28.819   0.509  53.948  1.00  0.00    -0.004 A 
HETATM    8  C11 UNL     1      27.920  -0.846  54.052  1.00  0.00     0.014 A 
HETATM    9  C12 UNL     1      27.403   0.273  53.815  1.00  0.00     0.018 A 
HETATM   10  O2  UNL     1      27.985  -0.924  54.074  1.00  0.00     0.000 OA
HETATM   11  C13 UNL     1      29.230  -1.492  53.137  1.00  0.00     0.008 A 
HETATM   12  C14 UNL     1      30.144  -0.364  53.693  1.00  0.00     0.015 C 
HETATM   13  C15 UNL     1      25.062   1.832  52.053  1.00  0.00     0.366 A 
HETATM   14  C16 UNL     1      23.633   2.216  52.542  1.00  0.00     0.362 A 
ENDROOT
BRANCH   1  15
HETATM   15  C5  UNL     1      22.457  -0.190  53.292  1.00  0.00     0.121 C 
HETATM   16  C4  UNL     1      21.281   0.207  52.868  1.00  0.00     0.018 C 
BRANCH  16  17
HETATM   17  C3  UNL     1      19.868  -0.253  52.770  1.00  0.00    -0.001 C 
HETATM   18  C2  UNL     1      18.631  -0.259  52.173  1.00  0.00    -0.001 C 
BRANCH  18  19
HETATM   19  C1  UNL     1      17.606  -1.152  52.824  1.00  0.00     0.191 C 
BRANCH  19  20
HETATM   20  O1  UNL     1      17.802  -1.286  54.172  1.00  0.00    -0.397 OA
HETATM   21  H1  UNL     1      18.114  -2.208  54.392  1.00  0.00     0.209 HD
ENDBRANCH  19  20
ENDBRANCH  18  19
ENDBRANCH  16  17
ENDBRANCH   1  15
BRANCH  14  22
HETATM   22  C17 UNL     1      22.906   2.726  51.345  1.00  0.00    -0.004 A 
HETATM   23  C18 UNL     1      22.724   1.981  50.219  1.00  0.00     0.011 A 
HETATM   24  C19 UNL     1      22.074   2.379  49.107  1.00  0.00     0.002 A 
HETATM   25  C20 UNL     1      21.527   3.671  49.084  1.00  0.00     0.024 A 
HETATM   26  C21 UNL     1      21.729   4.398  50.238  1.00  0.00     0.034 A 
HETATM   27 CL1  UNL     1      21.119   6.064  50.379  1.00  0.00    -0.084 Cl
HETATM   28  C22 UNL     1      22.382   4.045  51.397  1.00  0.00     0.034 A 
ENDBRANCH  14  22
TORSDOF 6
ENDMDL
MODEL 4
REMARK VINA RESULT:      -9.2      3.307      6.836
REMARK  6 active torsions:
REMARK  status: ('A' for Active; 'I' for Inactive)
REMARK    1  A    between atoms: O1_1  and  C1_2 
REMARK    2  A    between atoms: C1_2  and  C2_3 
REMARK    3  A    between atoms: C3_4  and  C4_5 
REMARK    4  A    between atoms: C5_6  and  N1_7 
REMARK    5  A    between atoms: C15_19  and  C16_20 
REMARK    6  A    between atoms: C16_20  and  C17_21 
ROOT
HETATM    1  N1  UNL     1      23.935   2.136  53.002  1.00  0.00    -0.175 N 
HETATM    2  N2  UNL     1      22.841   1.548  53.092  1.00  0.00     0.079 N 
HETATM    3  C6  UNL     1      21.928   0.911  53.140  1.00  0.00     0.180 A 
HETATM    4  C7  UNL     1      20.732   0.187  53.222  1.00  0.00    -0.012 A 
HETATM    5  C8  UNL     1      20.153  -0.869  53.773  1.00  0.00     0.007 A 
HETATM    6  C9  UNL     1      18.907  -0.978  53.217  1.00  0.00    -0.015 A 
HETATM    7  C10 UNL     1      18.678  -0.025  52.333  1.00  0.00    -0.004 A 
HETATM    8  C11 UNL     1      19.072   1.307  51.482  1.00  0.00     0.014 A 
HETATM    9  C12 UNL     1      19.868   0.788  52.302  1.00  0.00     0.018 A 
HETATM   10  O2  UNL     1      18.989   1.332  51.423  1.00  0.00     0.000 OA
HETATM   11  C13 UNL     1      18.315   0.421  50.212  1.00  0.00     0.008 A 
HETATM   12  C14 UNL     1      17.519  -0.383  51.279  1.00  0.00     0.015 C 
HETATM   13  C15 UNL     1      23.058   0.054  52.852  1.00  0.00     0.366 A 
HETATM   14  C16 UNL     1      24.074   0.897  53.681  1.00  0.00     0.362 A 
ENDROOT
BRANCH   1  15
HETATM   15  C5  UNL     1      24.134   3.384  52.438  1.00  0.00     0.121 C 
HETATM   16  C4  UNL     1      25.039   3.064  51.544  1.00  0.00     0.018 C 
BRANCH  16  17
HETATM   17  C3  UNL     1      25.877   3.672  50.474  1.00  0.00    -0.001 C 
HETATM   18  C2  UNL     1      26.716   3.584  49.390  1.00  0.00    -0.001 C 
BRANCH  18  19
HETATM   19  C1  UNL     1      27.177   4.903  48.824  1.00  0.00     0.191 C 
BRANCH  19  20
HETATM   20  O1  UNL     1      28.505   5.141  49.055  1.00  0.00    -0.397 OA
HETATM   21  H1  UNL     1      29.069   4.465  48.587  1.00  0.00     0.209 HD
ENDBRANCH  19  20
ENDBRANCH  18  19
ENDBRANCH  16  17
ENDBRANCH   1  15
BRANCH  14  22
HETATM   22  C17 UNL     1      25.405   0.255  53.483  1.00  0.00    -0.004 A 
HETATM   23  C18 UNL     1      25.577  -0.875  52.741  1.00  0.00     0.011 A 
HETATM   24  C19 UNL     1      26.750  -1.500  52.518  1.00  0.00     0.002 A 
HETATM   25  C20 UNL     1      27.911  -0.958  53.091  1.00  0.00     0.024 A 
HETATM   26  C21 UNL     1      27.703   0.182  53.836  1.00  0.00     0.034 A 
HETATM   27 CL1  UNL     1      29.060   0.995  54.651  1.00  0.00    -0.084 Cl
HETATM   28  C22 UNL     1      26.534   0.861  54.096  1.00  0.00     0.034 A 
ENDBRANCH  14  22
TORSDOF 6
ENDMDL
MODEL 5
REMARK VINA RESULT:      -9.0      2.892      5.440
REMARK  6 active torsions:
REMARK  status: ('A' for Active; 'I' for Inactive)
REMARK    1  A    between atoms: O1_1  and  C1_2 
REMARK    2  A    between atoms: C1_2  and  C2_3 
REMARK    3  A    between atoms: C3_4  and  C4_5 
REMARK    4  A    between atoms: C5_6  and  N1_7 
REMARK    5  A    between atoms: C15_19  and  C16_20 
REMARK    6  A    between atoms: C16_20  and  C17_21 
ROOT
HETATM    1  N1  UNL     1      24.974   3.060  50.471  1.00  0.00    -0.175 N 
HETATM    2  N2  UNL     1      24.056   2.330  50.888  1.00  0.00     0.079 N 
HETATM    3  C6  UNL     1      23.182   1.786  51.315  1.00  0.00     0.180 A 
HETATM    4  C7  UNL     1      22.119   1.024  51.814  1.00  0.00    -0.012 A 
HETATM    5  C8  UNL     1      20.799   0.928  51.866  1.00  0.00     0.007 A 
HETATM    6  C9  UNL     1      20.506  -0.104  52.716  1.00  0.00    -0.015 A 
HETATM    7  C10 UNL     1      21.596  -0.666  53.202  1.00  0.00    -0.004 A 
HETATM    8  C11 UNL     1      23.209  -0.837  53.360  1.00  0.00     0.014 A 
HETATM    9  C12 UNL     1      22.707   0.048  52.625  1.00  0.00     0.018 A 
HETATM   10  O2  UNL     1      23.225  -0.918  53.424  1.00  0.00     0.000 OA
HETATM   11  C13 UNL     1      22.778  -1.042  55.017  1.00  0.00     0.008 A 
HETATM   12  C14 UNL     1      21.354  -1.478  54.568  1.00  0.00     0.015 C 
HETATM   13  C15 UNL     1      23.022   3.193  51.610  1.00  0.00     0.366 A 
HETATM   14  C16 UNL     1      23.709   3.681  50.299  1.00  0.00     0.362 A 
ENDROOT
BRANCH   1  15
HETATM   15  C5  UNL     1      26.318   2.732  50.454  1.00  0.00     0.121 C 
HETATM   16  C4  UNL     1      26.489   2.496  51.733  1.00  0.00     0.018 C 
BRANCH  16  17
HETATM   17  C3  UNL     1      27.542   2.096  52.708  1.00  0.00    -0.001 C 
HETATM   18  C2  UNL     1      28.562   2.385  53.581  1.00  0.00    -0.001 C 
BRANCH  18  19
HETATM   19  C1  UNL     1      29.186   1.191  54.258  1.00  0.00     0.191 C 
BRANCH  19  20
HETATM   20  O1  UNL     1      30.139   0.584  53.486  1.00  0.00    -0.397 OA
HETATM   21  H1  UNL     1      29.814   0.475  52.549  1.00  0.00     0.209 HD
ENDBRANCH  19  20
ENDBRANCH  18  19
ENDBRANCH  16  17
ENDBRANCH   1  15
BRANCH  14  22
HETATM   22  C17 UNL     1      23.757   5.168  50.383  1.00  0.00    -0.004 A 
HETATM   23  C18 UNL     1      24.921   5.861  50.535  1.00  0.00     0.011 A 
HETATM   24  C19 UNL     1      25.034   7.202  50.613  1.00  0.00     0.002 A 
HETATM   25  C20 UNL     1      23.865   7.974  50.533  1.00  0.00     0.024 A 
HETATM   26  C21 UNL     1      22.706   7.243  50.381  1.00  0.00     0.034 A 
HETATM   27 CL1  UNL     1      21.127   8.056  50.280  1.00  0.00    -0.084 Cl
HETATM   28  C22 UNL     1      22.531   5.880  50.296  1.00  0.00     0.034 A 
ENDBRANCH  14  22
TORSDOF 6
ENDMDL
MODEL 6
REMARK VINA RESULT:      -9.0      3.032      7.363
REMARK  6 active torsions:
REMARK  status: ('A' for Active; 'I' for Inactive)
REMARK    1  A    between atoms: O1_1  and  C1_2 
REMARK    2  A    between atoms: C1_2  and  C2_3 
REMARK    3  A    between atoms: C3_4  and  C4_5 
REMARK    4  A    between atoms: C5_6  and  N1_7 
REMARK    5  A    between atoms: C15_19  and  C16_20 
REMARK    6  A    between atoms: C16_20  and  C17_21 
ROOT
HETATM    1  N1  UNL     1      24.472   2.317  51.212  1.00  0.00    -0.175 N 
HETATM    2  N2  UNL     1      25.146   3.088  50.503  1.00  0.00     0.079 N 
HETATM    3  C6  UNL     1      25.847   3.760  49.957  1.00  0.00     0.180 A 
HETATM    4  C7  UNL     1      26.660   4.619  49.207  1.00  0.00    -0.012 A 
HETATM    5  C8  UNL     1      27.832   4.730  48.601  1.00  0.00     0.007 A 
HETATM    6  C9  UNL     1      27.938   6.023  48.167  1.00  0.00    -0.015 A 
HETATM    7  C10 UNL     1      26.870   6.734  48.476  1.00  0.00    -0.004 A 
HETATM    8  C11 UNL     1      25.389   6.947  49.121  1.00  0.00     0.014 A 
HETATM    9  C12 UNL     1      25.979   5.839  49.169  1.00  0.00     0.018 A 
HETATM   10  O2  UNL     1      25.362   7.046  49.103  1.00  0.00     0.000 OA
HETATM   11  C13 UNL     1      26.105   8.420  49.661  1.00  0.00     0.008 A 
HETATM   12  C14 UNL     1      27.132   8.320  48.498  1.00  0.00     0.015 C 
HETATM   13  C15 UNL     1      26.558   3.186  51.078  1.00  0.00     0.366 A 
HETATM   14  C16 UNL     1      25.794   1.829  51.036  1.00  0.00     0.362 A 
ENDROOT
BRANCH   1  15
HETATM   15  C5  UNL     1      23.137   2.480  51.535  1.00  0.00     0.121 C 
HETATM   16  C4  UNL     1      22.936   1.347  52.164  1.00  0.00     0.018 C 
BRANCH  16  17
HETATM   17  C3  UNL     1      21.866   0.584  52.864  1.00  0.00    -0.001 C 
HETATM   18  C2  UNL     1      20.859   0.476  53.792  1.00  0.00    -0.001 C 
BRANCH  18  19
HETATM   19  C1  UNL     1      20.184  -0.871  53.855  1.00  0.00     0.191 C 
BRANCH  19  20
HETATM   20  O1  UNL     1      20.741  -1.698  54.792  1.00  0.00    -0.397 OA
HETATM   21  H1  UNL     1      20.125  -2.453  55.005  1.00  0.00     0.209 HD
ENDBRANCH  19  20
ENDBRANCH  18  19
ENDBRANCH  16  17
ENDBRANCH   1  15
BRANCH  14  22
HETATM   22  C17 UNL     1      26.294   1.035  52.195  1.00  0.00    -0.004 A 
HETATM   23  C18 UNL     1      26.351   1.532  53.462  1.00  0.00     0.011 A 
HETATM   24  C19 UNL     1      26.786   0.867  54.550  1.00  0.00     0.002 A 
HETATM   25  C20 UNL     1      27.224  -0.457  54.390  1.00  0.00     0.024 A 
HETATM   26  C21 UNL     1      27.155  -0.929  53.097  1.00  0.00     0.034 A 
HETATM   27 CL1  UNL     1      27.686  -2.582  52.704  1.00  0.00    -0.084 Cl
HETATM   28  C22 UNL     1      26.722  -0.299  51.952  1.00  0.00     0.034 A 
ENDBRANCH  14  22
TORSDOF 6
ENDMDL
MODEL 7
REMARK VINA RESULT:      -8.7      3.334      4.782
REMARK  6 active torsions:
REMARK  status: ('A' for Active; 'I' for Inactive)
REMARK    1  A    between atoms: O1_1  and  C1_2 
REMARK    2  A    between atoms: C1_2  and  C2_3 
REMARK    3  A    between atoms: C3_4  and  C4_5 
REMARK    4  A    between atoms: C5_6  and  N1_7 
REMARK    5  A    between atoms: C15_19  and  C16_20 
REMARK    6  A    between atoms: C16_20  and  C17_21 
ROOT
HETATM    1  N1  UNL     1      24.629   3.263  50.340  1.00  0.00    -0.175 N 
HETATM    2  N2  UNL     1      23.791   2.449  50.771  1.00  0.00     0.079 N 
HETATM    3  C6  UNL     1      22.976   1.825  51.206  1.00  0.00     0.180 A 
HETATM    4  C7  UNL     1      21.998   0.965  51.719  1.00  0.00    -0.012 A 
HETATM    5  C8  UNL     1      20.696   0.723  51.758  1.00  0.00     0.007 A 
HETATM    6  C9  UNL     1      20.506  -0.305  52.641  1.00  0.00    -0.015 A 
HETATM    7  C10 UNL     1      21.645  -0.724  53.160  1.00  0.00    -0.004 A 
HETATM    8  C11 UNL     1      23.263  -0.707  53.345  1.00  0.00     0.014 A 
HETATM    9  C12 UNL     1      22.678   0.090  52.572  1.00  0.00     0.018 A 
HETATM   10  O2  UNL     1      23.287  -0.783  53.412  1.00  0.00     0.000 OA
HETATM   11  C13 UNL     1      22.831  -0.903  55.002  1.00  0.00     0.008 A 
HETATM   12  C14 UNL     1      21.472  -1.510  54.551  1.00  0.00     0.015 C 
HETATM   13  C15 UNL     1      22.656   3.214  51.449  1.00  0.00     0.366 A 
HETATM   14  C16 UNL     1      23.305   3.731  50.130  1.00  0.00     0.362 A 
ENDROOT
BRANCH   1  15
HETATM   15  C5  UNL     1      26.001   3.088  50.352  1.00  0.00     0.121 C 
HETATM   16  C4  UNL     1      26.343   4.084  49.571  1.00  0.00     0.018 C 
BRANCH  16  17
HETATM   17  C3  UNL     1      27.546   4.728  48.972  1.00  0.00    -0.001 C 
HETATM   18  C2  UNL     1      28.158   5.721  48.247  1.00  0.00    -0.001 C 
BRANCH  18  19
HETATM   19  C1  UNL     1      29.651   5.580  48.096  1.00  0.00     0.191 C 
BRANCH  19  20
HETATM   20  O1  UNL     1      30.307   5.591  49.297  1.00  0.00    -0.397 OA
HETATM   21  H1  UNL     1      30.222   6.484  49.735  1.00  0.00     0.209 HD
ENDBRANCH  19  20
ENDBRANCH  18  19
ENDBRANCH  16  17
ENDBRANCH   1  15
BRANCH  14  22
HETATM   22  C17 UNL     1      23.186   5.216  50.162  1.00  0.00    -0.004 A 
HETATM   23  C18 UNL     1      23.931   5.999  50.990  1.00  0.00     0.011 A 
HETATM   24  C19 UNL     1      23.876   7.344  51.065  1.00  0.00     0.002 A 
HETATM   25  C20 UNL     1      22.979   8.020  50.223  1.00  0.00     0.024 A 
HETATM   26  C21 UNL     1      22.239   7.199  49.399  1.00  0.00     0.034 A 
HETATM   27 CL1  UNL     1      21.038   7.883  48.278  1.00  0.00    -0.084 Cl
HETATM   28  C22 UNL     1      22.253   5.828  49.281  1.00  0.00     0.034 A 
ENDBRANCH  14  22
TORSDOF 6
ENDMDL
MODEL 8
REMARK VINA RESULT:      -8.5      3.663      7.020
REMARK  6 active torsions:
REMARK  status: ('A' for Active; 'I' for Inactive)
REMARK    1  A    between atoms: O1_1  and  C1_2 
REMARK    2  A    between atoms: C1_2  and  C2_3 
REMARK    3  A    between atoms: C3_4  and  C4_5 
REMARK    4  A    between atoms: C5_6  and  N1_7 
REMARK    5  A    between atoms: C15_19  and  C16_20 
REMARK    6  A    between atoms: C16_20  and  C17_21 
ROOT
HETATM    1  N1  UNL     1      25.323   1.554  52.527  1.00  0.00    -0.175 N 
HETATM    2  N2  UNL     1      24.179   1.195  52.862  1.00  0.00     0.079 N 
HETATM    3  C6  UNL     1      23.199   0.749  53.149  1.00  0.00     0.180 A 
HETATM    4  C7  UNL     1      21.933   0.277  53.518  1.00  0.00    -0.012 A 
HETATM    5  C8  UNL     1      21.289  -0.525  54.353  1.00  0.00     0.007 A 
HETATM    6  C9  UNL     1      19.976  -0.531  53.969  1.00  0.00    -0.015 A 
HETATM    7  C10 UNL     1      19.767   0.242  52.920  1.00  0.00    -0.004 A 
HETATM    8  C11 UNL     1      20.227   1.280  51.751  1.00  0.00     0.014 A 
HETATM    9  C12 UNL     1      21.046   0.813  52.581  1.00  0.00     0.018 A 
HETATM   10  O2  UNL     1      20.141   1.305  51.697  1.00  0.00     0.000 OA
HETATM   11  C13 UNL     1      19.179   0.292  50.802  1.00  0.00     0.008 A 
HETATM   12  C14 UNL     1      18.432  -0.122  52.102  1.00  0.00     0.015 C 
HETATM   13  C15 UNL     1      24.140  -0.330  52.948  1.00  0.00     0.366 A 
HETATM   14  C16 UNL     1      25.374   0.478  53.452  1.00  0.00     0.362 A 
ENDROOT
BRANCH   1  15
HETATM   15  C5  UNL     1      25.620   2.603  51.676  1.00  0.00     0.121 C 
HETATM   16  C4  UNL     1      24.558   3.344  51.882  1.00  0.00     0.018 C 
BRANCH  16  17
HETATM   17  C3  UNL     1      23.940   4.630  51.454  1.00  0.00    -0.001 C 
HETATM   18  C2  UNL     1      23.057   5.360  50.697  1.00  0.00    -0.001 C 
BRANCH  18  19
HETATM   19  C1  UNL     1      23.093   6.850  50.925  1.00  0.00     0.191 C 
BRANCH  19  20
HETATM   20  O1  UNL     1      24.129   7.236  51.732  1.00  0.00    -0.397 OA
HETATM   21  H1  UNL     1      24.259   8.224  51.686  1.00  0.00     0.209 HD
ENDBRANCH  19  20
ENDBRANCH  18  19
ENDBRANCH  16  17
ENDBRANCH   1  15
BRANCH  14  22
HETATM   22  C17 UNL     1      26.556  -0.411  53.268  1.00  0.00    -0.004 A 
HETATM   23  C18 UNL     1      26.455  -1.689  52.809  1.00  0.00     0.011 A 
HETATM   24  C19 UNL     1      27.481  -2.541  52.615  1.00  0.00     0.002 A 
HETATM   25  C20 UNL     1      28.780  -2.093  52.904  1.00  0.00     0.024 A 
HETATM   26  C21 UNL     1      28.848  -0.797  53.367  1.00  0.00     0.034 A 
HETATM   27 CL1  UNL     1      30.413  -0.069  53.802  1.00  0.00    -0.084 Cl
HETATM   28  C22 UNL     1      27.839   0.113  53.584  1.00  0.00     0.034 A 
ENDBRANCH  14  22
TORSDOF 6
ENDMDL
MODEL 9
REMARK VINA RESULT:      -8.3      2.223      6.438
REMARK  6 active torsions:
REMARK  status: ('A' for Active; 'I' for Inactive)
REMARK    1  A    between atoms: O1_1  and  C1_2 
REMARK    2  A    between atoms: C1_2  and  C2_3 
REMARK    3  A    between atoms: C3_4  and  C4_5 
REMARK    4  A    between atoms: C5_6  and  N1_7 
REMARK    5  A    between atoms: C15_19  and  C16_20 
REMARK    6  A    between atoms: C16_20  and  C17_21 
ROOT
HETATM    1  N1  UNL     1      25.330   2.853  51.180  1.00  0.00    -0.175 N 
HETATM    2  N2  UNL     1      25.222   4.072  50.950  1.00  0.00     0.079 N 
HETATM    3  C6  UNL     1      25.004   5.135  50.697  1.00  0.00     0.180 A 
HETATM    4  C7  UNL     1      24.816   6.493  50.411  1.00  0.00    -0.012 A 
HETATM    5  C8  UNL     1      24.003   7.524  50.588  1.00  0.00     0.007 A 
HETATM    6  C9  UNL     1      24.495   8.555  49.836  1.00  0.00    -0.015 A 
HETATM    7  C10 UNL     1      25.593   8.212  49.190  1.00  0.00    -0.004 A 
HETATM    8  C11 UNL     1      26.780   7.179  48.764  1.00  0.00     0.014 A 
HETATM    9  C12 UNL     1      25.856   6.841  49.545  1.00  0.00     0.018 A 
HETATM   10  O2  UNL     1      26.844   7.231  48.701  1.00  0.00     0.000 OA
HETATM   11  C13 UNL     1      26.495   7.875  47.213  1.00  0.00     0.008 A 
HETATM   12  C14 UNL     1      25.910   9.135  47.912  1.00  0.00     0.015 C 
HETATM   13  C15 UNL     1      23.829   4.351  50.386  1.00  0.00     0.366 A 
HETATM   14  C16 UNL     1      24.044   3.330  51.545  1.00  0.00     0.362 A 
ENDROOT
BRANCH   1  15
HETATM   15  C5  UNL     1      26.469   2.094  50.978  1.00  0.00     0.121 C 
HETATM   16  C4  UNL     1      26.147   1.043  51.693  1.00  0.00     0.018 C 
BRANCH  16  17
HETATM   17  C3  UNL     1      26.681  -0.283  52.111  1.00  0.00    -0.001 C 
HETATM   18  C2  UNL     1      27.359  -1.099  52.984  1.00  0.00    -0.001 C 
BRANCH  18  19
HETATM   19  C1  UNL     1      27.451  -2.546  52.571  1.00  0.00     0.191 C 
BRANCH  19  20
HETATM   20  O1  UNL     1      28.506  -3.195  53.151  1.00  0.00    -0.397 OA
HETATM   21  H1  UNL     1      29.298  -2.592  53.213  1.00  0.00     0.209 HD
ENDBRANCH  19  20
ENDBRANCH  18  19
ENDBRANCH  16  17
ENDBRANCH   1  15
BRANCH  14  22
HETATM   22  C17 UNL     1      22.967   2.309  51.404  1.00  0.00    -0.004 A 
HETATM   23  C18 UNL     1      22.591   1.793  50.200  1.00  0.00     0.011 A 
HETATM   24  C19 UNL     1      21.633   0.866  50.005  1.00  0.00     0.002 A 
HETATM   25  C20 UNL     1      20.946   0.374  51.126  1.00  0.00     0.024 A 
HETATM   26  C21 UNL     1      21.348   0.917  52.327  1.00  0.00     0.034 A 
HETATM   27 CL1  UNL     1      20.574   0.423  53.851  1.00  0.00    -0.084 Cl
HETATM   28  C22 UNL     1      22.316   1.861  52.585  1.00  0.00     0.034 A 
ENDBRANCH  14  22
TORSDOF 6
ENDMDL
