MODEL 1
REMARK VINA RESULT:      -7.9      0.000      0.000
REMARK  7 active torsions:
REMARK  status: ('A' for Active; 'I' for Inactive)
REMARK    1  A    between atoms: C2_2  and  C3_3 
REMARK       I    between atoms: C3_3  and  N1_5 
REMARK    2  A    between atoms: N1_5  and  C5_7 
REMARK    3  A    between atoms: C5_7  and  C6_8 
REMARK    4  A    between atoms: C6_8  and  C7_9 
REMARK    5  A    between atoms: N4_15  and  O2_16 
REMARK    6  A    between atoms: O2_16  and  C11_17 
REMARK    7  A    between atoms: C11_17  and  C13_19 
ROOT
HETATM    1  C7  UNL     1      23.846   0.672  53.116  1.00  0.00    -0.052 C 
HETATM    2  C8  UNL     1      22.510   0.547  53.075  1.00  0.00     0.026 C 
HETATM    3  C9  UNL     1      21.619   1.614  52.686  1.00  0.00     0.138 C 
HETATM    4  N2  UNL     1      20.894   2.591  52.337  1.00  0.00    -0.191 NA
HETATM    5  N3  UNL     1      21.258   3.874  51.969  1.00  0.00    -0.297 N 
HETATM    6  C10 UNL     1      22.332   4.813  52.348  1.00  0.00     0.294 C 
HETATM    7  N4  UNL     1      23.570   4.063  51.938  1.00  0.00    -0.049 NA
HETATM    8  O3  UNL     1      23.382   2.807  52.325  1.00  0.00    -0.273 OA
HETATM    9  C18 UNL     1      24.409   2.015  52.680  1.00  0.00     0.231 C 
HETATM   10  H13 UNL     1      20.410   3.787  51.333  1.00  0.00     0.183 HD
ENDROOT
BRANCH   1  11
HETATM   11  C6  UNL     1      24.678  -0.469  53.529  1.00  0.00     0.056 C 
BRANCH  11  12
HETATM   12  C5  UNL     1      25.850   0.119  54.317  1.00  0.00     0.130 C 
BRANCH  12  13
HETATM   13  N1  UNL     1      27.054  -0.254  53.623  1.00  0.00    -0.353 N 
HETATM   14  C3  UNL     1      28.320   0.162  54.129  1.00  0.00     0.242 C 
HETATM   15  O1  UNL     1      28.524   0.849  55.158  1.00  0.00    -0.268 OA
HETATM   16  C4  UNL     1      26.929  -1.053  52.410  1.00  0.00     0.152 C 
BRANCH  14  17
HETATM   17  C2  UNL     1      29.542  -0.211  53.433  1.00  0.00     0.064 C 
HETATM   18  C1  UNL     1      30.098  -1.363  53.842  1.00  0.00     0.017 C 
ENDBRANCH  14  17
ENDBRANCH  12  13
ENDBRANCH  11  12
ENDBRANCH   1  11
BRANCH   7  19
HETATM   19  O2  UNL     1      23.410   4.040  50.563  1.00  0.00    -0.268 OA
BRANCH  19  20
HETATM   20  C11 UNL     1      23.862   5.172  49.943  1.00  0.00     0.178 C 
HETATM   21  C12 UNL     1      22.955   5.611  48.802  1.00  0.00     0.047 C 
BRANCH  20  22
HETATM   22  C13 UNL     1      25.238   5.127  49.445  1.00  0.00    -0.017 A 
HETATM   23  C14 UNL     1      25.896   6.105  48.841  1.00  0.00    -0.016 A 
HETATM   24  C15 UNL     1      27.141   5.836  48.551  1.00  0.00     0.013 A 
HETATM   25  C16 UNL     1      27.395   4.450  48.933  1.00  0.00     0.002 A 
HETATM   26  C17 UNL     1      26.243   4.069  49.457  1.00  0.00     0.011 A 
ENDBRANCH  20  22
ENDBRANCH  19  20
ENDBRANCH   7  19
TORSDOF 7
ENDMDL
MODEL 2
REMARK VINA RESULT:      -7.5      3.179      4.509
REMARK  7 active torsions:
REMARK  status: ('A' for Active; 'I' for Inactive)
REMARK    1  A    between atoms: C2_2  and  C3_3 
REMARK       I    between atoms: C3_3  and  N1_5 
REMARK    2  A    between atoms: N1_5  and  C5_7 
REMARK    3  A    between atoms: C5_7  and  C6_8 
REMARK    4  A    between atoms: C6_8  and  C7_9 
REMARK    5  A    between atoms: N4_15  and  O2_16 
REMARK    6  A    between atoms: O2_16  and  C11_17 
REMARK    7  A    between atoms: C11_17  and  C13_19 
ROOT
HETATM    1  C7  UNL     1      24.134   1.154  52.847  1.00  0.00    -0.052 C 
HETATM    2  C8  UNL     1      24.231  -0.086  53.353  1.00  0.00     0.026 C 
HETATM    3  C9  UNL     1      23.090  -0.893  53.713  1.00  0.00     0.138 C 
HETATM    4  N2  UNL     1      22.048  -1.548  54.010  1.00  0.00    -0.191 NA
HETATM    5  N3  UNL     1      20.717  -1.184  53.908  1.00  0.00    -0.297 N 
HETATM    6  C10 UNL     1      19.958   0.075  54.039  1.00  0.00     0.294 C 
HETATM    7  N4  UNL     1      20.543   0.915  52.937  1.00  0.00    -0.049 NA
HETATM    8  O3  UNL     1      21.856   0.722  52.987  1.00  0.00    -0.273 OA
HETATM    9  C18 UNL     1      22.726   1.678  52.618  1.00  0.00     0.231 C 
HETATM   10  H13 UNL     1      20.589  -2.220  53.706  1.00  0.00     0.183 HD
ENDROOT
BRANCH   1  11
HETATM   11  C6  UNL     1      25.352   1.908  52.510  1.00  0.00     0.056 C 
BRANCH  11  12
HETATM   12  C5  UNL     1      26.349   0.886  51.958  1.00  0.00     0.130 C 
BRANCH  12  13
HETATM   13  N1  UNL     1      27.480   0.877  52.847  1.00  0.00    -0.353 N 
HETATM   14  C3  UNL     1      27.945  -0.357  53.387  1.00  0.00     0.242 C 
HETATM   15  O1  UNL     1      27.464  -1.495  53.172  1.00  0.00    -0.268 OA
HETATM   16  C4  UNL     1      28.114   2.151  53.166  1.00  0.00     0.152 C 
BRANCH  14  17
HETATM   17  C2  UNL     1      29.088  -0.375  54.287  1.00  0.00     0.064 C 
HETATM   18  C1  UNL     1      30.200  -0.930  53.780  1.00  0.00     0.017 C 
ENDBRANCH  14  17
ENDBRANCH  12  13
ENDBRANCH  11  12
ENDBRANCH   1  11
BRANCH   7  19
HETATM   19  O2  UNL     1      20.120   0.208  51.826  1.00  0.00    -0.268 OA
BRANCH  19  20
HETATM   20  C11 UNL     1      19.444   0.975  50.917  1.00  0.00     0.178 C 
HETATM   21  C12 UNL     1      18.173   0.301  50.419  1.00  0.00     0.047 C 
BRANCH  20  22
HETATM   22  C13 UNL     1      20.212   1.421  49.753  1.00  0.00    -0.017 A 
HETATM   23  C14 UNL     1      21.385   0.956  49.350  1.00  0.00    -0.016 A 
HETATM   24  C15 UNL     1      21.833   1.477  48.239  1.00  0.00     0.013 A 
HETATM   25  C16 UNL     1      20.890   2.509  47.821  1.00  0.00     0.002 A 
HETATM   26  C17 UNL     1      19.946   2.443  48.745  1.00  0.00     0.011 A 
ENDBRANCH  20  22
ENDBRANCH  19  20
ENDBRANCH   7  19
TORSDOF 7
ENDMDL
MODEL 3
REMARK VINA RESULT:      -7.4      2.231      6.233
REMARK  7 active torsions:
REMARK  status: ('A' for Active; 'I' for Inactive)
REMARK    1  A    between atoms: C2_2  and  C3_3 
REMARK       I    between atoms: C3_3  and  N1_5 
REMARK    2  A    between atoms: N1_5  and  C5_7 
REMARK    3  A    between atoms: C5_7  and  C6_8 
REMARK    4  A    between atoms: C6_8  and  C7_9 
REMARK    5  A    between atoms: N4_15  and  O2_16 
REMARK    6  A    between atoms: O2_16  and  C11_17 
REMARK    7  A    between atoms: C11_17  and  C13_19 
ROOT
HETATM    1  C7  UNL     1      23.415   4.338  51.200  1.00  0.00    -0.052 C 
HETATM    2  C8  UNL     1      22.242   4.778  51.684  1.00  0.00     0.026 C 
HETATM    3  C9  UNL     1      21.213   3.907  52.199  1.00  0.00     0.138 C 
HETATM    4  N2  UNL     1      20.352   3.088  52.635  1.00  0.00    -0.191 NA
HETATM    5  N3  UNL     1      20.399   1.707  52.699  1.00  0.00    -0.297 N 
HETATM    6  C10 UNL     1      20.995   0.635  51.877  1.00  0.00     0.294 C 
HETATM    7  N4  UNL     1      22.463   0.950  51.960  1.00  0.00    -0.049 NA
HETATM    8  O3  UNL     1      22.564   2.266  51.818  1.00  0.00    -0.273 OA
HETATM    9  C18 UNL     1      23.644   2.836  51.255  1.00  0.00     0.231 C 
HETATM   10  H13 UNL     1      19.824   1.862  53.580  1.00  0.00     0.183 HD
ENDROOT
BRANCH   1  11
HETATM   11  C6  UNL     1      24.406   5.298  50.691  1.00  0.00     0.056 C 
BRANCH  11  12
HETATM   12  C5  UNL     1      24.695   4.890  49.244  1.00  0.00     0.130 C 
BRANCH  12  13
HETATM   13  N1  UNL     1      25.742   5.752  48.764  1.00  0.00    -0.353 N 
HETATM   14  C3  UNL     1      27.080   5.266  48.690  1.00  0.00     0.242 C 
HETATM   15  O1  UNL     1      27.478   4.120  49.009  1.00  0.00    -0.268 OA
HETATM   16  C4  UNL     1      25.387   7.109  48.366  1.00  0.00     0.152 C 
BRANCH  14  17
HETATM   17  C2  UNL     1      28.144   6.132  48.204  1.00  0.00     0.064 C 
HETATM   18  C1  UNL     1      29.366   5.576  48.194  1.00  0.00     0.017 C 
ENDBRANCH  14  17
ENDBRANCH  12  13
ENDBRANCH  11  12
ENDBRANCH   1  11
BRANCH   7  19
HETATM   19  O2  UNL     1      22.698   0.717  53.304  1.00  0.00    -0.268 OA
BRANCH  19  20
HETATM   20  C11 UNL     1      23.421  -0.420  53.542  1.00  0.00     0.178 C 
HETATM   21  C12 UNL     1      22.968  -1.143  54.802  1.00  0.00     0.047 C 
BRANCH  20  22
HETATM   22  C13 UNL     1      24.874  -0.258  53.603  1.00  0.00    -0.017 A 
HETATM   23  C14 UNL     1      25.707  -0.161  52.577  1.00  0.00    -0.016 A 
HETATM   24  C15 UNL     1      26.956   0.046  52.896  1.00  0.00     0.013 A 
HETATM   25  C16 UNL     1      27.050   0.025  54.353  1.00  0.00     0.002 A 
HETATM   26  C17 UNL     1      25.796  -0.157  54.730  1.00  0.00     0.011 A 
ENDBRANCH  20  22
ENDBRANCH  19  20
ENDBRANCH   7  19
TORSDOF 7
ENDMDL
MODEL 4
REMARK VINA RESULT:      -7.3      2.576      5.199
REMARK  7 active torsions:
REMARK  status: ('A' for Active; 'I' for Inactive)
REMARK    1  A    between atoms: C2_2  and  C3_3 
REMARK       I    between atoms: C3_3  and  N1_5 
REMARK    2  A    between atoms: N1_5  and  C5_7 
REMARK    3  A    between atoms: C5_7  and  C6_8 
REMARK    4  A    between atoms: C6_8  and  C7_9 
REMARK    5  A    between atoms: N4_15  and  O2_16 
REMARK    6  A    between atoms: O2_16  and  C11_17 
REMARK    7  A    between atoms: C11_17  and  C13_19 
ROOT
HETATM    1  C7  UNL     1      23.965   1.720  52.146  1.00  0.00    -0.052 C 
HETATM    2  C8  UNL     1      23.899   2.907  52.771  1.00  0.00     0.026 C 
HETATM    3  C9  UNL     1      22.944   3.935  52.433  1.00  0.00     0.138 C 
HETATM    4  N2  UNL     1      22.082   4.795  52.086  1.00  0.00    -0.191 NA
HETATM    5  N3  UNL     1      21.122   4.733  51.092  1.00  0.00    -0.297 N 
HETATM    6  C10 UNL     1      21.029   4.108  49.757  1.00  0.00     0.294 C 
HETATM    7  N4  UNL     1      21.165   2.646  50.081  1.00  0.00    -0.049 NA
HETATM    8  O3  UNL     1      22.140   2.558  50.978  1.00  0.00    -0.273 OA
HETATM    9  C18 UNL     1      22.931   1.474  51.060  1.00  0.00     0.231 C 
HETATM   10  H13 UNL     1      20.567   5.327  51.777  1.00  0.00     0.183 HD
ENDROOT
BRANCH   1  11
HETATM   11  C6  UNL     1      24.974   0.731  52.554  1.00  0.00     0.056 C 
BRANCH  11  12
HETATM   12  C5  UNL     1      25.676   1.315  53.782  1.00  0.00     0.130 C 
BRANCH  12  13
HETATM   13  N1  UNL     1      27.090   1.260  53.526  1.00  0.00    -0.353 N 
HETATM   14  C3  UNL     1      27.901   0.324  54.232  1.00  0.00     0.242 C 
HETATM   15  O1  UNL     1      27.513  -0.500  55.094  1.00  0.00    -0.268 OA
HETATM   16  C4  UNL     1      27.646   2.179  52.539  1.00  0.00     0.152 C 
BRANCH  14  17
HETATM   17  C2  UNL     1      29.333   0.262  53.978  1.00  0.00     0.064 C 
HETATM   18  C1  UNL     1      29.773  -0.913  53.500  1.00  0.00     0.017 C 
ENDBRANCH  14  17
ENDBRANCH  12  13
ENDBRANCH  11  12
ENDBRANCH   1  11
BRANCH   7  19
HETATM   19  O2  UNL     1      20.000   2.434  50.797  1.00  0.00    -0.268 OA
BRANCH  19  20
HETATM   20  C11 UNL     1      19.355   1.276  50.458  1.00  0.00     0.178 C 
HETATM   21  C12 UNL     1      18.045   1.532  49.727  1.00  0.00     0.047 C 
BRANCH  20  22
HETATM   22  C13 UNL     1      19.094   0.341  51.554  1.00  0.00    -0.017 A 
HETATM   23  C14 UNL     1      19.902   0.055  52.564  1.00  0.00    -0.016 A 
HETATM   24  C15 UNL     1      19.407  -0.766  53.452  1.00  0.00     0.013 A 
HETATM   25  C16 UNL     1      18.089  -1.184  52.983  1.00  0.00     0.002 A 
HETATM   26  C17 UNL     1      17.944  -0.506  51.858  1.00  0.00     0.011 A 
ENDBRANCH  20  22
ENDBRANCH  19  20
ENDBRANCH   7  19
TORSDOF 7
ENDMDL
MODEL 5
REMARK VINA RESULT:      -7.2      2.295      7.318
REMARK  7 active torsions:
REMARK  status: ('A' for Active; 'I' for Inactive)
REMARK    1  A    between atoms: C2_2  and  C3_3 
REMARK       I    between atoms: C3_3  and  N1_5 
REMARK    2  A    between atoms: N1_5  and  C5_7 
REMARK    3  A    between atoms: C5_7  and  C6_8 
REMARK    4  A    between atoms: C6_8  and  C7_9 
REMARK    5  A    between atoms: N4_15  and  O2_16 
REMARK    6  A    between atoms: O2_16  and  C11_17 
REMARK    7  A    between atoms: C11_17  and  C13_19 
ROOT
HETATM    1  C7  UNL     1      23.053   2.583  49.983  1.00  0.00    -0.052 C 
HETATM    2  C8  UNL     1      23.988   3.364  49.419  1.00  0.00     0.026 C 
HETATM    3  C9  UNL     1      25.342   3.470  49.907  1.00  0.00     0.138 C 
HETATM    4  N2  UNL     1      26.512   3.519  50.387  1.00  0.00    -0.191 NA
HETATM    5  N3  UNL     1      27.044   2.866  51.485  1.00  0.00    -0.297 N 
HETATM    6  C10 UNL     1      26.531   2.421  52.795  1.00  0.00     0.294 C 
HETATM    7  N4  UNL     1      25.463   1.438  52.401  1.00  0.00    -0.049 NA
HETATM    8  O3  UNL     1      24.806   1.997  51.392  1.00  0.00    -0.273 OA
HETATM    9  C18 UNL     1      23.502   1.751  51.174  1.00  0.00     0.231 C 
HETATM   10  H13 UNL     1      27.929   2.878  50.895  1.00  0.00     0.183 HD
ENDROOT
BRANCH   1  11
HETATM   11  C6  UNL     1      21.694   2.538  49.420  1.00  0.00     0.056 C 
BRANCH  11  12
HETATM   12  C5  UNL     1      20.780   3.198  50.454  1.00  0.00     0.130 C 
BRANCH  12  13
HETATM   13  N1  UNL     1      20.795   4.612  50.190  1.00  0.00    -0.353 N 
HETATM   14  C3  UNL     1      21.443   5.495  51.101  1.00  0.00     0.242 C 
HETATM   15  O1  UNL     1      22.032   5.176  52.162  1.00  0.00    -0.268 OA
HETATM   16  C4  UNL     1      20.137   5.092  48.981  1.00  0.00     0.152 C 
BRANCH  14  17
HETATM   17  C2  UNL     1      21.464   6.927  50.840  1.00  0.00     0.064 C 
HETATM   18  C1  UNL     1      22.659   7.420  50.478  1.00  0.00     0.017 C 
ENDBRANCH  14  17
ENDBRANCH  12  13
ENDBRANCH  11  12
ENDBRANCH   1  11
BRANCH   7  19
HETATM   19  O2  UNL     1      26.233   0.445  51.820  1.00  0.00    -0.268 OA
BRANCH  19  20
HETATM   20  C11 UNL     1      26.318  -0.692  52.575  1.00  0.00     0.178 C 
HETATM   21  C12 UNL     1      25.425  -0.639  53.807  1.00  0.00     0.047 C 
BRANCH  20  22
HETATM   22  C13 UNL     1      27.663  -1.083  53.000  1.00  0.00    -0.017 A 
HETATM   23  C14 UNL     1      28.196  -2.294  52.934  1.00  0.00    -0.016 A 
HETATM   24  C15 UNL     1      29.442  -2.370  53.317  1.00  0.00     0.013 A 
HETATM   25  C16 UNL     1      29.842  -1.049  53.791  1.00  0.00     0.002 A 
HETATM   26  C17 UNL     1      28.760  -0.318  53.586  1.00  0.00     0.011 A 
ENDBRANCH  20  22
ENDBRANCH  19  20
ENDBRANCH   7  19
TORSDOF 7
ENDMDL
MODEL 6
REMARK VINA RESULT:      -7.2      3.630      7.015
REMARK  7 active torsions:
REMARK  status: ('A' for Active; 'I' for Inactive)
REMARK    1  A    between atoms: C2_2  and  C3_3 
REMARK       I    between atoms: C3_3  and  N1_5 
REMARK    2  A    between atoms: N1_5  and  C5_7 
REMARK    3  A    between atoms: C5_7  and  C6_8 
REMARK    4  A    between atoms: C6_8  and  C7_9 
REMARK    5  A    between atoms: N4_15  and  O2_16 
REMARK    6  A    between atoms: O2_16  and  C11_17 
REMARK    7  A    between atoms: C11_17  and  C13_19 
ROOT
HETATM    1  C7  UNL     1      27.194   6.053  48.437  1.00  0.00    -0.052 C 
HETATM    2  C8  UNL     1      26.067   6.769  48.292  1.00  0.00     0.026 C 
HETATM    3  C9  UNL     1      24.753   6.265  48.613  1.00  0.00     0.138 C 
HETATM    4  N2  UNL     1      23.631   5.762  48.912  1.00  0.00    -0.191 NA
HETATM    5  N3  UNL     1      23.328   4.500  49.392  1.00  0.00    -0.297 N 
HETATM    6  C10 UNL     1      23.882   3.144  49.210  1.00  0.00     0.294 C 
HETATM    7  N4  UNL     1      25.279   3.297  49.743  1.00  0.00    -0.049 NA
HETATM    8  O3  UNL     1      25.728   4.454  49.269  1.00  0.00    -0.273 OA
HETATM    9  C18 UNL     1      27.032   4.656  49.014  1.00  0.00     0.231 C 
HETATM   10  H13 UNL     1      22.558   5.027  49.903  1.00  0.00     0.183 HD
ENDROOT
BRANCH   1  11
HETATM   11  C6  UNL     1      28.492   6.646  48.082  1.00  0.00     0.056 C 
BRANCH  11  12
HETATM   12  C5  UNL     1      29.522   5.519  48.191  1.00  0.00     0.130 C 
BRANCH  12  13
HETATM   13  N1  UNL     1      30.785   6.131  48.509  1.00  0.00    -0.353 N 
HETATM   14  C3  UNL     1      31.974   5.347  48.495  1.00  0.00     0.242 C 
HETATM   15  O1  UNL     1      32.061   4.125  48.227  1.00  0.00    -0.268 OA
HETATM   16  C4  UNL     1      30.796   7.552  48.838  1.00  0.00     0.152 C 
BRANCH  14  17
HETATM   17  C2  UNL     1      33.256   5.959  48.815  1.00  0.00     0.064 C 
HETATM   18  C1  UNL     1      34.292   5.521  48.082  1.00  0.00     0.017 C 
ENDBRANCH  14  17
ENDBRANCH  12  13
ENDBRANCH  11  12
ENDBRANCH   1  11
BRANCH   7  19
HETATM   19  O2  UNL     1      25.017   3.537  51.080  1.00  0.00    -0.268 OA
BRANCH  19  20
HETATM   20  C11 UNL     1      25.516   2.575  51.915  1.00  0.00     0.178 C 
HETATM   21  C12 UNL     1      26.630   1.764  51.267  1.00  0.00     0.047 C 
BRANCH  20  22
HETATM   22  C13 UNL     1      24.539   1.643  52.480  1.00  0.00    -0.017 A 
HETATM   23  C14 UNL     1      23.231   1.829  52.582  1.00  0.00    -0.016 A 
HETATM   24  C15 UNL     1      22.565   0.814  53.065  1.00  0.00     0.013 A 
HETATM   25  C16 UNL     1      23.532  -0.218  53.427  1.00  0.00     0.002 A 
HETATM   26  C17 UNL     1      24.686   0.313  53.064  1.00  0.00     0.011 A 
ENDBRANCH  20  22
ENDBRANCH  19  20
ENDBRANCH   7  19
TORSDOF 7
ENDMDL
MODEL 7
REMARK VINA RESULT:      -7.2      2.329      7.587
REMARK  7 active torsions:
REMARK  status: ('A' for Active; 'I' for Inactive)
REMARK    1  A    between atoms: C2_2  and  C3_3 
REMARK       I    between atoms: C3_3  and  N1_5 
REMARK    2  A    between atoms: N1_5  and  C5_7 
REMARK    3  A    between atoms: C5_7  and  C6_8 
REMARK    4  A    between atoms: C6_8  and  C7_9 
REMARK    5  A    between atoms: N4_15  and  O2_16 
REMARK    6  A    between atoms: O2_16  and  C11_17 
REMARK    7  A    between atoms: C11_17  and  C13_19 
ROOT
HETATM    1  C7  UNL     1      23.724   4.580  50.824  1.00  0.00    -0.052 C 
HETATM    2  C8  UNL     1      24.822   4.502  50.057  1.00  0.00     0.026 C 
HETATM    3  C9  UNL     1      25.975   3.701  50.391  1.00  0.00     0.138 C 
HETATM    4  N2  UNL     1      26.954   2.980  50.744  1.00  0.00    -0.191 NA
HETATM    5  N3  UNL     1      27.114   2.199  51.875  1.00  0.00    -0.297 N 
HETATM    6  C10 UNL     1      26.676   2.284  53.282  1.00  0.00     0.294 C 
HETATM    7  N4  UNL     1      25.178   2.249  53.151  1.00  0.00    -0.049 NA
HETATM    8  O3  UNL     1      24.880   3.049  52.134  1.00  0.00    -0.273 OA
HETATM    9  C18 UNL     1      23.721   3.728  52.083  1.00  0.00     0.231 C 
HETATM   10  H13 UNL     1      27.669   1.584  51.208  1.00  0.00     0.183 HD
ENDROOT
BRANCH   1  11
HETATM   11  C6  UNL     1      22.594   5.426  50.407  1.00  0.00     0.056 C 
BRANCH  11  12
HETATM   12  C5  UNL     1      21.560   5.345  51.532  1.00  0.00     0.130 C 
BRANCH  12  13
HETATM   13  N1  UNL     1      20.406   4.674  50.996  1.00  0.00    -0.353 N 
HETATM   14  C3  UNL     1      19.827   3.584  51.709  1.00  0.00     0.242 C 
HETATM   15  O1  UNL     1      20.221   3.113  52.802  1.00  0.00    -0.268 OA
HETATM   16  C4  UNL     1      19.866   5.143  49.725  1.00  0.00     0.152 C 
BRANCH  14  17
HETATM   17  C2  UNL     1      18.659   2.900  51.173  1.00  0.00     0.064 C 
HETATM   18  C1  UNL     1      18.514   1.627  51.575  1.00  0.00     0.017 C 
ENDBRANCH  14  17
ENDBRANCH  12  13
ENDBRANCH  11  12
ENDBRANCH   1  11
BRANCH   7  19
HETATM   19  O2  UNL     1      24.994   0.967  52.664  1.00  0.00    -0.268 OA
BRANCH  19  20
HETATM   20  C11 UNL     1      24.713   0.048  53.637  1.00  0.00     0.178 C 
HETATM   21  C12 UNL     1      25.529  -1.228  53.484  1.00  0.00     0.047 C 
BRANCH  20  22
HETATM   22  C13 UNL     1      23.305  -0.322  53.785  1.00  0.00    -0.017 A 
HETATM   23  C14 UNL     1      22.303   0.033  52.995  1.00  0.00    -0.016 A 
HETATM   24  C15 UNL     1      21.145  -0.485  53.304  1.00  0.00     0.013 A 
HETATM   25  C16 UNL     1      21.320  -1.265  54.527  1.00  0.00     0.002 A 
HETATM   26  C17 UNL     1      22.613  -1.141  54.776  1.00  0.00     0.011 A 
ENDBRANCH  20  22
ENDBRANCH  19  20
ENDBRANCH   7  19
TORSDOF 7
ENDMDL
MODEL 8
REMARK VINA RESULT:      -7.1      3.474      7.543
REMARK  7 active torsions:
REMARK  status: ('A' for Active; 'I' for Inactive)
REMARK    1  A    between atoms: C2_2  and  C3_3 
REMARK       I    between atoms: C3_3  and  N1_5 
REMARK    2  A    between atoms: N1_5  and  C5_7 
REMARK    3  A    between atoms: C5_7  and  C6_8 
REMARK    4  A    between atoms: C6_8  and  C7_9 
REMARK    5  A    between atoms: N4_15  and  O2_16 
REMARK    6  A    between atoms: O2_16  and  C11_17 
REMARK    7  A    between atoms: C11_17  and  C13_19 
ROOT
HETATM    1  C7  UNL     1      27.578   5.487  48.561  1.00  0.00    -0.052 C 
HETATM    2  C8  UNL     1      26.652   6.459  48.534  1.00  0.00     0.026 C 
HETATM    3  C9  UNL     1      25.265   6.250  48.873  1.00  0.00     0.138 C 
HETATM    4  N2  UNL     1      24.063   5.998  49.182  1.00  0.00    -0.191 NA
HETATM    5  N3  UNL     1      23.480   4.804  49.565  1.00  0.00    -0.297 N 
HETATM    6  C10 UNL     1      23.689   3.379  49.238  1.00  0.00     0.294 C 
HETATM    7  N4  UNL     1      25.096   3.147  49.714  1.00  0.00    -0.049 NA
HETATM    8  O3  UNL     1      25.795   4.205  49.321  1.00  0.00    -0.273 OA
HETATM    9  C18 UNL     1      27.103   4.118  49.022  1.00  0.00     0.231 C 
HETATM   10  H13 UNL     1      22.872   5.445  50.157  1.00  0.00     0.183 HD
ENDROOT
BRANCH   1  11
HETATM   11  C6  UNL     1      28.971   5.789  48.196  1.00  0.00     0.056 C 
BRANCH  11  12
HETATM   12  C5  UNL     1      28.945   7.149  47.494  1.00  0.00     0.130 C 
BRANCH  12  13
HETATM   13  N1  UNL     1      29.968   7.957  48.102  1.00  0.00    -0.353 N 
HETATM   14  C3  UNL     1      29.602   9.024  48.972  1.00  0.00     0.242 C 
HETATM   15  O1  UNL     1      28.438   9.364  49.289  1.00  0.00    -0.268 OA
HETATM   16  C4  UNL     1      31.360   7.646  47.798  1.00  0.00     0.152 C 
BRANCH  14  17
HETATM   17  C2  UNL     1      30.631   9.846  49.591  1.00  0.00     0.064 C 
HETATM   18  C1  UNL     1      30.681  11.115  49.155  1.00  0.00     0.017 C 
ENDBRANCH  14  17
ENDBRANCH  12  13
ENDBRANCH  11  12
ENDBRANCH   1  11
BRANCH   7  19
HETATM   19  O2  UNL     1      24.935   3.312  51.078  1.00  0.00    -0.268 OA
BRANCH  19  20
HETATM   20  C11 UNL     1      24.763   2.135  51.754  1.00  0.00     0.178 C 
HETATM   21  C12 UNL     1      23.791   2.269  52.917  1.00  0.00     0.047 C 
BRANCH  20  22
HETATM   22  C13 UNL     1      25.983   1.492  52.247  1.00  0.00    -0.017 A 
HETATM   23  C14 UNL     1      26.213   0.191  52.341  1.00  0.00    -0.016 A 
HETATM   24  C15 UNL     1      27.410  -0.130  52.752  1.00  0.00     0.013 A 
HETATM   25  C16 UNL     1      28.118   1.108  53.065  1.00  0.00     0.002 A 
HETATM   26  C17 UNL     1      27.237   2.043  52.752  1.00  0.00     0.011 A 
ENDBRANCH  20  22
ENDBRANCH  19  20
ENDBRANCH   7  19
TORSDOF 7
ENDMDL
MODEL 9
REMARK VINA RESULT:      -7.1      2.340      7.269
REMARK  7 active torsions:
REMARK  status: ('A' for Active; 'I' for Inactive)
REMARK    1  A    between atoms: C2_2  and  C3_3 
REMARK       I    between atoms: C3_3  and  N1_5 
REMARK    2  A    between atoms: N1_5  and  C5_7 
REMARK    3  A    between atoms: C5_7  and  C6_8 
REMARK    4  A    between atoms: C6_8  and  C7_9 
REMARK    5  A    between atoms: N4_15  and  O2_16 
REMARK    6  A    between atoms: O2_16  and  C11_17 
REMARK    7  A    between atoms: C11_17  and  C13_19 
ROOT
HETATM    1  C7  UNL     1      25.773   2.287  51.403  1.00  0.00    -0.052 C 
HETATM    2  C8  UNL     1      26.724   1.360  51.211  1.00  0.00     0.026 C 
HETATM    3  C9  UNL     1      26.838   0.157  52.000  1.00  0.00     0.138 C 
HETATM    4  N2  UNL     1      26.883  -0.876  52.730  1.00  0.00    -0.191 NA
HETATM    5  N3  UNL     1      26.068  -1.250  53.784  1.00  0.00    -0.297 N 
HETATM    6  C10 UNL     1      25.327  -0.539  54.845  1.00  0.00     0.294 C 
HETATM    7  N4  UNL     1      24.361   0.298  54.052  1.00  0.00    -0.049 NA
HETATM    8  O3  UNL     1      25.058   0.799  53.038  1.00  0.00    -0.273 OA
HETATM    9  C18 UNL     1      24.757   1.992  52.495  1.00  0.00     0.231 C 
HETATM   10  H13 UNL     1      26.270  -2.228  53.418  1.00  0.00     0.183 HD
ENDROOT
BRANCH   1  11
HETATM   11  C6  UNL     1      25.734   3.487  50.552  1.00  0.00     0.056 C 
BRANCH  11  12
HETATM   12  C5  UNL     1      24.292   3.612  50.054  1.00  0.00     0.130 C 
BRANCH  12  13
HETATM   13  N1  UNL     1      24.012   5.017  49.921  1.00  0.00    -0.353 N 
HETATM   14  C3  UNL     1      23.133   5.653  50.844  1.00  0.00     0.242 C 
HETATM   15  O1  UNL     1      22.542   5.112  51.809  1.00  0.00    -0.268 OA
HETATM   16  C4  UNL     1      24.649   5.744  48.829  1.00  0.00     0.152 C 
BRANCH  14  17
HETATM   17  C2  UNL     1      22.846   7.074  50.717  1.00  0.00     0.064 C 
HETATM   18  C1  UNL     1      21.542   7.395  50.758  1.00  0.00     0.017 C 
ENDBRANCH  14  17
ENDBRANCH  12  13
ENDBRANCH  11  12
ENDBRANCH   1  11
BRANCH   7  19
HETATM   19  O2  UNL     1      23.572  -0.689  53.489  1.00  0.00    -0.268 OA
BRANCH  19  20
HETATM   20  C11 UNL     1      22.253  -0.600  53.842  1.00  0.00     0.178 C 
HETATM   21  C12 UNL     1      21.720  -1.898  54.432  1.00  0.00     0.047 C 
BRANCH  20  22
HETATM   22  C13 UNL     1      21.334  -0.162  52.790  1.00  0.00    -0.017 A 
HETATM   23  C14 UNL     1      21.649   0.175  51.548  1.00  0.00    -0.016 A 
HETATM   24  C15 UNL     1      20.634   0.467  50.780  1.00  0.00     0.013 A 
HETATM   25  C16 UNL     1      19.426   0.401  51.598  1.00  0.00     0.002 A 
HETATM   26  C17 UNL     1      19.886   0.025  52.779  1.00  0.00     0.011 A 
ENDBRANCH  20  22
ENDBRANCH  19  20
ENDBRANCH   7  19
TORSDOF 7
ENDMDL
