MODEL 1
REMARK VINA RESULT:      -6.9      0.000      0.000
REMARK  6 active torsions:
REMARK  status: ('A' for Active; 'I' for Inactive)
REMARK    1  A    between atoms: C3_3  and  C4_4 
REMARK    2  A    between atoms: C5_5  and  C6_6 
REMARK    3  A    between atoms: C5_5  and  S1_8 
REMARK    4  A    between atoms: S1_8  and  N1_11 
REMARK       I    between atoms: N1_11  and  C8_12 
REMARK    5  A    between atoms: C8_12  and  C9_14 
REMARK    6  A    between atoms: C9_14  and  C10_15 
ROOT
HETATM    1  C1  UNL     1      21.647   3.875  46.704  1.00  0.00     0.012 C 
HETATM    2  C2  UNL     1      21.893   2.910  47.419  1.00  0.00    -0.114 C 
HETATM    3  C3  UNL     1      22.182   1.738  48.256  1.00  0.00     0.121 C 
ENDROOT
BRANCH   3   4
HETATM    4  C4  UNL     1      22.501   2.165  49.613  1.00  0.00     0.010 C 
HETATM    5  C5  UNL     1      23.376   2.734  50.415  1.00  0.00     0.076 C 
BRANCH   5   6
HETATM    6  C6  UNL     1      24.616   3.182  49.812  1.00  0.00     0.014 C 
HETATM    7  C7  UNL     1      24.676   4.407  49.258  1.00  0.00     0.013 C 
ENDBRANCH   5   6
BRANCH   5   8
HETATM    8  S1  UNL     1      23.121   2.970  52.105  1.00  0.00     0.265 S 
HETATM    9  O1  UNL     1      21.616   3.105  52.299  1.00  0.00    -0.200 OA
HETATM   10  O2  UNL     1      23.680   4.313  52.479  1.00  0.00    -0.200 OA
BRANCH   8  11
HETATM   11  N1  UNL     1      23.784   1.739  53.089  1.00  0.00    -0.250 N 
HETATM   12  C8  UNL     1      23.323   0.398  53.124  1.00  0.00     0.235 C 
HETATM   13  O3  UNL     1      22.373  -0.076  52.446  1.00  0.00    -0.272 OA
HETATM   14  H8  UNL     1      24.593   2.048  53.696  1.00  0.00     0.181 HD
BRANCH  12  15
HETATM   15  C9  UNL     1      24.016  -0.521  54.032  1.00  0.00     0.142 C 
BRANCH  15  16
HETATM   16  C10 UNL     1      25.494  -0.457  53.900  1.00  0.00    -0.049 A 
HETATM   17  C11 UNL     1      26.311   0.182  54.838  1.00  0.00     0.011 A 
HETATM   18  C12 UNL     1      27.679   0.235  54.703  1.00  0.00     0.043 A 
HETATM   19  C13 UNL     1      28.269  -0.371  53.589  1.00  0.00     0.116 A 
HETATM   20  F1  UNL     1      29.601  -0.383  53.351  1.00  0.00    -0.206 F 
HETATM   21  C14 UNL     1      27.504  -1.012  52.640  1.00  0.00     0.043 A 
HETATM   22  C15 UNL     1      26.128  -1.051  52.801  1.00  0.00     0.011 A 
ENDBRANCH  15  16
ENDBRANCH  12  15
ENDBRANCH   8  11
ENDBRANCH   5   8
ENDBRANCH   3   4
TORSDOF 6
ENDMDL
MODEL 2
REMARK VINA RESULT:      -6.9      2.653      4.649
REMARK  6 active torsions:
REMARK  status: ('A' for Active; 'I' for Inactive)
REMARK    1  A    between atoms: C3_3  and  C4_4 
REMARK    2  A    between atoms: C5_5  and  C6_6 
REMARK    3  A    between atoms: C5_5  and  S1_8 
REMARK    4  A    between atoms: S1_8  and  N1_11 
REMARK       I    between atoms: N1_11  and  C8_12 
REMARK    5  A    between atoms: C8_12  and  C9_14 
REMARK    6  A    between atoms: C9_14  and  C10_15 
ROOT
HETATM    1  C1  UNL     1      26.856  -0.558  52.400  1.00  0.00     0.012 C 
HETATM    2  C2  UNL     1      26.994   0.651  52.249  1.00  0.00    -0.114 C 
HETATM    3  C3  UNL     1      27.183   2.097  52.076  1.00  0.00     0.121 C 
ENDROOT
BRANCH   3   4
HETATM    4  C4  UNL     1      25.937   2.709  51.629  1.00  0.00     0.010 C 
HETATM    5  C5  UNL     1      25.286   3.300  50.649  1.00  0.00     0.076 C 
BRANCH   5   6
HETATM    6  C6  UNL     1      26.010   3.488  49.407  1.00  0.00     0.014 C 
HETATM    7  C7  UNL     1      26.741   4.604  49.232  1.00  0.00     0.013 C 
ENDBRANCH   5   6
BRANCH   5   8
HETATM    8  S1  UNL     1      23.653   3.841  50.768  1.00  0.00     0.265 S 
HETATM    9  O1  UNL     1      23.244   4.294  49.372  1.00  0.00    -0.200 OA
HETATM   10  O2  UNL     1      23.634   5.091  51.601  1.00  0.00    -0.200 OA
BRANCH   8  11
HETATM   11  N1  UNL     1      22.575   2.673  51.401  1.00  0.00    -0.250 N 
HETATM   12  C8  UNL     1      22.077   1.561  50.677  1.00  0.00     0.235 C 
HETATM   13  O3  UNL     1      22.349   1.273  49.482  1.00  0.00    -0.272 OA
HETATM   14  H8  UNL     1      22.290   2.836  52.407  1.00  0.00     0.181 HD
BRANCH  12  15
HETATM   15  C9  UNL     1      21.160   0.662  51.386  1.00  0.00     0.142 C 
BRANCH  15  16
HETATM   16  C10 UNL     1      21.770   0.053  52.595  1.00  0.00    -0.049 A 
HETATM   17  C11 UNL     1      23.150   0.029  52.818  1.00  0.00     0.011 A 
HETATM   18  C12 UNL     1      23.701  -0.540  53.942  1.00  0.00     0.043 A 
HETATM   19  C13 UNL     1      22.850  -1.113  54.892  1.00  0.00     0.116 A 
HETATM   20  F1  UNL     1      23.277  -1.700  56.035  1.00  0.00    -0.206 F 
HETATM   21  C14 UNL     1      21.485  -1.113  54.716  1.00  0.00     0.043 A 
HETATM   22  C15 UNL     1      20.955  -0.533  53.574  1.00  0.00     0.011 A 
ENDBRANCH  15  16
ENDBRANCH  12  15
ENDBRANCH   8  11
ENDBRANCH   5   8
ENDBRANCH   3   4
TORSDOF 6
ENDMDL
MODEL 3
REMARK VINA RESULT:      -6.6      3.669      5.628
REMARK  6 active torsions:
REMARK  status: ('A' for Active; 'I' for Inactive)
REMARK    1  A    between atoms: C3_3  and  C4_4 
REMARK    2  A    between atoms: C5_5  and  C6_6 
REMARK    3  A    between atoms: C5_5  and  S1_8 
REMARK    4  A    between atoms: S1_8  and  N1_11 
REMARK       I    between atoms: N1_11  and  C8_12 
REMARK    5  A    between atoms: C8_12  and  C9_14 
REMARK    6  A    between atoms: C9_14  and  C10_15 
ROOT
HETATM    1  C1  UNL     1      23.936   3.749  50.241  1.00  0.00     0.012 C 
HETATM    2  C2  UNL     1      25.003   3.186  50.462  1.00  0.00    -0.114 C 
HETATM    3  C3  UNL     1      26.291   2.526  50.708  1.00  0.00     0.121 C 
ENDROOT
BRANCH   3   4
HETATM    4  C4  UNL     1      26.146   1.535  51.767  1.00  0.00     0.010 C 
HETATM    5  C5  UNL     1      26.718   0.890  52.762  1.00  0.00     0.076 C 
BRANCH   5   6
HETATM    6  C6  UNL     1      28.105   1.210  53.034  1.00  0.00     0.014 C 
HETATM    7  C7  UNL     1      28.411   2.388  53.609  1.00  0.00     0.013 C 
ENDBRANCH   5   6
BRANCH   5   8
HETATM    8  S1  UNL     1      25.913  -0.285  53.736  1.00  0.00     0.265 S 
HETATM    9  O1  UNL     1      26.095   0.156  55.182  1.00  0.00    -0.200 OA
HETATM   10  O2  UNL     1      26.668  -1.579  53.628  1.00  0.00    -0.200 OA
BRANCH   8  11
HETATM   11  N1  UNL     1      24.264  -0.508  53.339  1.00  0.00    -0.250 N 
HETATM   12  C8  UNL     1      23.278  -0.994  54.234  1.00  0.00     0.235 C 
HETATM   13  O3  UNL     1      23.467  -1.329  55.433  1.00  0.00    -0.272 OA
HETATM   14  H8  UNL     1      24.012  -0.250  52.344  1.00  0.00     0.181 HD
BRANCH  12  15
HETATM   15  C9  UNL     1      21.912  -1.120  53.715  1.00  0.00     0.142 C 
BRANCH  15  16
HETATM   16  C10 UNL     1      21.508   0.033  52.871  1.00  0.00    -0.049 A 
HETATM   17  C11 UNL     1      21.664   0.046  51.482  1.00  0.00     0.011 A 
HETATM   18  C12 UNL     1      21.286   1.121  50.711  1.00  0.00     0.043 A 
HETATM   19  C13 UNL     1      20.727   2.237  51.342  1.00  0.00     0.116 A 
HETATM   20  F1  UNL     1      20.318   3.350  50.690  1.00  0.00    -0.206 F 
HETATM   21  C14 UNL     1      20.554   2.269  52.708  1.00  0.00     0.043 A 
HETATM   22  C15 UNL     1      20.943   1.172  53.460  1.00  0.00     0.011 A 
ENDBRANCH  15  16
ENDBRANCH  12  15
ENDBRANCH   8  11
ENDBRANCH   5   8
ENDBRANCH   3   4
TORSDOF 6
ENDMDL
MODEL 4
REMARK VINA RESULT:      -6.5      2.716      3.836
REMARK  6 active torsions:
REMARK  status: ('A' for Active; 'I' for Inactive)
REMARK    1  A    between atoms: C3_3  and  C4_4 
REMARK    2  A    between atoms: C5_5  and  C6_6 
REMARK    3  A    between atoms: C5_5  and  S1_8 
REMARK    4  A    between atoms: S1_8  and  N1_11 
REMARK       I    between atoms: N1_11  and  C8_12 
REMARK    5  A    between atoms: C8_12  and  C9_14 
REMARK    6  A    between atoms: C9_14  and  C10_15 
ROOT
HETATM    1  C1  UNL     1      21.570  -0.290  54.492  1.00  0.00     0.012 C 
HETATM    2  C2  UNL     1      21.832  -0.176  53.300  1.00  0.00    -0.114 C 
HETATM    3  C3  UNL     1      22.138  -0.062  51.867  1.00  0.00     0.121 C 
ENDROOT
BRANCH   3   4
HETATM    4  C4  UNL     1      22.783   1.218  51.599  1.00  0.00     0.010 C 
HETATM    5  C5  UNL     1      22.740   2.527  51.738  1.00  0.00     0.076 C 
BRANCH   5   6
HETATM    6  C6  UNL     1      21.603   3.069  52.455  1.00  0.00     0.014 C 
HETATM    7  C7  UNL     1      20.445   3.273  51.800  1.00  0.00     0.013 C 
ENDBRANCH   5   6
BRANCH   5   8
HETATM    8  S1  UNL     1      23.946   3.598  51.125  1.00  0.00     0.265 S 
HETATM    9  O1  UNL     1      23.627   4.976  51.691  1.00  0.00    -0.200 OA
HETATM   10  O2  UNL     1      23.743   3.733  49.643  1.00  0.00    -0.200 OA
BRANCH   8  11
HETATM   11  N1  UNL     1      25.549   3.118  51.478  1.00  0.00    -0.250 N 
HETATM   12  C8  UNL     1      25.978   2.596  52.725  1.00  0.00     0.235 C 
HETATM   13  O3  UNL     1      25.255   2.412  53.739  1.00  0.00    -0.272 OA
HETATM   14  H8  UNL     1      26.231   3.238  50.679  1.00  0.00     0.181 HD
BRANCH  12  15
HETATM   15  C9  UNL     1      27.395   2.238  52.844  1.00  0.00     0.142 C 
BRANCH  15  16
HETATM   16  C10 UNL     1      27.619   0.770  52.864  1.00  0.00    -0.049 A 
HETATM   17  C11 UNL     1      26.663  -0.148  52.418  1.00  0.00     0.011 A 
HETATM   18  C12 UNL     1      26.883  -1.506  52.442  1.00  0.00     0.043 A 
HETATM   19  C13 UNL     1      28.104  -1.980  52.930  1.00  0.00     0.116 A 
HETATM   20  F1  UNL     1      28.433  -3.292  53.002  1.00  0.00    -0.206 F 
HETATM   21  C14 UNL     1      29.076  -1.114  53.379  1.00  0.00     0.043 A 
HETATM   22  C15 UNL     1      28.828   0.249  53.343  1.00  0.00     0.011 A 
ENDBRANCH  15  16
ENDBRANCH  12  15
ENDBRANCH   8  11
ENDBRANCH   5   8
ENDBRANCH   3   4
TORSDOF 6
ENDMDL
MODEL 5
REMARK VINA RESULT:      -6.5      3.851      6.895
REMARK  6 active torsions:
REMARK  status: ('A' for Active; 'I' for Inactive)
REMARK    1  A    between atoms: C3_3  and  C4_4 
REMARK    2  A    between atoms: C5_5  and  C6_6 
REMARK    3  A    between atoms: C5_5  and  S1_8 
REMARK    4  A    between atoms: S1_8  and  N1_11 
REMARK       I    between atoms: N1_11  and  C8_12 
REMARK    5  A    between atoms: C8_12  and  C9_14 
REMARK    6  A    between atoms: C9_14  and  C10_15 
ROOT
HETATM    1  C1  UNL     1      21.044  -0.119  52.625  1.00  0.00     0.012 C 
HETATM    2  C2  UNL     1      22.173  -0.458  52.963  1.00  0.00    -0.114 C 
HETATM    3  C3  UNL     1      23.516  -0.887  53.374  1.00  0.00     0.121 C 
ENDROOT
BRANCH   3   4
HETATM    4  C4  UNL     1      24.452   0.224  53.243  1.00  0.00     0.010 C 
HETATM    5  C5  UNL     1      25.625   0.634  52.811  1.00  0.00     0.076 C 
BRANCH   5   6
HETATM    6  C6  UNL     1      26.458  -0.353  52.153  1.00  0.00     0.014 C 
HETATM    7  C7  UNL     1      27.279  -1.122  52.892  1.00  0.00     0.013 C 
ENDBRANCH   5   6
BRANCH   5   8
HETATM    8  S1  UNL     1      26.201   2.252  52.981  1.00  0.00     0.265 S 
HETATM    9  O1  UNL     1      27.075   2.529  51.764  1.00  0.00    -0.200 OA
HETATM   10  O2  UNL     1      27.143   2.293  54.150  1.00  0.00    -0.200 OA
BRANCH   8  11
HETATM   11  N1  UNL     1      24.963   3.418  53.156  1.00  0.00    -0.250 N 
HETATM   12  C8  UNL     1      23.954   3.674  52.193  1.00  0.00     0.235 C 
HETATM   13  O3  UNL     1      23.823   3.090  51.085  1.00  0.00    -0.272 OA
HETATM   14  H8  UNL     1      24.994   3.961  54.063  1.00  0.00     0.181 HD
BRANCH  12  15
HETATM   15  C9  UNL     1      22.973   4.714  52.517  1.00  0.00     0.142 C 
BRANCH  15  16
HETATM   16  C10 UNL     1      23.066   5.894  51.619  1.00  0.00    -0.049 A 
HETATM   17  C11 UNL     1      24.277   6.524  51.319  1.00  0.00     0.011 A 
HETATM   18  C12 UNL     1      24.349   7.616  50.487  1.00  0.00     0.043 A 
HETATM   19  C13 UNL     1      23.169   8.111  49.923  1.00  0.00     0.116 A 
HETATM   20  F1  UNL     1      23.116   9.177  49.091  1.00  0.00    -0.206 F 
HETATM   21  C14 UNL     1      21.953   7.522  50.189  1.00  0.00     0.043 A 
HETATM   22  C15 UNL     1      21.909   6.422  51.031  1.00  0.00     0.011 A 
ENDBRANCH  15  16
ENDBRANCH  12  15
ENDBRANCH   8  11
ENDBRANCH   5   8
ENDBRANCH   3   4
TORSDOF 6
ENDMDL
MODEL 6
REMARK VINA RESULT:      -6.4      2.180      3.287
REMARK  6 active torsions:
REMARK  status: ('A' for Active; 'I' for Inactive)
REMARK    1  A    between atoms: C3_3  and  C4_4 
REMARK    2  A    between atoms: C5_5  and  C6_6 
REMARK    3  A    between atoms: C5_5  and  S1_8 
REMARK    4  A    between atoms: S1_8  and  N1_11 
REMARK       I    between atoms: N1_11  and  C8_12 
REMARK    5  A    between atoms: C8_12  and  C9_14 
REMARK    6  A    between atoms: C9_14  and  C10_15 
ROOT
HETATM    1  C1  UNL     1      26.795   7.392  48.764  1.00  0.00     0.012 C 
HETATM    2  C2  UNL     1      25.998   7.113  49.652  1.00  0.00    -0.114 C 
HETATM    3  C3  UNL     1      25.047   6.802  50.728  1.00  0.00     0.121 C 
ENDROOT
BRANCH   3   4
HETATM    4  C4  UNL     1      24.437   5.500  50.488  1.00  0.00     0.010 C 
HETATM    5  C5  UNL     1      24.607   4.258  50.086  1.00  0.00     0.076 C 
BRANCH   5   6
HETATM    6  C6  UNL     1      25.945   3.884  49.673  1.00  0.00     0.014 C 
HETATM    7  C7  UNL     1      26.671   3.061  50.453  1.00  0.00     0.013 C 
ENDBRANCH   5   6
BRANCH   5   8
HETATM    8  S1  UNL     1      23.345   3.082  50.036  1.00  0.00     0.265 S 
HETATM    9  O1  UNL     1      23.236   2.628  48.586  1.00  0.00    -0.200 OA
HETATM   10  O2  UNL     1      22.045   3.779  50.322  1.00  0.00    -0.200 OA
BRANCH   8  11
HETATM   11  N1  UNL     1      23.576   1.765  51.102  1.00  0.00    -0.250 N 
HETATM   12  C8  UNL     1      23.878   1.888  52.482  1.00  0.00     0.235 C 
HETATM   13  O3  UNL     1      24.018   2.967  53.116  1.00  0.00    -0.272 OA
HETATM   14  H8  UNL     1      23.476   0.812  50.654  1.00  0.00     0.181 HD
BRANCH  12  15
HETATM   15  C9  UNL     1      24.041   0.645  53.242  1.00  0.00     0.142 C 
BRANCH  15  16
HETATM   16  C10 UNL     1      25.466   0.259  53.417  1.00  0.00    -0.049 A 
HETATM   17  C11 UNL     1      26.191  -0.423  52.435  1.00  0.00     0.011 A 
HETATM   18  C12 UNL     1      27.510  -0.774  52.611  1.00  0.00     0.043 A 
HETATM   19  C13 UNL     1      28.141  -0.437  53.812  1.00  0.00     0.116 A 
HETATM   20  F1  UNL     1      29.432  -0.730  54.097  1.00  0.00    -0.206 F 
HETATM   21  C14 UNL     1      27.466   0.235  54.807  1.00  0.00     0.043 A 
HETATM   22  C15 UNL     1      26.139   0.577  54.604  1.00  0.00     0.011 A 
ENDBRANCH  15  16
ENDBRANCH  12  15
ENDBRANCH   8  11
ENDBRANCH   5   8
ENDBRANCH   3   4
TORSDOF 6
ENDMDL
MODEL 7
REMARK VINA RESULT:      -6.4      3.621      6.580
REMARK  6 active torsions:
REMARK  status: ('A' for Active; 'I' for Inactive)
REMARK    1  A    between atoms: C3_3  and  C4_4 
REMARK    2  A    between atoms: C5_5  and  C6_6 
REMARK    3  A    between atoms: C5_5  and  S1_8 
REMARK    4  A    between atoms: S1_8  and  N1_11 
REMARK       I    between atoms: N1_11  and  C8_12 
REMARK    5  A    between atoms: C8_12  and  C9_14 
REMARK    6  A    between atoms: C9_14  and  C10_15 
ROOT
HETATM    1  C1  UNL     1      20.674  -0.197  54.603  1.00  0.00     0.012 C 
HETATM    2  C2  UNL     1      21.696  -0.560  54.032  1.00  0.00    -0.114 C 
HETATM    3  C3  UNL     1      22.914  -1.019  53.350  1.00  0.00     0.121 C 
ENDROOT
BRANCH   3   4
HETATM    4  C4  UNL     1      23.760   0.123  53.025  1.00  0.00     0.010 C 
HETATM    5  C5  UNL     1      23.848   1.303  52.449  1.00  0.00     0.076 C 
BRANCH   5   6
HETATM    6  C6  UNL     1      22.645   1.813  51.821  1.00  0.00     0.014 C 
HETATM    7  C7  UNL     1      22.313   1.388  50.588  1.00  0.00     0.013 C 
ENDBRANCH   5   6
BRANCH   5   8
HETATM    8  S1  UNL     1      25.290   2.249  52.411  1.00  0.00     0.265 S 
HETATM    9  O1  UNL     1      26.369   1.369  51.793  1.00  0.00    -0.200 OA
HETATM   10  O2  UNL     1      25.740   2.473  53.827  1.00  0.00    -0.200 OA
BRANCH   8  11
HETATM   11  N1  UNL     1      25.128   3.736  51.583  1.00  0.00    -0.250 N 
HETATM   12  C8  UNL     1      25.082   3.872  50.172  1.00  0.00     0.235 C 
HETATM   13  O3  UNL     1      25.154   2.935  49.335  1.00  0.00    -0.272 OA
HETATM   14  H8  UNL     1      25.060   4.585  52.210  1.00  0.00     0.181 HD
BRANCH  12  15
HETATM   15  C9  UNL     1      24.939   5.231  49.639  1.00  0.00     0.142 C 
BRANCH  15  16
HETATM   16  C10 UNL     1      26.173   5.722  48.974  1.00  0.00    -0.049 A 
HETATM   17  C11 UNL     1      26.252   6.972  48.353  1.00  0.00     0.011 A 
HETATM   18  C12 UNL     1      27.402   7.415  47.739  1.00  0.00     0.043 A 
HETATM   19  C13 UNL     1      28.526   6.583  47.739  1.00  0.00     0.116 A 
HETATM   20  F1  UNL     1      29.709   6.911  47.169  1.00  0.00    -0.206 F 
HETATM   21  C14 UNL     1      28.495   5.344  48.339  1.00  0.00     0.043 A 
HETATM   22  C15 UNL     1      27.324   4.923  48.950  1.00  0.00     0.011 A 
ENDBRANCH  15  16
ENDBRANCH  12  15
ENDBRANCH   8  11
ENDBRANCH   5   8
ENDBRANCH   3   4
TORSDOF 6
ENDMDL
MODEL 8
REMARK VINA RESULT:      -6.1      2.336      3.377
REMARK  6 active torsions:
REMARK  status: ('A' for Active; 'I' for Inactive)
REMARK    1  A    between atoms: C3_3  and  C4_4 
REMARK    2  A    between atoms: C5_5  and  C6_6 
REMARK    3  A    between atoms: C5_5  and  S1_8 
REMARK    4  A    between atoms: S1_8  and  N1_11 
REMARK       I    between atoms: N1_11  and  C8_12 
REMARK    5  A    between atoms: C8_12  and  C9_14 
REMARK    6  A    between atoms: C9_14  and  C10_15 
ROOT
HETATM    1  C1  UNL     1      27.588   7.685  48.667  1.00  0.00     0.012 C 
HETATM    2  C2  UNL     1      27.368   6.480  48.724  1.00  0.00    -0.114 C 
HETATM    3  C3  UNL     1      27.124   5.033  48.778  1.00  0.00     0.121 C 
ENDROOT
BRANCH   3   4
HETATM    4  C4  UNL     1      25.908   4.763  49.537  1.00  0.00     0.010 C 
HETATM    5  C5  UNL     1      24.595   4.837  49.580  1.00  0.00     0.076 C 
BRANCH   5   6
HETATM    6  C6  UNL     1      23.937   5.423  48.429  1.00  0.00     0.014 C 
HETATM    7  C7  UNL     1      23.845   6.763  48.333  1.00  0.00     0.013 C 
ENDBRANCH   5   6
BRANCH   5   8
HETATM    8  S1  UNL     1      23.644   4.277  50.906  1.00  0.00     0.265 S 
HETATM    9  O1  UNL     1      22.791   3.132  50.373  1.00  0.00    -0.200 OA
HETATM   10  O2  UNL     1      22.662   5.355  51.266  1.00  0.00    -0.200 OA
BRANCH   8  11
HETATM   11  N1  UNL     1      24.560   3.807  52.272  1.00  0.00    -0.250 N 
HETATM   12  C8  UNL     1      25.089   2.509  52.481  1.00  0.00     0.235 C 
HETATM   13  O3  UNL     1      24.965   1.525  51.704  1.00  0.00    -0.272 OA
HETATM   14  H8  UNL     1      24.716   4.575  52.983  1.00  0.00     0.181 HD
BRANCH  12  15
HETATM   15  C9  UNL     1      25.851   2.290  53.714  1.00  0.00     0.142 C 
BRANCH  15  16
HETATM   16  C10 UNL     1      26.910   1.259  53.563  1.00  0.00    -0.049 A 
HETATM   17  C11 UNL     1      28.264   1.526  53.785  1.00  0.00     0.011 A 
HETATM   18  C12 UNL     1      29.234   0.561  53.640  1.00  0.00     0.043 A 
HETATM   19  C13 UNL     1      28.849  -0.728  53.257  1.00  0.00     0.116 A 
HETATM   20  F1  UNL     1      29.713  -1.756  53.084  1.00  0.00    -0.206 F 
HETATM   21  C14 UNL     1      27.527  -1.036  53.028  1.00  0.00     0.043 A 
HETATM   22  C15 UNL     1      26.570  -0.046  53.181  1.00  0.00     0.011 A 
ENDBRANCH  15  16
ENDBRANCH  12  15
ENDBRANCH   8  11
ENDBRANCH   5   8
ENDBRANCH   3   4
TORSDOF 6
ENDMDL
MODEL 9
REMARK VINA RESULT:      -6.1      2.608      3.946
REMARK  6 active torsions:
REMARK  status: ('A' for Active; 'I' for Inactive)
REMARK    1  A    between atoms: C3_3  and  C4_4 
REMARK    2  A    between atoms: C5_5  and  C6_6 
REMARK    3  A    between atoms: C5_5  and  S1_8 
REMARK    4  A    between atoms: S1_8  and  N1_11 
REMARK       I    between atoms: N1_11  and  C8_12 
REMARK    5  A    between atoms: C8_12  and  C9_14 
REMARK    6  A    between atoms: C9_14  and  C10_15 
ROOT
HETATM    1  C1  UNL     1      28.505   6.109  48.019  1.00  0.00     0.012 C 
HETATM    2  C2  UNL     1      27.873   5.198  48.542  1.00  0.00    -0.114 C 
HETATM    3  C3  UNL     1      27.137   4.092  49.168  1.00  0.00     0.121 C 
ENDROOT
BRANCH   3   4
HETATM    4  C4  UNL     1      25.747   4.478  49.378  1.00  0.00     0.010 C 
HETATM    5  C5  UNL     1      24.870   5.458  49.437  1.00  0.00     0.076 C 
BRANCH   5   6
HETATM    6  C6  UNL     1      25.375   6.798  49.215  1.00  0.00     0.014 C 
HETATM    7  C7  UNL     1      25.759   7.542  50.268  1.00  0.00     0.013 C 
ENDBRANCH   5   6
BRANCH   5   8
HETATM    8  S1  UNL     1      23.190   5.226  49.755  1.00  0.00     0.265 S 
HETATM    9  O1  UNL     1      22.581   4.672  48.473  1.00  0.00    -0.200 OA
HETATM   10  O2  UNL     1      22.557   6.577  49.931  1.00  0.00    -0.200 OA
BRANCH   8  11
HETATM   11  N1  UNL     1      22.866   4.223  51.101  1.00  0.00    -0.250 N 
HETATM   12  C8  UNL     1      22.942   2.807  51.087  1.00  0.00     0.235 C 
HETATM   13  O3  UNL     1      23.252   2.091  50.099  1.00  0.00    -0.272 OA
HETATM   14  H8  UNL     1      22.596   4.741  51.982  1.00  0.00     0.181 HD
BRANCH  12  15
HETATM   15  C9  UNL     1      22.629   2.111  52.340  1.00  0.00     0.142 C 
BRANCH  15  16
HETATM   16  C10 UNL     1      23.830   1.528  52.991  1.00  0.00    -0.049 A 
HETATM   17  C11 UNL     1      23.934   0.170  53.308  1.00  0.00     0.011 A 
HETATM   18  C12 UNL     1      25.052  -0.357  53.912  1.00  0.00     0.043 A 
HETATM   19  C13 UNL     1      26.117   0.496  54.217  1.00  0.00     0.116 A 
HETATM   20  F1  UNL     1      27.266   0.092  54.810  1.00  0.00    -0.206 F 
HETATM   21  C14 UNL     1      26.059   1.840  53.922  1.00  0.00     0.043 A 
HETATM   22  C15 UNL     1      24.921   2.345  53.314  1.00  0.00     0.011 A 
ENDBRANCH  15  16
ENDBRANCH  12  15
ENDBRANCH   8  11
ENDBRANCH   5   8
ENDBRANCH   3   4
TORSDOF 6
ENDMDL
