MODEL 1
REMARK VINA RESULT:      -7.4      0.000      0.000
REMARK  5 active torsions:
REMARK  status: ('A' for Active; 'I' for Inactive)
REMARK    1  A    between atoms: C3_5  and  C4_6 
REMARK    2  A    between atoms: C4_6  and  C5_7 
REMARK    3  A    between atoms: C5_7  and  C6_8 
REMARK    4  A    between atoms: C6_8  and  N2_9 
REMARK    5  A    between atoms: N2_9  and  C7_10 
ROOT
HETATM    1  N2  UNL     1      26.731   3.331  50.818  1.00  0.00    -0.355 N 
HETATM    2  H8  UNL     1      26.871   4.302  51.199  1.00  0.00     0.166 HD
ENDROOT
BRANCH   1   3
HETATM    3  C6  UNL     1      26.744   3.787  49.442  1.00  0.00     0.063 C 
BRANCH   3   4
HETATM    4  C5  UNL     1      26.188   5.146  49.497  1.00  0.00     0.012 C 
BRANCH   4   5
HETATM    5  C4  UNL     1      24.739   5.163  50.322  1.00  0.00     0.044 C 
BRANCH   5   6
HETATM    6  C3  UNL     1      24.813   6.669  50.439  1.00  0.00     0.233 A 
HETATM    7  C2  UNL     1      24.126   7.679  49.600  1.00  0.00     0.066 A 
HETATM    8  C1  UNL     1      24.816   7.173  50.536  1.00  0.00     0.286 A 
HETATM    9 BR1  UNL     1      24.774   8.257  47.874  1.00  0.00    -0.086 Br
HETATM   10  N1  UNL     1      24.508   6.647  52.007  1.00  0.00    -0.061 N 
HETATM   11  H1  UNL     1      23.632   6.070  52.298  1.00  0.00     0.278 HD
HETATM   12  H2  UNL     1      25.270   6.880  52.732  1.00  0.00     0.278 HD
ENDBRANCH   5   6
ENDBRANCH   4   5
ENDBRANCH   3   4
ENDBRANCH   1   3
BRANCH   1  13
HETATM   13  C7  UNL     1      26.586   2.064  51.321  1.00  0.00     0.126 C 
HETATM   14  C8  UNL     1      26.450   0.859  51.808  1.00  0.00     0.044 C 
HETATM   15  C9  UNL     1      26.431  -0.342  52.326  1.00  0.00     0.117 A 
HETATM   16  C10 UNL     1      26.591  -0.103  53.647  1.00  0.00    -0.003 A 
HETATM   17 BR2  UNL     1      24.752  -0.709  53.836  1.00  0.00    -0.117 Br
HETATM   18  C11 UNL     1      27.132   0.232  54.814  1.00  0.00     0.017 C 
HETATM   19  C12 UNL     1      28.513   0.012  54.915  1.00  0.00     0.020 C 
HETATM   20  C13 UNL     1      29.222   0.974  54.355  1.00  0.00     0.118 C 
HETATM   21  N3  UNL     1      28.862   2.190  54.117  1.00  0.00    -0.254 NA
HETATM   22  C14 UNL     1      28.154   2.475  52.983  1.00  0.00     0.234 C 
HETATM   23  N4  UNL     1      26.863   2.531  52.615  1.00  0.00    -0.225 NA
ENDBRANCH   1  13
TORSDOF 5
ENDMDL
MODEL 2
REMARK VINA RESULT:      -7.4      1.519      1.621
REMARK  5 active torsions:
REMARK  status: ('A' for Active; 'I' for Inactive)
REMARK    1  A    between atoms: C3_5  and  C4_6 
REMARK    2  A    between atoms: C4_6  and  C5_7 
REMARK    3  A    between atoms: C5_7  and  C6_8 
REMARK    4  A    between atoms: C6_8  and  N2_9 
REMARK    5  A    between atoms: N2_9  and  C7_10 
ROOT
HETATM    1  N2  UNL     1      26.829   3.347  50.819  1.00  0.00    -0.355 N 
HETATM    2  H8  UNL     1      27.293   4.240  51.126  1.00  0.00     0.166 HD
ENDROOT
BRANCH   1   3
HETATM    3  C6  UNL     1      26.363   3.928  49.575  1.00  0.00     0.063 C 
BRANCH   3   4
HETATM    4  C5  UNL     1      25.215   4.761  49.963  1.00  0.00     0.012 C 
BRANCH   4   5
HETATM    5  C4  UNL     1      23.963   3.819  50.532  1.00  0.00     0.044 C 
BRANCH   5   6
HETATM    6  C3  UNL     1      23.603   4.889  51.539  1.00  0.00     0.233 A 
HETATM    7  C2  UNL     1      22.349   5.673  51.621  1.00  0.00     0.066 A 
HETATM    8  C1  UNL     1      23.489   5.209  51.924  1.00  0.00     0.286 A 
HETATM    9 BR1  UNL     1      21.990   7.235  50.542  1.00  0.00    -0.086 Br
HETATM   10  N1  UNL     1      24.014   3.976  52.783  1.00  0.00    -0.061 N 
HETATM   11  H1  UNL     1      23.572   2.981  52.790  1.00  0.00     0.278 HD
HETATM   12  H2  UNL     1      24.895   4.183  53.368  1.00  0.00     0.278 HD
ENDBRANCH   5   6
ENDBRANCH   4   5
ENDBRANCH   3   4
ENDBRANCH   1   3
BRANCH   1  13
HETATM   13  C7  UNL     1      26.667   2.077  51.310  1.00  0.00     0.126 C 
HETATM   14  C8  UNL     1      26.514   0.870  51.785  1.00  0.00     0.044 C 
HETATM   15  C9  UNL     1      26.477  -0.334  52.295  1.00  0.00     0.117 A 
HETATM   16  C10 UNL     1      26.586  -0.101  53.623  1.00  0.00    -0.003 A 
HETATM   17 BR2  UNL     1      24.741  -0.711  53.737  1.00  0.00    -0.117 Br
HETATM   18  C11 UNL     1      27.080   0.227  54.811  1.00  0.00     0.017 C 
HETATM   19  C12 UNL     1      28.457   0.009  54.965  1.00  0.00     0.020 C 
HETATM   20  C13 UNL     1      29.185   0.975  54.437  1.00  0.00     0.118 C 
HETATM   21  N3  UNL     1      28.833   2.192  54.192  1.00  0.00    -0.254 NA
HETATM   22  C14 UNL     1      28.169   2.482  53.033  1.00  0.00     0.234 C 
HETATM   23  N4  UNL     1      26.893   2.538  52.615  1.00  0.00    -0.225 NA
ENDBRANCH   1  13
TORSDOF 5
ENDMDL
MODEL 3
REMARK VINA RESULT:      -7.2      2.426      3.178
REMARK  5 active torsions:
REMARK  status: ('A' for Active; 'I' for Inactive)
REMARK    1  A    between atoms: C3_5  and  C4_6 
REMARK    2  A    between atoms: C4_6  and  C5_7 
REMARK    3  A    between atoms: C5_7  and  C6_8 
REMARK    4  A    between atoms: C6_8  and  N2_9 
REMARK    5  A    between atoms: N2_9  and  C7_10 
ROOT
HETATM    1  N2  UNL     1      26.696   3.335  50.864  1.00  0.00    -0.355 N 
HETATM    2  H8  UNL     1      27.448   4.054  50.707  1.00  0.00     0.166 HD
ENDROOT
BRANCH   1   3
HETATM    3  C6  UNL     1      25.654   4.202  50.347  1.00  0.00     0.063 C 
BRANCH   3   4
HETATM    4  C5  UNL     1      24.992   3.405  49.305  1.00  0.00     0.012 C 
BRANCH   4   5
HETATM    5  C4  UNL     1      23.491   4.030  48.942  1.00  0.00     0.044 C 
BRANCH   5   6
HETATM    6  C3  UNL     1      22.856   2.681  49.199  1.00  0.00     0.233 A 
HETATM    7  C2  UNL     1      21.997   2.285  50.339  1.00  0.00     0.066 A 
HETATM    8  C1  UNL     1      22.613   2.231  49.232  1.00  0.00     0.286 A 
HETATM    9 BR1  UNL     1      22.684   1.762  52.067  1.00  0.00    -0.086 Br
HETATM   10  N1  UNL     1      22.254   2.588  47.722  1.00  0.00    -0.061 N 
HETATM   11  H1  UNL     1      21.687   3.459  47.400  1.00  0.00     0.278 HD
HETATM   12  H2  UNL     1      22.650   1.897  46.995  1.00  0.00     0.278 HD
ENDBRANCH   5   6
ENDBRANCH   4   5
ENDBRANCH   3   4
ENDBRANCH   1   3
BRANCH   1  13
HETATM   13  C7  UNL     1      26.611   2.057  51.351  1.00  0.00     0.126 C 
HETATM   14  C8  UNL     1      26.532   0.841  51.823  1.00  0.00     0.044 C 
HETATM   15  C9  UNL     1      26.570  -0.364  52.329  1.00  0.00     0.117 A 
HETATM   16  C10 UNL     1      26.682  -0.131  53.656  1.00  0.00    -0.003 A 
HETATM   17 BR2  UNL     1      24.876  -0.844  53.791  1.00  0.00    -0.117 Br
HETATM   18  C11 UNL     1      27.172   0.221  54.840  1.00  0.00     0.017 C 
HETATM   19  C12 UNL     1      28.560   0.080  54.976  1.00  0.00     0.020 C 
HETATM   20  C13 UNL     1      29.226   1.088  54.443  1.00  0.00     0.118 C 
HETATM   21  N3  UNL     1      28.804   2.283  54.207  1.00  0.00    -0.254 NA
HETATM   22  C14 UNL     1      28.109   2.540  53.058  1.00  0.00     0.234 C 
HETATM   23  N4  UNL     1      26.827   2.525  52.656  1.00  0.00    -0.225 NA
ENDBRANCH   1  13
TORSDOF 5
ENDMDL
MODEL 4
REMARK VINA RESULT:      -6.8      3.909      6.427
REMARK  5 active torsions:
REMARK  status: ('A' for Active; 'I' for Inactive)
REMARK    1  A    between atoms: C3_5  and  C4_6 
REMARK    2  A    between atoms: C4_6  and  C5_7 
REMARK    3  A    between atoms: C5_7  and  C6_8 
REMARK    4  A    between atoms: C6_8  and  N2_9 
REMARK    5  A    between atoms: N2_9  and  C7_10 
ROOT
HETATM    1  N2  UNL     1      24.678   2.398  51.634  1.00  0.00    -0.355 N 
HETATM    2  H8  UNL     1      25.060   3.038  52.378  1.00  0.00     0.166 HD
ENDROOT
BRANCH   1   3
HETATM    3  C6  UNL     1      25.947   2.328  50.937  1.00  0.00     0.063 C 
BRANCH   3   4
HETATM    4  C5  UNL     1      26.730   1.339  51.693  1.00  0.00     0.012 C 
BRANCH   4   5
HETATM    5  C4  UNL     1      27.727   2.090  52.797  1.00  0.00     0.044 C 
BRANCH   5   6
HETATM    6  C3  UNL     1      27.581   0.917  53.741  1.00  0.00     0.233 A 
HETATM    7  C2  UNL     1      28.658   0.136  54.392  1.00  0.00     0.066 A 
HETATM    8  C1  UNL     1      27.499   0.557  54.098  1.00  0.00     0.286 A 
HETATM    9 BR1  UNL     1      29.620  -1.295  53.520  1.00  0.00    -0.086 Br
HETATM   10  N1  UNL     1      26.530   1.685  54.668  1.00  0.00    -0.061 N 
HETATM   11  H1  UNL     1      26.841   2.675  54.994  1.00  0.00     0.278 HD
HETATM   12  H2  UNL     1      25.488   1.409  54.686  1.00  0.00     0.278 HD
ENDBRANCH   5   6
ENDBRANCH   4   5
ENDBRANCH   3   4
ENDBRANCH   1   3
BRANCH   1  13
HETATM   13  C7  UNL     1      23.480   1.800  51.339  1.00  0.00     0.126 C 
HETATM   14  C8  UNL     1      22.338   1.229  51.065  1.00  0.00     0.044 C 
HETATM   15  C9  UNL     1      21.236   0.558  50.847  1.00  0.00     0.117 A 
HETATM   16  C10 UNL     1      20.716   0.422  52.087  1.00  0.00    -0.003 A 
HETATM   17 BR2  UNL     1      19.318   1.632  51.480  1.00  0.00    -0.117 Br
HETATM   18  C11 UNL     1      20.530   0.031  53.344  1.00  0.00     0.017 C 
HETATM   19  C12 UNL     1      20.993  -1.259  53.640  1.00  0.00     0.020 C 
HETATM   20  C13 UNL     1      22.294  -1.291  53.863  1.00  0.00     0.118 C 
HETATM   21  N3  UNL     1      23.062  -0.321  54.227  1.00  0.00    -0.254 NA
HETATM   22  C14 UNL     1      23.559   0.536  53.285  1.00  0.00     0.234 C 
HETATM   23  N4  UNL     1      23.183   1.689  52.705  1.00  0.00    -0.225 NA
ENDBRANCH   1  13
TORSDOF 5
ENDMDL
MODEL 5
REMARK VINA RESULT:      -6.7      3.885      4.701
REMARK  5 active torsions:
REMARK  status: ('A' for Active; 'I' for Inactive)
REMARK    1  A    between atoms: C3_5  and  C4_6 
REMARK    2  A    between atoms: C4_6  and  C5_7 
REMARK    3  A    between atoms: C5_7  and  C6_8 
REMARK    4  A    between atoms: C6_8  and  N2_9 
REMARK    5  A    between atoms: N2_9  and  C7_10 
ROOT
HETATM    1  N2  UNL     1      23.868  -0.498  54.138  1.00  0.00    -0.355 N 
HETATM    2  H8  UNL     1      23.583   0.056  54.986  1.00  0.00     0.166 HD
ENDROOT
BRANCH   1   3
HETATM    3  C6  UNL     1      22.503  -0.887  53.841  1.00  0.00     0.063 C 
BRANCH   3   4
HETATM    4  C5  UNL     1      22.177  -0.174  52.598  1.00  0.00     0.012 C 
BRANCH   4   5
HETATM    5  C4  UNL     1      22.447   1.463  52.764  1.00  0.00     0.044 C 
BRANCH   5   6
HETATM    6  C3  UNL     1      22.763   1.570  51.289  1.00  0.00     0.233 A 
HETATM    7  C2  UNL     1      21.950   2.215  50.231  1.00  0.00     0.066 A 
HETATM    8  C1  UNL     1      22.922   1.636  50.805  1.00  0.00     0.286 A 
HETATM    9 BR1  UNL     1      20.450   1.362  49.364  1.00  0.00    -0.086 Br
HETATM   10  N1  UNL     1      24.239   2.120  51.558  1.00  0.00    -0.061 N 
HETATM   11  H1  UNL     1      24.298   2.965  52.241  1.00  0.00     0.278 HD
HETATM   12  H2  UNL     1      25.109   1.514  51.366  1.00  0.00     0.278 HD
ENDBRANCH   5   6
ENDBRANCH   4   5
ENDBRANCH   3   4
ENDBRANCH   1   3
BRANCH   1  13
HETATM   13  C7  UNL     1      25.030  -0.801  53.477  1.00  0.00     0.126 C 
HETATM   14  C8  UNL     1      26.142  -1.085  52.852  1.00  0.00     0.044 C 
HETATM   15  C9  UNL     1      27.271  -1.250  52.213  1.00  0.00     0.117 A 
HETATM   16  C10 UNL     1      28.184  -0.762  53.083  1.00  0.00    -0.003 A 
HETATM   17 BR2  UNL     1      28.782  -2.605  53.269  1.00  0.00    -0.117 Br
HETATM   18  C11 UNL     1      28.898   0.075  53.827  1.00  0.00     0.017 C 
HETATM   19  C12 UNL     1      29.044   1.366  53.297  1.00  0.00     0.020 C 
HETATM   20  C13 UNL     1      27.990   2.127  53.521  1.00  0.00     0.118 C 
HETATM   21  N3  UNL     1      27.095   1.996  54.441  1.00  0.00    -0.254 NA
HETATM   22  C14 UNL     1      26.048   1.139  54.246  1.00  0.00     0.234 C 
HETATM   23  N4  UNL     1      25.780  -0.159  54.473  1.00  0.00    -0.225 NA
ENDBRANCH   1  13
TORSDOF 5
ENDMDL
MODEL 6
REMARK VINA RESULT:      -6.7      1.969      2.751
REMARK  5 active torsions:
REMARK  status: ('A' for Active; 'I' for Inactive)
REMARK    1  A    between atoms: C3_5  and  C4_6 
REMARK    2  A    between atoms: C4_6  and  C5_7 
REMARK    3  A    between atoms: C5_7  and  C6_8 
REMARK    4  A    between atoms: C6_8  and  N2_9 
REMARK    5  A    between atoms: N2_9  and  C7_10 
ROOT
HETATM    1  N2  UNL     1      26.453   3.540  50.794  1.00  0.00    -0.355 N 
HETATM    2  H8  UNL     1      25.872   4.408  50.662  1.00  0.00     0.166 HD
ENDROOT
BRANCH   1   3
HETATM    3  C6  UNL     1      26.809   3.475  49.389  1.00  0.00     0.063 C 
BRANCH   3   4
HETATM    4  C5  UNL     1      26.886   4.879  48.961  1.00  0.00     0.012 C 
BRANCH   4   5
HETATM    5  C4  UNL     1      25.472   5.687  49.313  1.00  0.00     0.044 C 
BRANCH   5   6
HETATM    6  C3  UNL     1      26.233   6.988  49.435  1.00  0.00     0.233 A 
HETATM    7  C2  UNL     1      26.276   8.109  48.468  1.00  0.00     0.066 A 
HETATM    8  C1  UNL     1      26.460   7.439  49.529  1.00  0.00     0.286 A 
HETATM    9 BR1  UNL     1      27.417   8.136  46.909  1.00  0.00    -0.086 Br
HETATM   10  N1  UNL     1      25.681   7.272  50.907  1.00  0.00    -0.061 N 
HETATM   11  H1  UNL     1      24.600   7.204  51.015  1.00  0.00     0.278 HD
HETATM   12  H2  UNL     1      26.319   7.196  51.773  1.00  0.00     0.278 HD
ENDBRANCH   5   6
ENDBRANCH   4   5
ENDBRANCH   3   4
ENDBRANCH   1   3
BRANCH   1  13
HETATM   13  C7  UNL     1      26.809   2.715  51.828  1.00  0.00     0.126 C 
HETATM   14  C8  UNL     1      27.143   1.922  52.811  1.00  0.00     0.044 C 
HETATM   15  C9  UNL     1      27.362   1.134  53.832  1.00  0.00     0.117 A 
HETATM   16  C10 UNL     1      26.678   0.016  53.502  1.00  0.00    -0.003 A 
HETATM   17 BR2  UNL     1      28.422  -0.828  53.320  1.00  0.00    -0.117 Br
HETATM   18  C11 UNL     1      25.683  -0.830  53.252  1.00  0.00     0.017 C 
HETATM   19  C12 UNL     1      24.504  -0.592  53.973  1.00  0.00     0.020 C 
HETATM   20  C13 UNL     1      23.771   0.369  53.441  1.00  0.00     0.118 C 
HETATM   21  N3  UNL     1      23.781   0.795  52.224  1.00  0.00    -0.254 NA
HETATM   22  C14 UNL     1      24.712   1.718  51.839  1.00  0.00     0.234 C 
HETATM   23  N4  UNL     1      25.959   1.712  51.338  1.00  0.00    -0.225 NA
ENDBRANCH   1  13
TORSDOF 5
ENDMDL
MODEL 7
REMARK VINA RESULT:      -6.7      2.844      3.668
REMARK  5 active torsions:
REMARK  status: ('A' for Active; 'I' for Inactive)
REMARK    1  A    between atoms: C3_5  and  C4_6 
REMARK    2  A    between atoms: C4_6  and  C5_7 
REMARK    3  A    between atoms: C5_7  and  C6_8 
REMARK    4  A    between atoms: C6_8  and  N2_9 
REMARK    5  A    between atoms: N2_9  and  C7_10 
ROOT
HETATM    1  N2  UNL     1      24.082   3.913  52.881  1.00  0.00    -0.355 N 
HETATM    2  H8  UNL     1      24.880   4.524  53.192  1.00  0.00     0.166 HD
ENDROOT
BRANCH   1   3
HETATM    3  C6  UNL     1      23.338   5.033  52.335  1.00  0.00     0.063 C 
BRANCH   3   4
HETATM    4  C5  UNL     1      22.595   4.466  51.200  1.00  0.00     0.012 C 
BRANCH   4   5
HETATM    5  C4  UNL     1      23.278   4.930  49.752  1.00  0.00     0.044 C 
BRANCH   5   6
HETATM    6  C3  UNL     1      23.547   3.483  49.405  1.00  0.00     0.233 A 
HETATM    7  C2  UNL     1      22.888   2.661  48.362  1.00  0.00     0.066 A 
HETATM    8  C1  UNL     1      23.697   3.009  49.275  1.00  0.00     0.286 A 
HETATM    9 BR1  UNL     1      21.181   1.792  48.605  1.00  0.00    -0.086 Br
HETATM   10  N1  UNL     1      25.126   3.710  49.311  1.00  0.00    -0.061 N 
HETATM   11  H1  UNL     1      25.434   4.541  48.678  1.00  0.00     0.278 HD
HETATM   12  H2  UNL     1      25.797   3.316  50.056  1.00  0.00     0.278 HD
ENDBRANCH   5   6
ENDBRANCH   4   5
ENDBRANCH   3   4
ENDBRANCH   1   3
BRANCH   1  13
HETATM   13  C7  UNL     1      23.760   2.581  52.916  1.00  0.00     0.126 C 
HETATM   14  C8  UNL     1      23.462   1.309  52.952  1.00  0.00     0.044 C 
HETATM   15  C9  UNL     1      23.255   0.019  52.912  1.00  0.00     0.117 A 
HETATM   16  C10 UNL     1      24.339  -0.480  53.548  1.00  0.00    -0.003 A 
HETATM   17 BR2  UNL     1      23.100  -0.992  54.959  1.00  0.00    -0.117 Br
HETATM   18  C11 UNL     1      25.589  -0.838  53.823  1.00  0.00     0.017 C 
HETATM   19  C12 UNL     1      26.377  -1.155  52.707  1.00  0.00     0.020 C 
HETATM   20  C13 UNL     1      26.857  -0.082  52.106  1.00  0.00     0.118 C 
HETATM   21  N3  UNL     1      27.033   1.095  52.602  1.00  0.00    -0.254 NA
HETATM   22  C14 UNL     1      25.985   1.972  52.649  1.00  0.00     0.234 C 
HETATM   23  N4  UNL     1      24.998   2.284  53.506  1.00  0.00    -0.225 NA
ENDBRANCH   1  13
TORSDOF 5
ENDMDL
MODEL 8
REMARK VINA RESULT:      -6.7      2.181      2.809
REMARK  5 active torsions:
REMARK  status: ('A' for Active; 'I' for Inactive)
REMARK    1  A    between atoms: C3_5  and  C4_6 
REMARK    2  A    between atoms: C4_6  and  C5_7 
REMARK    3  A    between atoms: C5_7  and  C6_8 
REMARK    4  A    between atoms: C6_8  and  N2_9 
REMARK    5  A    between atoms: N2_9  and  C7_10 
ROOT
HETATM    1  N2  UNL     1      23.979   4.196  52.786  1.00  0.00    -0.355 N 
HETATM    2  H8  UNL     1      24.589   4.834  53.361  1.00  0.00     0.166 HD
ENDROOT
BRANCH   1   3
HETATM    3  C6  UNL     1      23.513   5.280  51.942  1.00  0.00     0.063 C 
BRANCH   3   4
HETATM    4  C5  UNL     1      24.358   5.204  50.742  1.00  0.00     0.012 C 
BRANCH   4   5
HETATM    5  C4  UNL     1      24.101   6.518  49.750  1.00  0.00     0.044 C 
BRANCH   5   6
HETATM    6  C3  UNL     1      25.534   6.960  49.949  1.00  0.00     0.233 A 
HETATM    7  C2  UNL     1      26.642   6.919  48.966  1.00  0.00     0.066 A 
HETATM    8  C1  UNL     1      25.997   7.167  50.029  1.00  0.00     0.286 A 
HETATM    9 BR1  UNL     1      27.681   5.335  48.591  1.00  0.00    -0.086 Br
HETATM   10  N1  UNL     1      25.102   8.376  50.551  1.00  0.00    -0.061 N 
HETATM   11  H1  UNL     1      24.386   8.933  49.950  1.00  0.00     0.278 HD
HETATM   12  H2  UNL     1      25.230   8.605  51.597  1.00  0.00     0.278 HD
ENDBRANCH   5   6
ENDBRANCH   4   5
ENDBRANCH   3   4
ENDBRANCH   1   3
BRANCH   1  13
HETATM   13  C7  UNL     1      23.670   2.862  52.751  1.00  0.00     0.126 C 
HETATM   14  C8  UNL     1      23.383   1.587  52.720  1.00  0.00     0.044 C 
HETATM   15  C9  UNL     1      23.193   0.297  52.618  1.00  0.00     0.117 A 
HETATM   16  C10 UNL     1      24.242  -0.217  53.296  1.00  0.00    -0.003 A 
HETATM   17 BR2  UNL     1      22.929  -0.795  54.611  1.00  0.00    -0.117 Br
HETATM   18  C11 UNL     1      25.478  -0.576  53.630  1.00  0.00     0.017 C 
HETATM   19  C12 UNL     1      26.333  -0.842  52.550  1.00  0.00     0.020 C 
HETATM   20  C13 UNL     1      26.836   0.258  52.020  1.00  0.00     0.118 C 
HETATM   21  N3  UNL     1      26.970   1.416  52.571  1.00  0.00    -0.254 NA
HETATM   22  C14 UNL     1      25.912   2.281  52.591  1.00  0.00     0.234 C 
HETATM   23  N4  UNL     1      24.874   2.552  53.400  1.00  0.00    -0.225 NA
ENDBRANCH   1  13
TORSDOF 5
ENDMDL
MODEL 9
REMARK VINA RESULT:      -6.7      2.822      7.031
REMARK  5 active torsions:
REMARK  status: ('A' for Active; 'I' for Inactive)
REMARK    1  A    between atoms: C3_5  and  C4_6 
REMARK    2  A    between atoms: C4_6  and  C5_7 
REMARK    3  A    between atoms: C5_7  and  C6_8 
REMARK    4  A    between atoms: C6_8  and  N2_9 
REMARK    5  A    between atoms: N2_9  and  C7_10 
ROOT
HETATM    1  N2  UNL     1      24.415   0.875  53.374  1.00  0.00    -0.355 N 
HETATM    2  H8  UNL     1      24.855   1.199  54.274  1.00  0.00     0.166 HD
ENDROOT
BRANCH   1   3
HETATM    3  C6  UNL     1      25.191  -0.350  53.350  1.00  0.00     0.063 C 
BRANCH   3   4
HETATM    4  C5  UNL     1      26.280  -0.119  54.310  1.00  0.00     0.012 C 
BRANCH   4   5
HETATM    5  C4  UNL     1      27.323   1.057  53.754  1.00  0.00     0.044 C 
BRANCH   5   6
HETATM    6  C3  UNL     1      28.499   0.294  54.321  1.00  0.00     0.233 A 
HETATM    7  C2  UNL     1      29.435  -0.600  53.598  1.00  0.00     0.066 A 
HETATM    8  C1  UNL     1      28.921   0.090  54.530  1.00  0.00     0.286 A 
HETATM    9 BR1  UNL     1      29.046  -2.445  53.182  1.00  0.00    -0.086 Br
HETATM   10  N1  UNL     1      29.091   1.584  55.054  1.00  0.00    -0.061 N 
HETATM   11  H1  UNL     1      29.201   2.463  54.422  1.00  0.00     0.278 HD
HETATM   12  H2  UNL     1      29.060   1.686  56.126  1.00  0.00     0.278 HD
ENDBRANCH   5   6
ENDBRANCH   4   5
ENDBRANCH   3   4
ENDBRANCH   1   3
BRANCH   1  13
HETATM   13  C7  UNL     1      23.474   1.335  52.490  1.00  0.00     0.126 C 
HETATM   14  C8  UNL     1      22.583   1.775  51.642  1.00  0.00     0.044 C 
HETATM   15  C9  UNL     1      21.748   2.323  50.799  1.00  0.00     0.117 A 
HETATM   16  C10 UNL     1      22.518   2.539  49.709  1.00  0.00    -0.003 A 
HETATM   17 BR2  UNL     1      21.446   1.158  48.853  1.00  0.00    -0.117 Br
HETATM   18  C11 UNL     1      23.439   3.038  48.891  1.00  0.00     0.017 C 
HETATM   19  C12 UNL     1      23.759   4.386  49.106  1.00  0.00     0.020 C 
HETATM   20  C13 UNL     1      24.608   4.553  50.103  1.00  0.00     0.118 C 
HETATM   21  N3  UNL     1      25.436   3.694  50.593  1.00  0.00    -0.254 NA
HETATM   22  C14 UNL     1      25.002   2.791  51.523  1.00  0.00     0.234 C 
HETATM   23  N4  UNL     1      24.469   1.558  51.527  1.00  0.00    -0.225 NA
ENDBRANCH   1  13
TORSDOF 5
ENDMDL
