MODEL 1
REMARK VINA RESULT:      -7.5      0.000      0.000
REMARK  4 active torsions:
REMARK  status: ('A' for Active; 'I' for Inactive)
REMARK    1  A    between atoms: C2_2  and  C3_3 
REMARK    2  A    between atoms: C7_8  and  O2_9 
REMARK    3  A    between atoms: C8_10  and  O3_11 
REMARK    4  A    between atoms: O3_11  and  C9_12 
ROOT
HETATM    1  C3  UNL     1      26.742   1.899  52.369  1.00  0.00     0.169 C 
HETATM    2  C4  UNL     1      25.730   0.825  52.213  1.00  0.00     0.064 C 
HETATM    3  C5  UNL     1      25.149   0.308  53.539  1.00  0.00     0.171 C 
HETATM    4  O1  UNL     1      24.149  -0.626  53.078  1.00  0.00    -0.376 OA
HETATM    5  C6  UNL     1      23.021  -0.983  53.779  1.00  0.00     0.216 C 
HETATM    6  C7  UNL     1      21.711  -0.709  53.592  1.00  0.00     0.108 C 
HETATM    7  C8  UNL     1      20.413  -0.218  53.092  1.00  0.00     0.098 C 
HETATM    8  C11 UNL     1      20.269   0.547  52.027  1.00  0.00     0.041 C 
HETATM    9  C12 UNL     1      20.788   1.297  50.885  1.00  0.00     0.231 C 
HETATM   10  O4  UNL     1      22.197   1.234  50.765  1.00  0.00    -0.276 OA
HETATM   11  N1  UNL     1      22.530   2.074  49.745  1.00  0.00    -0.261 N 
HETATM   12  C13 UNL     1      23.582   3.047  49.904  1.00  0.00     0.225 C 
HETATM   13  N2  UNL     1      24.793   2.881  49.513  1.00  0.00    -0.267 NA
HETATM   14  C14 UNL     1      25.877   3.801  49.643  1.00  0.00     0.267 C 
HETATM   15  N3  UNL     1      26.538   3.572  50.916  1.00  0.00    -0.185 NA
HETATM   16  O5  UNL     1      27.045   2.349  51.064  1.00  0.00    -0.295 OA
HETATM   17  H19 UNL     1      22.083   2.098  48.793  1.00  0.00     0.195 HD
HETATM   18  H23 UNL     1      27.264   4.324  51.086  1.00  0.00     0.155 HD
ENDROOT
BRANCH   7  19
HETATM   19  O3  UNL     1      19.350  -0.651  53.867  1.00  0.00    -0.349 OA
BRANCH  19  20
HETATM   20  C9  UNL     1      18.234  -1.164  53.172  1.00  0.00     0.171 C 
HETATM   21  C10 UNL     1      17.840  -2.559  53.632  1.00  0.00     0.034 C 
ENDBRANCH  19  20
ENDBRANCH   7  19
BRANCH   6  22
HETATM   22  O2  UNL     1      21.781  -1.514  54.749  1.00  0.00    -0.359 OA
HETATM   23  H10 UNL     1      22.713  -1.505  55.190  1.00  0.00     0.217 HD
ENDBRANCH   6  22
BRANCH   1  24
HETATM   24  C2  UNL     1      27.951   1.552  53.109  1.00  0.00    -0.003 C 
HETATM   25  C1  UNL     1      28.660   2.532  53.667  1.00  0.00     0.009 C 
ENDBRANCH   1  24
TORSDOF 4
ENDMDL
MODEL 2
REMARK VINA RESULT:      -7.4      2.271      6.774
REMARK  4 active torsions:
REMARK  status: ('A' for Active; 'I' for Inactive)
REMARK    1  A    between atoms: C2_2  and  C3_3 
REMARK    2  A    between atoms: C7_8  and  O2_9 
REMARK    3  A    between atoms: C8_10  and  O3_11 
REMARK    4  A    between atoms: O3_11  and  C9_12 
ROOT
HETATM    1  C3  UNL     1      19.292  -0.761  52.828  1.00  0.00     0.169 C 
HETATM    2  C4  UNL     1      20.340  -0.327  53.785  1.00  0.00     0.064 C 
HETATM    3  C5  UNL     1      21.195  -1.474  54.347  1.00  0.00     0.171 C 
HETATM    4  O1  UNL     1      22.164  -0.756  55.142  1.00  0.00    -0.376 OA
HETATM    5  C6  UNL     1      23.426  -1.210  55.444  1.00  0.00     0.216 C 
HETATM    6  C7  UNL     1      24.653  -0.822  55.033  1.00  0.00     0.108 C 
HETATM    7  C8  UNL     1      25.794  -0.149  54.382  1.00  0.00     0.098 C 
HETATM    8  C11 UNL     1      25.678   0.847  53.524  1.00  0.00     0.041 C 
HETATM    9  C12 UNL     1      24.899   1.802  52.739  1.00  0.00     0.231 C 
HETATM   10  O4  UNL     1      23.502   1.676  52.926  1.00  0.00    -0.276 OA
HETATM   11  N1  UNL     1      22.920   2.537  52.044  1.00  0.00    -0.261 N 
HETATM   12  C13 UNL     1      21.842   2.102  51.191  1.00  0.00     0.225 C 
HETATM   13  N2  UNL     1      20.596   2.287  51.441  1.00  0.00    -0.267 NA
HETATM   14  C14 UNL     1      19.485   1.882  50.642  1.00  0.00     0.267 C 
HETATM   15  N3  UNL     1      19.091   0.539  51.033  1.00  0.00    -0.185 NA
HETATM   16  O5  UNL     1      18.719   0.421  52.306  1.00  0.00    -0.295 OA
HETATM   17  H19 UNL     1      23.181   3.546  51.902  1.00  0.00     0.195 HD
HETATM   18  H23 UNL     1      18.351   0.172  50.370  1.00  0.00     0.155 HD
ENDROOT
BRANCH   7  19
HETATM   19  O3  UNL     1      27.013  -0.680  54.772  1.00  0.00    -0.349 OA
BRANCH  19  20
HETATM   20  C9  UNL     1      28.122   0.189  54.713  1.00  0.00     0.171 C 
HETATM   21  C10 UNL     1      29.300  -0.404  53.954  1.00  0.00     0.034 C 
ENDBRANCH  19  20
ENDBRANCH   7  19
BRANCH   6  22
HETATM   22  O2  UNL     1      24.862  -1.891  55.930  1.00  0.00    -0.359 OA
HETATM   23  H10 UNL     1      25.820  -1.913  56.313  1.00  0.00     0.217 HD
ENDBRANCH   6  22
BRANCH   1  24
HETATM   24  C2  UNL     1      18.271  -1.666  53.347  1.00  0.00    -0.003 C 
HETATM   25  C1  UNL     1      17.019  -1.530  52.914  1.00  0.00     0.009 C 
ENDBRANCH   1  24
TORSDOF 4
ENDMDL
MODEL 3
REMARK VINA RESULT:      -7.1      2.757      6.849
REMARK  4 active torsions:
REMARK  status: ('A' for Active; 'I' for Inactive)
REMARK    1  A    between atoms: C2_2  and  C3_3 
REMARK    2  A    between atoms: C7_8  and  O2_9 
REMARK    3  A    between atoms: C8_10  and  O3_11 
REMARK    4  A    between atoms: O3_11  and  C9_12 
ROOT
HETATM    1  C3  UNL     1      21.587   3.400  50.792  1.00  0.00     0.169 C 
HETATM    2  C4  UNL     1      22.861   2.643  50.716  1.00  0.00     0.064 C 
HETATM    3  C5  UNL     1      24.110   3.477  51.046  1.00  0.00     0.171 C 
HETATM    4  O1  UNL     1      25.153   2.479  50.993  1.00  0.00    -0.376 OA
HETATM    5  C6  UNL     1      26.343   2.547  51.677  1.00  0.00     0.216 C 
HETATM    6  C7  UNL     1      26.826   1.851  52.730  1.00  0.00     0.108 C 
HETATM    7  C8  UNL     1      27.019   0.920  53.859  1.00  0.00     0.098 C 
HETATM    8  C11 UNL     1      26.121   0.040  54.257  1.00  0.00     0.041 C 
HETATM    9  C12 UNL     1      24.819  -0.619  54.170  1.00  0.00     0.231 C 
HETATM   10  O4  UNL     1      24.004  -0.118  53.128  1.00  0.00    -0.276 OA
HETATM   11  N1  UNL     1      22.797  -0.738  53.257  1.00  0.00    -0.261 N 
HETATM   12  C13 UNL     1      21.572   0.023  53.236  1.00  0.00     0.225 C 
HETATM   13  N2  UNL     1      20.830   0.181  52.201  1.00  0.00    -0.267 NA
HETATM   14  C14 UNL     1      19.612   0.920  52.115  1.00  0.00     0.267 C 
HETATM   15  N3  UNL     1      19.922   2.298  51.775  1.00  0.00    -0.185 NA
HETATM   16  O5  UNL     1      20.554   2.452  50.613  1.00  0.00    -0.295 OA
HETATM   17  H19 UNL     1      22.643  -1.771  53.378  1.00  0.00     0.195 HD
HETATM   18  H23 UNL     1      19.045   2.889  51.829  1.00  0.00     0.155 HD
ENDROOT
BRANCH   7  19
HETATM   19  O3  UNL     1      28.258   1.070  54.461  1.00  0.00    -0.349 OA
BRANCH  19  20
HETATM   20  C9  UNL     1      28.992  -0.114  54.685  1.00  0.00     0.171 C 
HETATM   21  C10 UNL     1      29.808  -0.542  53.474  1.00  0.00     0.034 C 
ENDBRANCH  19  20
ENDBRANCH   7  19
BRANCH   6  22
HETATM   22  O2  UNL     1      27.834   2.774  52.376  1.00  0.00    -0.359 OA
HETATM   23  H10 UNL     1      28.588   2.350  51.814  1.00  0.00     0.217 HD
ENDBRANCH   6  22
BRANCH   1  24
HETATM   24  C2  UNL     1      21.443   4.528  49.877  1.00  0.00    -0.003 C 
HETATM   25  C1  UNL     1      21.072   5.707  50.372  1.00  0.00     0.009 C 
ENDBRANCH   1  24
TORSDOF 4
ENDMDL
MODEL 4
REMARK VINA RESULT:      -7.1      2.115      6.161
REMARK  4 active torsions:
REMARK  status: ('A' for Active; 'I' for Inactive)
REMARK    1  A    between atoms: C2_2  and  C3_3 
REMARK    2  A    between atoms: C7_8  and  O2_9 
REMARK    3  A    between atoms: C8_10  and  O3_11 
REMARK    4  A    between atoms: O3_11  and  C9_12 
ROOT
HETATM    1  C3  UNL     1      21.720   1.223  50.492  1.00  0.00     0.169 C 
HETATM    2  C4  UNL     1      22.501   1.388  51.743  1.00  0.00     0.064 C 
HETATM    3  C5  UNL     1      22.865   0.066  52.438  1.00  0.00     0.171 C 
HETATM    4  O1  UNL     1      23.685   0.526  53.534  1.00  0.00    -0.376 OA
HETATM    5  C6  UNL     1      24.662  -0.218  54.153  1.00  0.00     0.216 C 
HETATM    6  C7  UNL     1      26.010  -0.129  54.149  1.00  0.00     0.108 C 
HETATM    7  C8  UNL     1      27.415   0.257  53.913  1.00  0.00     0.098 C 
HETATM    8  C11 UNL     1      27.789   1.258  53.141  1.00  0.00     0.041 C 
HETATM    9  C12 UNL     1      27.519   2.377  52.240  1.00  0.00     0.231 C 
HETATM   10  O4  UNL     1      26.140   2.587  52.003  1.00  0.00    -0.276 OA
HETATM   11  N1  UNL     1      26.060   3.568  51.061  1.00  0.00    -0.261 N 
HETATM   12  C13 UNL     1      25.220   3.410  49.899  1.00  0.00     0.225 C 
HETATM   13  N2  UNL     1      24.032   3.884  49.790  1.00  0.00    -0.267 NA
HETATM   14  C14 UNL     1      23.153   3.761  48.672  1.00  0.00     0.267 C 
HETATM   15  N3  UNL     1      22.368   2.548  48.825  1.00  0.00    -0.185 NA
HETATM   16  O5  UNL     1      21.613   2.512  49.921  1.00  0.00    -0.295 OA
HETATM   17  H19 UNL     1      26.572   4.487  51.081  1.00  0.00     0.195 HD
HETATM   18  H23 UNL     1      21.799   2.373  47.948  1.00  0.00     0.155 HD
ENDROOT
BRANCH   7  19
HETATM   19  O3  UNL     1      28.307  -0.552  54.598  1.00  0.00    -0.349 OA
BRANCH  19  20
HETATM   20  C9  UNL     1      29.414  -1.025  53.863  1.00  0.00     0.171 C 
HETATM   21  C10 UNL     1      29.151  -2.365  53.192  1.00  0.00     0.034 C 
ENDBRANCH  19  20
ENDBRANCH   7  19
BRANCH   6  22
HETATM   22  O2  UNL     1      25.693  -1.224  54.981  1.00  0.00    -0.359 OA
HETATM   23  H10 UNL     1      26.433  -1.435  55.668  1.00  0.00     0.217 HD
ENDBRANCH   6  22
BRANCH   1  24
HETATM   24  C2  UNL     1      20.415   0.583  50.618  1.00  0.00    -0.003 C 
HETATM   25  C1  UNL     1      19.461   1.210  51.303  1.00  0.00     0.009 C 
ENDBRANCH   1  24
TORSDOF 4
ENDMDL
MODEL 5
REMARK VINA RESULT:      -6.8      2.115      3.689
REMARK  4 active torsions:
REMARK  status: ('A' for Active; 'I' for Inactive)
REMARK    1  A    between atoms: C2_2  and  C3_3 
REMARK    2  A    between atoms: C7_8  and  O2_9 
REMARK    3  A    between atoms: C8_10  and  O3_11 
REMARK    4  A    between atoms: O3_11  and  C9_12 
ROOT
HETATM    1  C3  UNL     1      25.412   2.561  51.053  1.00  0.00     0.169 C 
HETATM    2  C4  UNL     1      24.247   2.564  51.971  1.00  0.00     0.064 C 
HETATM    3  C5  UNL     1      22.884   2.603  51.261  1.00  0.00     0.171 C 
HETATM    4  O1  UNL     1      21.970   2.495  52.373  1.00  0.00    -0.376 OA
HETATM    5  C6  UNL     1      20.696   1.984  52.299  1.00  0.00     0.216 C 
HETATM    6  C7  UNL     1      20.148   0.839  52.763  1.00  0.00     0.108 C 
HETATM    7  C8  UNL     1      19.900  -0.472  53.393  1.00  0.00     0.098 C 
HETATM    8  C11 UNL     1      20.822  -1.184  54.011  1.00  0.00     0.041 C 
HETATM    9  C12 UNL     1      22.185  -1.416  54.485  1.00  0.00     0.231 C 
HETATM   10  O4  UNL     1      23.079  -0.369  54.158  1.00  0.00    -0.276 OA
HETATM   11  N1  UNL     1      24.315  -0.786  54.553  1.00  0.00    -0.261 N 
HETATM   12  C13 UNL     1      25.445  -0.691  53.661  1.00  0.00     0.225 C 
HETATM   13  N2  UNL     1      26.301   0.265  53.671  1.00  0.00    -0.267 NA
HETATM   14  C14 UNL     1      27.436   0.418  52.818  1.00  0.00     0.267 C 
HETATM   15  N3  UNL     1      27.032   1.148  51.628  1.00  0.00    -0.185 NA
HETATM   16  O5  UNL     1      26.554   2.368  51.863  1.00  0.00    -0.295 OA
HETATM   17  H19 UNL     1      24.559  -1.197  55.490  1.00  0.00     0.195 HD
HETATM   18  H23 UNL     1      27.827   1.163  50.928  1.00  0.00     0.155 HD
ENDROOT
BRANCH   7  19
HETATM   19  O3  UNL     1      18.581  -0.878  53.267  1.00  0.00    -0.349 OA
BRANCH  19  20
HETATM   20  C9  UNL     1      18.279  -2.176  53.730  1.00  0.00     0.171 C 
HETATM   21  C10 UNL     1      16.976  -2.718  53.161  1.00  0.00     0.034 C 
ENDBRANCH  19  20
ENDBRANCH   7  19
BRANCH   6  22
HETATM   22  O2  UNL     1      19.107   1.533  52.108  1.00  0.00    -0.359 OA
HETATM   23  H10 UNL     1      19.334   2.524  51.931  1.00  0.00     0.217 HD
ENDBRANCH   6  22
BRANCH   1  24
HETATM   24  C2  UNL     1      25.562   3.726  50.186  1.00  0.00    -0.003 C 
HETATM   25  C1  UNL     1      26.680   3.851  49.473  1.00  0.00     0.009 C 
ENDBRANCH   1  24
TORSDOF 4
ENDMDL
MODEL 6
REMARK VINA RESULT:      -6.8      2.612      7.121
REMARK  4 active torsions:
REMARK  status: ('A' for Active; 'I' for Inactive)
REMARK    1  A    between atoms: C2_2  and  C3_3 
REMARK    2  A    between atoms: C7_8  and  O2_9 
REMARK    3  A    between atoms: C8_10  and  O3_11 
REMARK    4  A    between atoms: O3_11  and  C9_12 
ROOT
HETATM    1  C3  UNL     1      21.842  -0.046  52.685  1.00  0.00     0.169 C 
HETATM    2  C4  UNL     1      22.672   1.184  52.709  1.00  0.00     0.064 C 
HETATM    3  C5  UNL     1      24.165   0.942  52.437  1.00  0.00     0.171 C 
HETATM    4  O1  UNL     1      24.683   2.290  52.421  1.00  0.00    -0.376 OA
HETATM    5  C6  UNL     1      25.810   2.693  51.744  1.00  0.00     0.216 C 
HETATM    6  C7  UNL     1      25.982   3.461  50.645  1.00  0.00     0.108 C 
HETATM    7  C8  UNL     1      25.794   4.314  49.456  1.00  0.00     0.098 C 
HETATM    8  C11 UNL     1      24.619   4.701  48.998  1.00  0.00     0.041 C 
HETATM    9  C12 UNL     1      23.159   4.748  49.040  1.00  0.00     0.231 C 
HETATM   10  O4  UNL     1      22.603   4.013  50.114  1.00  0.00    -0.276 OA
HETATM   11  N1  UNL     1      21.252   4.051  49.943  1.00  0.00    -0.261 N 
HETATM   12  C13 UNL     1      20.466   2.844  50.015  1.00  0.00     0.225 C 
HETATM   13  N2  UNL     1      19.832   2.450  51.059  1.00  0.00    -0.267 NA
HETATM   14  C14 UNL     1      19.040   1.270  51.196  1.00  0.00     0.267 C 
HETATM   15  N3  UNL     1      19.896   0.179  51.629  1.00  0.00    -0.185 NA
HETATM   16  O5  UNL     1      20.500   0.381  52.799  1.00  0.00    -0.295 OA
HETATM   17  H19 UNL     1      20.677   4.910  49.751  1.00  0.00     0.195 HD
HETATM   18  H23 UNL     1      19.355  -0.732  51.616  1.00  0.00     0.155 HD
ENDROOT
BRANCH   7  19
HETATM   19  O3  UNL     1      26.996   4.669  48.865  1.00  0.00    -0.349 OA
BRANCH  19  20
HETATM   20  C9  UNL     1      27.164   6.036  48.559  1.00  0.00     0.171 C 
HETATM   21  C10 UNL     1      28.566   6.364  48.066  1.00  0.00     0.034 C 
ENDBRANCH  19  20
ENDBRANCH   7  19
BRANCH   6  22
HETATM   22  O2  UNL     1      27.275   3.079  51.062  1.00  0.00    -0.359 OA
HETATM   23  H10 UNL     1      27.635   3.657  51.837  1.00  0.00     0.217 HD
ENDBRANCH   6  22
BRANCH   1  24
HETATM   24  C2  UNL     1      22.164  -1.069  53.676  1.00  0.00    -0.003 C 
HETATM   25  C1  UNL     1      21.851  -0.842  54.951  1.00  0.00     0.009 C 
ENDBRANCH   1  24
TORSDOF 4
ENDMDL
MODEL 7
REMARK VINA RESULT:      -6.7      2.494      7.728
REMARK  4 active torsions:
REMARK  status: ('A' for Active; 'I' for Inactive)
REMARK    1  A    between atoms: C2_2  and  C3_3 
REMARK    2  A    between atoms: C7_8  and  O2_9 
REMARK    3  A    between atoms: C8_10  and  O3_11 
REMARK    4  A    between atoms: O3_11  and  C9_12 
ROOT
HETATM    1  C3  UNL     1      19.780   0.582  52.386  1.00  0.00     0.169 C 
HETATM    2  C4  UNL     1      20.798   0.674  51.310  1.00  0.00     0.064 C 
HETATM    3  C5  UNL     1      20.762   1.992  50.520  1.00  0.00     0.171 C 
HETATM    4  O1  UNL     1      21.896   1.839  49.640  1.00  0.00    -0.376 OA
HETATM    5  C6  UNL     1      22.618   2.876  49.097  1.00  0.00     0.216 C 
HETATM    6  C7  UNL     1      23.868   3.333  49.332  1.00  0.00     0.108 C 
HETATM    7  C8  UNL     1      25.235   3.552  49.841  1.00  0.00     0.098 C 
HETATM    8  C11 UNL     1      25.801   2.827  50.786  1.00  0.00     0.041 C 
HETATM    9  C12 UNL     1      25.803   1.743  51.767  1.00  0.00     0.231 C 
HETATM   10  O4  UNL     1      24.591   1.014  51.803  1.00  0.00    -0.276 OA
HETATM   11  N1  UNL     1      24.705   0.135  52.838  1.00  0.00    -0.261 N 
HETATM   12  C13 UNL     1      23.654   0.008  53.817  1.00  0.00     0.225 C 
HETATM   13  N2  UNL     1      22.741  -0.893  53.792  1.00  0.00    -0.267 NA
HETATM   14  C14 UNL     1      21.676  -1.071  54.726  1.00  0.00     0.267 C 
HETATM   15  N3  UNL     1      20.536  -0.282  54.293  1.00  0.00    -0.185 NA
HETATM   16  O5  UNL     1      20.060  -0.610  53.093  1.00  0.00    -0.295 OA
HETATM   17  H19 UNL     1      25.521  -0.503  53.020  1.00  0.00     0.195 HD
HETATM   18  H23 UNL     1      19.780  -0.301  55.036  1.00  0.00     0.155 HD
ENDROOT
BRANCH   7  19
HETATM   19  O3  UNL     1      25.869   4.612  49.212  1.00  0.00    -0.349 OA
BRANCH  19  20
HETATM   20  C9  UNL     1      27.250   4.458  48.965  1.00  0.00     0.171 C 
HETATM   21  C10 UNL     1      27.892   5.713  48.394  1.00  0.00     0.034 C 
ENDBRANCH  19  20
ENDBRANCH   7  19
BRANCH   6  22
HETATM   22  O2  UNL     1      23.331   4.163  48.326  1.00  0.00    -0.359 OA
HETATM   23  H10 UNL     1      22.471   3.780  47.904  1.00  0.00     0.217 HD
ENDBRANCH   6  22
BRANCH   1  24
HETATM   24  C2  UNL     1      18.383   0.640  51.969  1.00  0.00    -0.003 C 
HETATM   25  C1  UNL     1      17.887  -0.372  51.260  1.00  0.00     0.009 C 
ENDBRANCH   1  24
TORSDOF 4
ENDMDL
MODEL 8
REMARK VINA RESULT:      -6.6      2.687      7.463
REMARK  4 active torsions:
REMARK  status: ('A' for Active; 'I' for Inactive)
REMARK    1  A    between atoms: C2_2  and  C3_3 
REMARK    2  A    between atoms: C7_8  and  O2_9 
REMARK    3  A    between atoms: C8_10  and  O3_11 
REMARK    4  A    between atoms: O3_11  and  C9_12 
ROOT
HETATM    1  C3  UNL     1      21.643  -0.252  53.938  1.00  0.00     0.169 C 
HETATM    2  C4  UNL     1      22.381  -0.003  52.674  1.00  0.00     0.064 C 
HETATM    3  C5  UNL     1      21.965   1.283  51.944  1.00  0.00     0.171 C 
HETATM    4  O1  UNL     1      22.897   1.310  50.841  1.00  0.00    -0.376 OA
HETATM    5  C6  UNL     1      23.310   2.446  50.185  1.00  0.00     0.216 C 
HETATM    6  C7  UNL     1      24.490   3.104  50.164  1.00  0.00     0.108 C 
HETATM    7  C8  UNL     1      25.880   3.549  50.379  1.00  0.00     0.098 C 
HETATM    8  C11 UNL     1      26.743   2.935  51.165  1.00  0.00     0.041 C 
HETATM    9  C12 UNL     1      27.129   1.876  52.096  1.00  0.00     0.231 C 
HETATM   10  O4  UNL     1      26.086   0.958  52.366  1.00  0.00    -0.276 OA
HETATM   11  N1  UNL     1      26.558   0.120  53.331  1.00  0.00    -0.261 N 
HETATM   12  C13 UNL     1      25.772  -0.169  54.506  1.00  0.00     0.225 C 
HETATM   13  N2  UNL     1      25.034  -1.208  54.651  1.00  0.00    -0.267 NA
HETATM   14  C14 UNL     1      24.234  -1.549  55.783  1.00  0.00     0.267 C 
HETATM   15  N3  UNL     1      22.915  -0.962  55.620  1.00  0.00    -0.185 NA
HETATM   16  O5  UNL     1      22.256  -1.374  54.539  1.00  0.00    -0.295 OA
HETATM   17  H19 UNL     1      27.486  -0.374  53.321  1.00  0.00     0.195 HD
HETATM   18  H23 UNL     1      22.348  -1.098  56.504  1.00  0.00     0.155 HD
ENDROOT
BRANCH   7  19
HETATM   19  O3  UNL     1      26.186   4.692  49.658  1.00  0.00    -0.349 OA
BRANCH  19  20
HETATM   20  C9  UNL     1      27.304   4.611  48.801  1.00  0.00     0.171 C 
HETATM   21  C10 UNL     1      27.842   5.977  48.400  1.00  0.00     0.034 C 
ENDBRANCH  19  20
ENDBRANCH   7  19
BRANCH   6  22
HETATM   22  O2  UNL     1      23.624   3.826  49.314  1.00  0.00    -0.359 OA
HETATM   23  H10 UNL     1      24.122   4.316  48.555  1.00  0.00     0.217 HD
ENDBRANCH   6  22
BRANCH   1  24
HETATM   24  C2  UNL     1      20.198  -0.427  53.825  1.00  0.00    -0.003 C 
HETATM   25  C1  UNL     1      19.703  -1.663  53.841  1.00  0.00     0.009 C 
ENDBRANCH   1  24
TORSDOF 4
ENDMDL
MODEL 9
REMARK VINA RESULT:      -6.4      2.886      6.899
REMARK  4 active torsions:
REMARK  status: ('A' for Active; 'I' for Inactive)
REMARK    1  A    between atoms: C2_2  and  C3_3 
REMARK    2  A    between atoms: C7_8  and  O2_9 
REMARK    3  A    between atoms: C8_10  and  O3_11 
REMARK    4  A    between atoms: O3_11  and  C9_12 
ROOT
HETATM    1  C3  UNL     1      22.957   0.201  53.627  1.00  0.00     0.169 C 
HETATM    2  C4  UNL     1      22.837   0.888  52.317  1.00  0.00     0.064 C 
HETATM    3  C5  UNL     1      21.947   2.141  52.342  1.00  0.00     0.171 C 
HETATM    4  O1  UNL     1      22.100   2.638  50.995  1.00  0.00    -0.376 OA
HETATM    5  C6  UNL     1      21.951   3.952  50.618  1.00  0.00     0.216 C 
HETATM    6  C7  UNL     1      22.840   4.888  50.218  1.00  0.00     0.108 C 
HETATM    7  C8  UNL     1      24.056   5.630  49.836  1.00  0.00     0.098 C 
HETATM    8  C11 UNL     1      25.272   5.118  49.844  1.00  0.00     0.041 C 
HETATM    9  C12 UNL     1      26.223   4.031  50.067  1.00  0.00     0.231 C 
HETATM   10  O4  UNL     1      25.615   2.836  50.518  1.00  0.00    -0.276 OA
HETATM   11  N1  UNL     1      26.632   1.972  50.795  1.00  0.00    -0.261 N 
HETATM   12  C13 UNL     1      26.668   1.252  52.044  1.00  0.00     0.225 C 
HETATM   13  N2  UNL     1      26.254   0.048  52.203  1.00  0.00    -0.267 NA
HETATM   14  C14 UNL     1      26.261  -0.717  53.408  1.00  0.00     0.267 C 
HETATM   15  N3  UNL     1      25.018  -0.478  54.122  1.00  0.00    -0.185 NA
HETATM   16  O5  UNL     1      23.920  -0.819  53.451  1.00  0.00    -0.295 OA
HETATM   17  H19 UNL     1      27.446   1.754  50.166  1.00  0.00     0.195 HD
HETATM   18  H23 UNL     1      25.056  -0.937  55.076  1.00  0.00     0.155 HD
ENDROOT
BRANCH   7  19
HETATM   19  O3  UNL     1      23.782   6.936  49.462  1.00  0.00    -0.349 OA
BRANCH  19  20
HETATM   20  C9  UNL     1      24.155   7.941  50.380  1.00  0.00     0.171 C 
HETATM   21  C10 UNL     1      25.264   8.840  49.855  1.00  0.00     0.034 C 
ENDBRANCH  19  20
ENDBRANCH   7  19
BRANCH   6  22
HETATM   22  O2  UNL     1      21.575   5.514  50.194  1.00  0.00    -0.359 OA
HETATM   23  H10 UNL     1      20.811   4.868  49.941  1.00  0.00     0.217 HD
ENDBRANCH   6  22
BRANCH   1  24
HETATM   24  C2  UNL     1      21.723  -0.323  54.204  1.00  0.00    -0.003 C 
HETATM   25  C1  UNL     1      21.560  -1.643  54.270  1.00  0.00     0.009 C 
ENDBRANCH   1  24
TORSDOF 4
ENDMDL
