MODEL 1
REMARK VINA RESULT:      -8.1      0.000      0.000
REMARK  3 active torsions:
REMARK  status: ('A' for Active; 'I' for Inactive)
REMARK    1  A    between atoms: C6_8  and  N2_9 
REMARK    2  A    between atoms: N2_9  and  C7_10 
REMARK    3  A    between atoms: C10_13  and  C11_14 
ROOT
HETATM    1  N2  UNL     1      25.553   2.890  50.744  1.00  0.00    -0.320 N 
HETATM    2  H4  UNL     1      24.522   2.672  50.702  1.00  0.00     0.169 HD
ENDROOT
BRANCH   1   3
HETATM    3  C6  UNL     1      26.386   2.027  51.505  1.00  0.00     0.252 A 
HETATM    4  N1  UNL     1      27.419   2.449  52.296  1.00  0.00    -0.206 NA
HETATM    5  C5  UNL     1      27.988   1.377  52.866  1.00  0.00     0.096 A 
HETATM    6  C4  UNL     1      29.058   1.310  53.736  1.00  0.00     0.035 A 
HETATM    7  C16 UNL     1      27.293   0.275  52.417  1.00  0.00     0.129 A 
HETATM    8  C3  UNL     1      29.404   0.037  54.147  1.00  0.00     0.004 A 
HETATM    9  C2  UNL     1      28.726  -1.095  53.715  1.00  0.00     0.027 A 
HETATM   10  C1  UNL     1      27.651  -0.978  52.835  1.00  0.00     0.070 A 
HETATM   11 CL1  UNL     1      26.817  -2.394  52.306  1.00  0.00    -0.081 Cl
HETATM   12  O1  UNL     1      26.360   0.723  51.617  1.00  0.00    -0.274 OA
ENDBRANCH   1   3
BRANCH   1  13
HETATM   13  C7  UNL     1      25.974   4.036  50.022  1.00  0.00     0.035 A 
HETATM   14  C8  UNL     1      27.103   4.011  49.234  1.00  0.00     0.030 A 
HETATM   15  C9  UNL     1      27.539   5.103  48.522  1.00  0.00     0.012 A 
HETATM   16  C10 UNL     1      26.865   6.290  48.558  1.00  0.00    -0.028 A 
HETATM   17  C14 UNL     1      25.742   6.362  49.323  1.00  0.00     0.012 A 
HETATM   18  C15 UNL     1      25.326   5.252  50.027  1.00  0.00     0.030 A 
BRANCH  16  19
HETATM   19  C11 UNL     1      27.321   7.477  47.795  1.00  0.00     0.188 A 
HETATM   20  C12 UNL     1      28.719   7.235  47.376  1.00  0.00     0.028 A 
HETATM   21  C13 UNL     1      29.399   8.218  47.893  1.00  0.00     0.139 A 
HETATM   22  N3  UNL     1      28.542   9.083  48.620  1.00  0.00    -0.167 NA
HETATM   23  N4  UNL     1      27.342   8.675  48.576  1.00  0.00    -0.179 NA
ENDBRANCH  16  19
ENDBRANCH   1  13
TORSDOF 3
ENDMDL
MODEL 2
REMARK VINA RESULT:      -8.0      5.508      7.770
REMARK  3 active torsions:
REMARK  status: ('A' for Active; 'I' for Inactive)
REMARK    1  A    between atoms: C6_8  and  N2_9 
REMARK    2  A    between atoms: N2_9  and  C7_10 
REMARK    3  A    between atoms: C10_13  and  C11_14 
ROOT
HETATM    1  N2  UNL     1      23.941  -0.972  54.348  1.00  0.00    -0.320 N 
HETATM    2  H4  UNL     1      23.828  -1.812  54.976  1.00  0.00     0.169 HD
ENDROOT
BRANCH   1   3
HETATM    3  C6  UNL     1      25.251  -0.455  54.158  1.00  0.00     0.252 A 
HETATM    4  N1  UNL     1      25.565   0.876  54.171  1.00  0.00    -0.206 NA
HETATM    5  C5  UNL     1      26.883   1.007  53.961  1.00  0.00     0.096 A 
HETATM    6  C4  UNL     1      27.651   2.152  53.890  1.00  0.00     0.035 A 
HETATM    7  C16 UNL     1      27.389  -0.266  53.815  1.00  0.00     0.129 A 
HETATM    8  C3  UNL     1      28.997   1.945  53.659  1.00  0.00     0.004 A 
HETATM    9  C2  UNL     1      29.540   0.676  53.507  1.00  0.00     0.027 A 
HETATM   10  C1  UNL     1      28.725  -0.452  53.587  1.00  0.00     0.070 A 
HETATM   11 CL1  UNL     1      29.414  -2.024  53.397  1.00  0.00    -0.081 Cl
HETATM   12  O1  UNL     1      26.377  -1.086  53.941  1.00  0.00    -0.274 OA
ENDBRANCH   1   3
BRANCH   1  13
HETATM   13  C7  UNL     1      22.749  -0.466  53.770  1.00  0.00     0.035 A 
HETATM   14  C8  UNL     1      21.600  -0.318  54.515  1.00  0.00     0.030 A 
HETATM   15  C9  UNL     1      20.428   0.169  53.986  1.00  0.00     0.012 A 
HETATM   16  C10 UNL     1      20.339   0.538  52.675  1.00  0.00    -0.028 A 
HETATM   17  C14 UNL     1      21.450   0.409  51.900  1.00  0.00     0.012 A 
HETATM   18  C15 UNL     1      22.613  -0.081  52.454  1.00  0.00     0.030 A 
BRANCH  16  19
HETATM   19  C11 UNL     1      19.083   1.065  52.089  1.00  0.00     0.188 A 
HETATM   20  C12 UNL     1      18.117  -0.053  52.011  1.00  0.00     0.028 A 
HETATM   21  C13 UNL     1      17.807  -0.140  50.748  1.00  0.00     0.139 A 
HETATM   22  N3  UNL     1      18.502   0.843  50.000  1.00  0.00    -0.167 NA
HETATM   23  N4  UNL     1      19.242   1.547  50.752  1.00  0.00    -0.179 NA
ENDBRANCH  16  19
ENDBRANCH   1  13
TORSDOF 3
ENDMDL
MODEL 3
REMARK VINA RESULT:      -8.0      3.290      8.045
REMARK  3 active torsions:
REMARK  status: ('A' for Active; 'I' for Inactive)
REMARK    1  A    between atoms: C6_8  and  N2_9 
REMARK    2  A    between atoms: N2_9  and  C7_10 
REMARK    3  A    between atoms: C10_13  and  C11_14 
ROOT
HETATM    1  N2  UNL     1      25.300   3.447  50.458  1.00  0.00    -0.320 N 
HETATM    2  H4  UNL     1      24.247   3.470  50.401  1.00  0.00     0.169 HD
ENDROOT
BRANCH   1   3
HETATM    3  C6  UNL     1      26.029   4.406  49.706  1.00  0.00     0.252 A 
HETATM    4  N1  UNL     1      27.334   4.259  49.325  1.00  0.00    -0.206 NA
HETATM    5  C5  UNL     1      27.703   5.347  48.632  1.00  0.00     0.096 A 
HETATM    6  C4  UNL     1      28.919   5.647  48.051  1.00  0.00     0.035 A 
HETATM    7  C16 UNL     1      26.605   6.178  48.587  1.00  0.00     0.129 A 
HETATM    8  C3  UNL     1      28.977   6.864  47.400  1.00  0.00     0.004 A 
HETATM    9  C2  UNL     1      27.890   7.725  47.335  1.00  0.00     0.027 A 
HETATM   10  C1  UNL     1      26.681   7.380  47.937  1.00  0.00     0.070 A 
HETATM   11 CL1  UNL     1      25.338   8.461  47.848  1.00  0.00    -0.081 Cl
HETATM   12  O1  UNL     1      25.649   5.568  49.238  1.00  0.00    -0.274 OA
ENDBRANCH   1   3
BRANCH   1  13
HETATM   13  C7  UNL     1      25.852   2.442  51.293  1.00  0.00     0.035 A 
HETATM   14  C8  UNL     1      25.138   1.310  51.618  1.00  0.00     0.030 A 
HETATM   15  C9  UNL     1      25.643   0.318  52.424  1.00  0.00     0.012 A 
HETATM   16  C10 UNL     1      26.897   0.402  52.955  1.00  0.00    -0.028 A 
HETATM   17  C14 UNL     1      27.641   1.503  52.661  1.00  0.00     0.012 A 
HETATM   18  C15 UNL     1      27.112   2.484  51.849  1.00  0.00     0.030 A 
BRANCH  16  19
HETATM   19  C11 UNL     1      27.457  -0.659  53.826  1.00  0.00     0.188 A 
HETATM   20  C12 UNL     1      28.926  -0.489  53.859  1.00  0.00     0.028 A 
HETATM   21  C13 UNL     1      29.404  -1.619  53.419  1.00  0.00     0.139 A 
HETATM   22  N3  UNL     1      28.350  -2.512  53.103  1.00  0.00    -0.167 NA
HETATM   23  N4  UNL     1      27.220  -1.980  53.330  1.00  0.00    -0.179 NA
ENDBRANCH  16  19
ENDBRANCH   1  13
TORSDOF 3
ENDMDL
MODEL 4
REMARK VINA RESULT:      -8.0      4.882      7.523
REMARK  3 active torsions:
REMARK  status: ('A' for Active; 'I' for Inactive)
REMARK    1  A    between atoms: C6_8  and  N2_9 
REMARK    2  A    between atoms: N2_9  and  C7_10 
REMARK    3  A    between atoms: C10_13  and  C11_14 
ROOT
HETATM    1  N2  UNL     1      22.774   3.018  51.886  1.00  0.00    -0.320 N 
HETATM    2  H4  UNL     1      22.593   3.985  51.506  1.00  0.00     0.169 HD
ENDROOT
BRANCH   1   3
HETATM    3  C6  UNL     1      21.663   2.148  52.048  1.00  0.00     0.252 A 
HETATM    4  N1  UNL     1      20.458   2.308  51.421  1.00  0.00    -0.206 NA
HETATM    5  C5  UNL     1      19.642   1.313  51.799  1.00  0.00     0.096 A 
HETATM    6  C4  UNL     1      18.336   1.060  51.430  1.00  0.00     0.035 A 
HETATM    7  C16 UNL     1      20.358   0.527  52.675  1.00  0.00     0.129 A 
HETATM    8  C3  UNL     1      17.768  -0.060  52.004  1.00  0.00     0.004 A 
HETATM    9  C2  UNL     1      18.460  -0.874  52.891  1.00  0.00     0.027 A 
HETATM   10  C1  UNL     1      19.778  -0.580  53.235  1.00  0.00     0.070 A 
HETATM   11 CL1  UNL     1      20.627  -1.601  54.339  1.00  0.00    -0.081 Cl
HETATM   12  O1  UNL     1      21.543   1.071  52.782  1.00  0.00    -0.274 OA
ENDBRANCH   1   3
BRANCH   1  13
HETATM   13  C7  UNL     1      24.126   2.714  52.188  1.00  0.00     0.035 A 
HETATM   14  C8  UNL     1      25.015   2.352  51.200  1.00  0.00     0.030 A 
HETATM   15  C9  UNL     1      26.331   2.051  51.458  1.00  0.00     0.012 A 
HETATM   16  C10 UNL     1      26.836   2.095  52.725  1.00  0.00    -0.028 A 
HETATM   17  C14 UNL     1      25.994   2.448  53.734  1.00  0.00     0.012 A 
HETATM   18  C15 UNL     1      24.678   2.746  53.449  1.00  0.00     0.030 A 
BRANCH  16  19
HETATM   19  C11 UNL     1      28.253   1.773  53.020  1.00  0.00     0.188 A 
HETATM   20  C12 UNL     1      28.326   0.338  53.372  1.00  0.00     0.028 A 
HETATM   21  C13 UNL     1      28.836   0.312  54.571  1.00  0.00     0.139 A 
HETATM   22  N3  UNL     1      29.098   1.629  55.024  1.00  0.00    -0.167 NA
HETATM   23  N4  UNL     1      28.771   2.486  54.147  1.00  0.00    -0.179 NA
ENDBRANCH  16  19
ENDBRANCH   1  13
TORSDOF 3
ENDMDL
MODEL 5
REMARK VINA RESULT:      -7.9      1.384      1.796
REMARK  3 active torsions:
REMARK  status: ('A' for Active; 'I' for Inactive)
REMARK    1  A    between atoms: C6_8  and  N2_9 
REMARK    2  A    between atoms: N2_9  and  C7_10 
REMARK    3  A    between atoms: C10_13  and  C11_14 
ROOT
HETATM    1  N2  UNL     1      25.739   3.268  49.771  1.00  0.00    -0.320 N 
HETATM    2  H4  UNL     1      24.968   2.921  49.140  1.00  0.00     0.169 HD
ENDROOT
BRANCH   1   3
HETATM    3  C6  UNL     1      26.045   2.505  50.929  1.00  0.00     0.252 A 
HETATM    4  N1  UNL     1      27.238   2.557  51.595  1.00  0.00    -0.206 NA
HETATM    5  C5  UNL     1      27.185   1.713  52.636  1.00  0.00     0.096 A 
HETATM    6  C4  UNL     1      28.145   1.429  53.586  1.00  0.00     0.035 A 
HETATM    7  C16 UNL     1      25.936   1.130  52.609  1.00  0.00     0.129 A 
HETATM    8  C3  UNL     1      27.775   0.501  54.540  1.00  0.00     0.004 A 
HETATM    9  C2  UNL     1      26.526  -0.106  54.542  1.00  0.00     0.027 A 
HETATM   10  C1  UNL     1      25.587   0.211  53.562  1.00  0.00     0.070 A 
HETATM   11 CL1  UNL     1      24.037  -0.550  53.577  1.00  0.00    -0.081 Cl
HETATM   12  O1  UNL     1      25.310   1.637  51.578  1.00  0.00    -0.274 OA
ENDBRANCH   1   3
BRANCH   1  13
HETATM   13  C7  UNL     1      26.374   4.470  49.368  1.00  0.00     0.035 A 
HETATM   14  C8  UNL     1      25.776   5.695  49.565  1.00  0.00     0.030 A 
HETATM   15  C9  UNL     1      26.363   6.879  49.187  1.00  0.00     0.012 A 
HETATM   16  C10 UNL     1      27.589   6.905  48.587  1.00  0.00    -0.028 A 
HETATM   17  C14 UNL     1      28.218   5.718  48.373  1.00  0.00     0.012 A 
HETATM   18  C15 UNL     1      27.609   4.545  48.762  1.00  0.00     0.030 A 
BRANCH  16  19
HETATM   19  C11 UNL     1      28.236   8.174  48.174  1.00  0.00     0.188 A 
HETATM   20  C12 UNL     1      29.606   7.853  47.717  1.00  0.00     0.028 A 
HETATM   21  C13 UNL     1      30.389   8.558  48.484  1.00  0.00     0.139 A 
HETATM   22  N3  UNL     1      29.625   9.314  49.408  1.00  0.00    -0.167 NA
HETATM   23  N4  UNL     1      28.383   9.109  49.246  1.00  0.00    -0.179 NA
ENDBRANCH  16  19
ENDBRANCH   1  13
TORSDOF 3
ENDMDL
MODEL 6
REMARK VINA RESULT:      -7.9      2.909      7.863
REMARK  3 active torsions:
REMARK  status: ('A' for Active; 'I' for Inactive)
REMARK    1  A    between atoms: C6_8  and  N2_9 
REMARK    2  A    between atoms: N2_9  and  C7_10 
REMARK    3  A    between atoms: C10_13  and  C11_14 
ROOT
HETATM    1  N2  UNL     1      24.614   3.362  50.964  1.00  0.00    -0.320 N 
HETATM    2  H4  UNL     1      23.566   3.251  50.988  1.00  0.00     0.169 HD
ENDROOT
BRANCH   1   3
HETATM    3  C6  UNL     1      25.156   4.387  50.145  1.00  0.00     0.252 A 
HETATM    4  N1  UNL     1      24.448   5.459  49.678  1.00  0.00    -0.206 NA
HETATM    5  C5  UNL     1      25.265   6.225  48.940  1.00  0.00     0.096 A 
HETATM    6  C4  UNL     1      24.997   7.403  48.271  1.00  0.00     0.035 A 
HETATM    7  C16 UNL     1      26.499   5.613  48.953  1.00  0.00     0.129 A 
HETATM    8  C3  UNL     1      26.069   7.952  47.593  1.00  0.00     0.004 A 
HETATM    9  C2  UNL     1      27.326   7.361  47.585  1.00  0.00     0.027 A 
HETATM   10  C1  UNL     1      27.549   6.171  48.275  1.00  0.00     0.070 A 
HETATM   11 CL1  UNL     1      29.117   5.448  48.256  1.00  0.00    -0.081 Cl
HETATM   12  O1  UNL     1      26.371   4.532  49.680  1.00  0.00    -0.274 OA
ENDBRANCH   1   3
BRANCH   1  13
HETATM   13  C7  UNL     1      25.351   2.455  51.768  1.00  0.00     0.035 A 
HETATM   14  C8  UNL     1      26.120   1.461  51.204  1.00  0.00     0.030 A 
HETATM   15  C9  UNL     1      26.846   0.566  51.953  1.00  0.00     0.012 A 
HETATM   16  C10 UNL     1      26.845   0.614  53.317  1.00  0.00    -0.028 A 
HETATM   17  C14 UNL     1      26.100   1.581  53.919  1.00  0.00     0.012 A 
HETATM   18  C15 UNL     1      25.381   2.467  53.145  1.00  0.00     0.030 A 
BRANCH  16  19
HETATM   19  C11 UNL     1      27.622  -0.343  54.139  1.00  0.00     0.188 A 
HETATM   20  C12 UNL     1      28.997   0.186  54.269  1.00  0.00     0.028 A 
HETATM   21  C13 UNL     1      29.763  -0.746  53.777  1.00  0.00     0.139 A 
HETATM   22  N3  UNL     1      28.984  -1.844  53.336  1.00  0.00    -0.167 NA
HETATM   23  N4  UNL     1      27.748  -1.634  53.536  1.00  0.00    -0.179 NA
ENDBRANCH  16  19
ENDBRANCH   1  13
TORSDOF 3
ENDMDL
MODEL 7
REMARK VINA RESULT:      -7.9      1.804      2.209
REMARK  3 active torsions:
REMARK  status: ('A' for Active; 'I' for Inactive)
REMARK    1  A    between atoms: C6_8  and  N2_9 
REMARK    2  A    between atoms: N2_9  and  C7_10 
REMARK    3  A    between atoms: C10_13  and  C11_14 
ROOT
HETATM    1  N2  UNL     1      25.203   3.410  49.960  1.00  0.00    -0.320 N 
HETATM    2  H4  UNL     1      24.313   3.216  49.427  1.00  0.00     0.169 HD
ENDROOT
BRANCH   1   3
HETATM    3  C6  UNL     1      25.505   2.583  51.074  1.00  0.00     0.252 A 
HETATM    4  N1  UNL     1      24.667   1.627  51.576  1.00  0.00    -0.206 NA
HETATM    5  C5  UNL     1      25.265   1.039  52.623  1.00  0.00     0.096 A 
HETATM    6  C4  UNL     1      24.807   0.025  53.441  1.00  0.00     0.035 A 
HETATM    7  C16 UNL     1      26.494   1.647  52.768  1.00  0.00     0.129 A 
HETATM    8  C3  UNL     1      25.676  -0.360  54.444  1.00  0.00     0.004 A 
HETATM    9  C2  UNL     1      26.920   0.230  54.619  1.00  0.00     0.027 A 
HETATM   10  C1  UNL     1      27.341   1.251  53.768  1.00  0.00     0.070 A 
HETATM   11 CL1  UNL     1      28.891   1.976  53.997  1.00  0.00    -0.081 Cl
HETATM   12  O1  UNL     1      26.577   2.550  51.825  1.00  0.00    -0.274 OA
ENDBRANCH   1   3
BRANCH   1  13
HETATM   13  C7  UNL     1      25.988   4.489  49.481  1.00  0.00     0.035 A 
HETATM   14  C8  UNL     1      27.239   4.280  48.943  1.00  0.00     0.030 A 
HETATM   15  C9  UNL     1      28.027   5.303  48.470  1.00  0.00     0.012 A 
HETATM   16  C10 UNL     1      27.606   6.600  48.508  1.00  0.00    -0.028 A 
HETATM   17  C14 UNL     1      26.376   6.856  49.031  1.00  0.00     0.012 A 
HETATM   18  C15 UNL     1      25.605   5.812  49.498  1.00  0.00     0.030 A 
BRANCH  16  19
HETATM   19  C11 UNL     1      28.442   7.715  48.002  1.00  0.00     0.188 A 
HETATM   20  C12 UNL     1      29.853   7.270  48.033  1.00  0.00     0.028 A 
HETATM   21  C13 UNL     1      30.460   8.134  48.797  1.00  0.00     0.139 A 
HETATM   22  N3  UNL     1      29.544   9.108  49.266  1.00  0.00    -0.167 NA
HETATM   23  N4  UNL     1      28.377   8.887  48.820  1.00  0.00    -0.179 NA
ENDBRANCH  16  19
ENDBRANCH   1  13
TORSDOF 3
ENDMDL
MODEL 8
REMARK VINA RESULT:      -7.8      5.782      8.365
REMARK  3 active torsions:
REMARK  status: ('A' for Active; 'I' for Inactive)
REMARK    1  A    between atoms: C6_8  and  N2_9 
REMARK    2  A    between atoms: N2_9  and  C7_10 
REMARK    3  A    between atoms: C10_13  and  C11_14 
ROOT
HETATM    1  N2  UNL     1      23.011   2.033  52.550  1.00  0.00    -0.320 N 
HETATM    2  H4  UNL     1      23.033   3.026  52.195  1.00  0.00     0.169 HD
ENDROOT
BRANCH   1   3
HETATM    3  C6  UNL     1      21.776   1.334  52.493  1.00  0.00     0.252 A 
HETATM    4  N1  UNL     1      21.345   0.448  53.442  1.00  0.00    -0.206 NA
HETATM    5  C5  UNL     1      20.145  -0.024  53.074  1.00  0.00     0.096 A 
HETATM    6  C4  UNL     1      19.327  -0.935  53.712  1.00  0.00     0.035 A 
HETATM    7  C16 UNL     1      19.832   0.581  51.877  1.00  0.00     0.129 A 
HETATM    8  C3  UNL     1      18.139  -1.215  53.065  1.00  0.00     0.004 A 
HETATM    9  C2  UNL     1      17.793  -0.624  51.857  1.00  0.00     0.027 A 
HETATM   10  C1  UNL     1      18.650   0.291  51.250  1.00  0.00     0.070 A 
HETATM   11 CL1  UNL     1      18.206   1.020  49.748  1.00  0.00    -0.081 Cl
HETATM   12  O1  UNL     1      20.834   1.371  51.585  1.00  0.00    -0.274 OA
ENDBRANCH   1   3
BRANCH   1  13
HETATM   13  C7  UNL     1      24.239   1.524  53.043  1.00  0.00     0.035 A 
HETATM   14  C8  UNL     1      24.459   0.169  53.152  1.00  0.00     0.030 A 
HETATM   15  C9  UNL     1      25.637  -0.358  53.626  1.00  0.00     0.012 A 
HETATM   16  C10 UNL     1      26.668   0.445  54.021  1.00  0.00    -0.028 A 
HETATM   17  C14 UNL     1      26.495   1.792  53.931  1.00  0.00     0.012 A 
HETATM   18  C15 UNL     1      25.305   2.295  53.451  1.00  0.00     0.030 A 
BRANCH  16  19
HETATM   19  C11 UNL     1      27.944  -0.107  54.534  1.00  0.00     0.188 A 
HETATM   20  C12 UNL     1      29.005   0.889  54.270  1.00  0.00     0.028 A 
HETATM   21  C13 UNL     1      29.879   0.262  53.534  1.00  0.00     0.139 A 
HETATM   22  N3  UNL     1      29.460  -1.072  53.301  1.00  0.00    -0.167 NA
HETATM   23  N4  UNL     1      28.350  -1.306  53.868  1.00  0.00    -0.179 NA
ENDBRANCH  16  19
ENDBRANCH   1  13
TORSDOF 3
ENDMDL
MODEL 9
REMARK VINA RESULT:      -7.8      6.967      9.810
REMARK  3 active torsions:
REMARK  status: ('A' for Active; 'I' for Inactive)
REMARK    1  A    between atoms: C6_8  and  N2_9 
REMARK    2  A    between atoms: N2_9  and  C7_10 
REMARK    3  A    between atoms: C10_13  and  C11_14 
ROOT
HETATM    1  N2  UNL     1      20.442  -0.829  54.415  1.00  0.00    -0.320 N 
HETATM    2  H4  UNL     1      20.171  -1.153  55.381  1.00  0.00     0.169 HD
ENDROOT
BRANCH   1   3
HETATM    3  C6  UNL     1      19.419  -0.725  53.435  1.00  0.00     0.252 A 
HETATM    4  N1  UNL     1      18.230  -1.399  53.486  1.00  0.00    -0.206 NA
HETATM    5  C5  UNL     1      17.505  -1.069  52.407  1.00  0.00     0.096 A 
HETATM    6  C4  UNL     1      16.247  -1.495  52.031  1.00  0.00     0.035 A 
HETATM    7  C16 UNL     1      18.262  -0.176  51.679  1.00  0.00     0.129 A 
HETATM    8  C3  UNL     1      15.772  -0.960  50.849  1.00  0.00     0.004 A 
HETATM    9  C2  UNL     1      16.508  -0.060  50.091  1.00  0.00     0.027 A 
HETATM   10  C1  UNL     1      17.775   0.343  50.510  1.00  0.00     0.070 A 
HETATM   11 CL1  UNL     1      18.679   1.464  49.558  1.00  0.00    -0.081 Cl
HETATM   12  O1  UNL     1      19.381  -0.014  52.337  1.00  0.00    -0.274 OA
ENDBRANCH   1   3
BRANCH   1  13
HETATM   13  C7  UNL     1      21.817  -0.538  54.224  1.00  0.00     0.035 A 
HETATM   14  C8  UNL     1      22.790  -1.152  54.981  1.00  0.00     0.030 A 
HETATM   15  C9  UNL     1      24.131  -0.892  54.822  1.00  0.00     0.012 A 
HETATM   16  C10 UNL     1      24.577   0.001  53.891  1.00  0.00    -0.028 A 
HETATM   17  C14 UNL     1      23.651   0.632  53.119  1.00  0.00     0.012 A 
HETATM   18  C15 UNL     1      22.312   0.354  53.298  1.00  0.00     0.030 A 
BRANCH  16  19
HETATM   19  C11 UNL     1      26.019   0.292  53.707  1.00  0.00     0.188 A 
HETATM   20  C12 UNL     1      26.387  -0.105  52.330  1.00  0.00     0.028 A 
HETATM   21  C13 UNL     1      27.335  -0.986  52.477  1.00  0.00     0.139 A 
HETATM   22  N3  UNL     1      27.610  -1.192  53.853  1.00  0.00    -0.167 NA
HETATM   23  N4  UNL     1      26.864  -0.465  54.578  1.00  0.00    -0.179 NA
ENDBRANCH  16  19
ENDBRANCH   1  13
TORSDOF 3
ENDMDL
