MODEL 1
REMARK VINA RESULT:      -8.5      0.000      0.000
REMARK  1 active torsions:
REMARK  status: ('A' for Active; 'I' for Inactive)
REMARK    1  A    between atoms: C2_2  and  C3_3 
ROOT
HETATM    1  C3  UNL     1      27.513   0.302  53.516  1.00  0.00     0.082 C 
HETATM    2  C4  UNL     1      27.257   0.953  52.210  1.00  0.00     0.049 C 
HETATM    3  C5  UNL     1      26.793   2.387  52.287  1.00  0.00     0.188 C 
HETATM    4  N1  UNL     1      26.676   3.046  51.020  1.00  0.00    -0.147 NA
HETATM    5  N2  UNL     1      25.838   3.011  50.278  1.00  0.00    -0.349 NA
HETATM    6  C6  UNL     1      24.938   3.092  49.271  1.00  0.00     0.273 C 
HETATM    7  C7  UNL     1      23.532   3.594  49.747  1.00  0.00     0.113 C 
HETATM    8  C8  UNL     1      22.705   3.827  48.466  1.00  0.00     0.168 C 
HETATM    9  N3  UNL     1      22.945   5.219  48.184  1.00  0.00    -0.311 N 
HETATM   10  N4  UNL     1      23.265   5.799  49.395  1.00  0.00    -0.163 NA
HETATM   11  C9  UNL     1      23.599   4.919  50.302  1.00  0.00     0.166 C 
HETATM   12  N5  UNL     1      23.932   5.245  51.665  1.00  0.00    -0.226 NA
HETATM   13  C10 UNL     1      23.799   4.228  52.547  1.00  0.00     0.209 C 
HETATM   14  N6  UNL     1      23.335   2.950  51.897  1.00  0.00    -0.353 N 
HETATM   15  C11 UNL     1      22.989   2.500  50.514  1.00  0.00     0.031 C 
HETATM   16  C12 UNL     1      22.393   1.542  51.114  1.00  0.00     0.026 C 
HETATM   17  C13 UNL     1      22.291   0.502  52.060  1.00  0.00     0.002 C 
HETATM   18  C14 UNL     1      23.548   0.531  52.606  1.00  0.00     0.108 C 
HETATM   19  C15 UNL     1      24.272  -0.190  53.607  1.00  0.00     0.135 C 
HETATM   20  F1  UNL     1      23.226  -1.085  53.940  1.00  0.00    -0.239 F 
HETATM   21  C16 UNL     1      25.093  -0.791  54.539  1.00  0.00     0.098 C 
HETATM   22  N7  UNL     1      26.291   0.030  54.295  1.00  0.00    -0.395 N 
HETATM   23  H15 UNL     1      22.862   5.602  47.208  1.00  0.00     0.182 HD
HETATM   24  H17 UNL     1      23.251   2.549  52.892  1.00  0.00     0.166 HD
HETATM   25  H22 UNL     1      26.142   0.760  55.073  1.00  0.00     0.159 HD
ENDROOT
BRANCH   1  26
HETATM   26  C2  UNL     1      28.234  -1.044  53.407  1.00  0.00     0.020 C 
HETATM   27  C1  UNL     1      29.739  -0.839  53.513  1.00  0.00     0.007 C 
ENDBRANCH   1  26
TORSDOF 1
ENDMDL
MODEL 2
REMARK VINA RESULT:      -8.1      2.968      4.744
REMARK  1 active torsions:
REMARK  status: ('A' for Active; 'I' for Inactive)
REMARK    1  A    between atoms: C2_2  and  C3_3 
ROOT
HETATM    1  C3  UNL     1      25.337   3.738  50.272  1.00  0.00     0.082 C 
HETATM    2  C4  UNL     1      24.092   3.302  49.597  1.00  0.00     0.049 C 
HETATM    3  C5  UNL     1      22.818   3.891  50.154  1.00  0.00     0.188 C 
HETATM    4  N1  UNL     1      21.636   3.567  49.413  1.00  0.00    -0.147 NA
HETATM    5  N2  UNL     1      21.005   2.643  49.454  1.00  0.00    -0.349 NA
HETATM    6  C6  UNL     1      20.131   1.615  49.363  1.00  0.00     0.273 C 
HETATM    7  C7  UNL     1      19.460   1.259  50.734  1.00  0.00     0.113 C 
HETATM    8  C8  UNL     1      18.357   0.229  50.417  1.00  0.00     0.168 C 
HETATM    9  N3  UNL     1      17.195   1.058  50.228  1.00  0.00    -0.311 N 
HETATM   10  N4  UNL     1      17.433   2.211  50.948  1.00  0.00    -0.163 NA
HETATM   11  C9  UNL     1      18.696   2.361  51.254  1.00  0.00     0.166 C 
HETATM   12  N5  UNL     1      19.216   3.450  52.042  1.00  0.00    -0.226 NA
HETATM   13  C10 UNL     1      20.408   3.211  52.633  1.00  0.00     0.209 C 
HETATM   14  N6  UNL     1      20.948   1.838  52.324  1.00  0.00    -0.353 N 
HETATM   15  C11 UNL     1      20.512   0.659  51.516  1.00  0.00     0.031 C 
HETATM   16  C12 UNL     1      21.356   0.019  52.232  1.00  0.00     0.026 C 
HETATM   17  C13 UNL     1      22.609  -0.181  52.846  1.00  0.00     0.002 C 
HETATM   18  C14 UNL     1      23.298   0.905  52.376  1.00  0.00     0.108 C 
HETATM   19  C15 UNL     1      24.618   1.443  52.501  1.00  0.00     0.135 C 
HETATM   20  F1  UNL     1      25.122   0.423  53.344  1.00  0.00    -0.239 F 
HETATM   21  C16 UNL     1      25.843   2.078  52.527  1.00  0.00     0.098 C 
HETATM   22  N7  UNL     1      25.496   3.197  51.633  1.00  0.00    -0.395 N 
HETATM   23  H15 UNL     1      16.386   0.740  49.636  1.00  0.00     0.182 HD
HETATM   24  H17 UNL     1      21.720   2.050  53.042  1.00  0.00     0.166 HD
HETATM   25  H22 UNL     1      25.238   3.924  52.385  1.00  0.00     0.159 HD
ENDROOT
BRANCH   1  26
HETATM   26  C2  UNL     1      26.614   3.347  49.526  1.00  0.00     0.020 C 
HETATM   27  C1  UNL     1      27.253   4.581  48.903  1.00  0.00     0.007 C 
ENDBRANCH   1  26
TORSDOF 1
ENDMDL
MODEL 3
REMARK VINA RESULT:      -7.9      2.646      6.271
REMARK  1 active torsions:
REMARK  status: ('A' for Active; 'I' for Inactive)
REMARK    1  A    between atoms: C2_2  and  C3_3 
ROOT
HETATM    1  C3  UNL     1      21.112   1.484  51.781  1.00  0.00     0.082 C 
HETATM    2  C4  UNL     1      22.423   2.011  52.225  1.00  0.00     0.049 C 
HETATM    3  C5  UNL     1      23.628   1.337  51.613  1.00  0.00     0.188 C 
HETATM    4  N1  UNL     1      24.884   1.940  51.948  1.00  0.00    -0.147 NA
HETATM    5  N2  UNL     1      25.510   1.807  52.867  1.00  0.00    -0.349 NA
HETATM    6  C6  UNL     1      26.393   1.777  53.891  1.00  0.00     0.273 C 
HETATM    7  C7  UNL     1      26.916   0.333  54.206  1.00  0.00     0.113 C 
HETATM    8  C8  UNL     1      28.050   0.504  55.237  1.00  0.00     0.168 C 
HETATM    9  N3  UNL     1      29.223   0.591  54.405  1.00  0.00    -0.311 N 
HETATM   10  N4  UNL     1      28.905  -0.069  53.235  1.00  0.00    -0.163 NA
HETATM   11  C9  UNL     1      27.616  -0.235  53.086  1.00  0.00     0.166 C 
HETATM   12  N5  UNL     1      27.011  -0.934  51.981  1.00  0.00    -0.226 NA
HETATM   13  C10 UNL     1      25.763  -1.401  52.212  1.00  0.00     0.209 C 
HETATM   14  N6  UNL     1      25.265  -1.073  53.596  1.00  0.00    -0.353 N 
HETATM   15  C11 UNL     1      25.789  -0.348  54.793  1.00  0.00     0.031 C 
HETATM   16  C12 UNL     1      24.876  -0.987  55.420  1.00  0.00     0.026 C 
HETATM   17  C13 UNL     1      23.566  -1.469  55.612  1.00  0.00     0.002 C 
HETATM   18  C14 UNL     1      22.926  -0.900  54.543  1.00  0.00     0.108 C 
HETATM   19  C15 UNL     1      21.598  -0.870  54.011  1.00  0.00     0.135 C 
HETATM   20  F1  UNL     1      21.012  -1.681  55.013  1.00  0.00    -0.239 F 
HETATM   21  C16 UNL     1      20.375  -0.748  53.384  1.00  0.00     0.098 C 
HETATM   22  N7  UNL     1      20.811   0.133  52.287  1.00  0.00    -0.395 N 
HETATM   23  H15 UNL     1      30.092   1.084  54.733  1.00  0.00     0.182 HD
HETATM   24  H17 UNL     1      24.420  -1.699  53.371  1.00  0.00     0.166 HD
HETATM   25  H22 UNL     1      20.984  -0.622  51.539  1.00  0.00     0.159 HD
ENDROOT
BRANCH   1  26
HETATM   26  C2  UNL     1      19.922   2.351  52.199  1.00  0.00     0.020 C 
HETATM   27  C1  UNL     1      20.192   3.809  51.853  1.00  0.00     0.007 C 
ENDBRANCH   1  26
TORSDOF 1
ENDMDL
MODEL 4
REMARK VINA RESULT:      -7.8      2.835      4.124
REMARK  1 active torsions:
REMARK  status: ('A' for Active; 'I' for Inactive)
REMARK    1  A    between atoms: C2_2  and  C3_3 
ROOT
HETATM    1  C3  UNL     1      22.199   0.319  53.259  1.00  0.00     0.082 C 
HETATM    2  C4  UNL     1      23.476   0.949  52.848  1.00  0.00     0.049 C 
HETATM    3  C5  UNL     1      23.530   2.450  52.998  1.00  0.00     0.188 C 
HETATM    4  N1  UNL     1      24.810   3.031  52.724  1.00  0.00    -0.147 NA
HETATM    5  N2  UNL     1      25.268   3.301  51.738  1.00  0.00    -0.349 NA
HETATM    6  C6  UNL     1      25.980   3.689  50.655  1.00  0.00     0.273 C 
HETATM    7  C7  UNL     1      25.227   4.744  49.773  1.00  0.00     0.113 C 
HETATM    8  C8  UNL     1      26.244   5.226  48.719  1.00  0.00     0.168 C 
HETATM    9  N3  UNL     1      26.827   6.382  49.349  1.00  0.00    -0.311 N 
HETATM   10  N4  UNL     1      25.879   6.845  50.239  1.00  0.00    -0.163 NA
HETATM   11  C9  UNL     1      24.960   5.954  50.503  1.00  0.00     0.166 C 
HETATM   12  N5  UNL     1      23.826   6.187  51.361  1.00  0.00    -0.226 NA
HETATM   13  C10 UNL     1      22.775   5.360  51.161  1.00  0.00     0.209 C 
HETATM   14  N6  UNL     1      23.029   4.349  50.072  1.00  0.00    -0.353 N 
HETATM   15  C11 UNL     1      24.155   4.007  49.151  1.00  0.00     0.031 C 
HETATM   16  C12 UNL     1      23.250   3.407  48.476  1.00  0.00     0.026 C 
HETATM   17  C13 UNL     1      22.143   2.550  48.315  1.00  0.00     0.002 C 
HETATM   18  C14 UNL     1      21.986   2.094  49.597  1.00  0.00     0.108 C 
HETATM   19  C15 UNL     1      21.116   1.194  50.291  1.00  0.00     0.135 C 
HETATM   20  F1  UNL     1      20.348   0.821  49.161  1.00  0.00    -0.239 F 
HETATM   21  C16 UNL     1      20.360   0.361  51.089  1.00  0.00     0.098 C 
HETATM   22  N7  UNL     1      21.074   0.609  52.353  1.00  0.00    -0.395 N 
HETATM   23  H15 UNL     1      27.793   6.714  49.097  1.00  0.00     0.182 HD
HETATM   24  H17 UNL     1      21.995   4.070  50.178  1.00  0.00     0.166 HD
HETATM   25  H22 UNL     1      20.429   1.376  52.749  1.00  0.00     0.159 HD
ENDROOT
BRANCH   1  26
HETATM   26  C2  UNL     1      22.263  -1.207  53.354  1.00  0.00     0.020 C 
HETATM   27  C1  UNL     1      21.229  -1.712  54.351  1.00  0.00     0.007 C 
ENDBRANCH   1  26
TORSDOF 1
ENDMDL
MODEL 5
REMARK VINA RESULT:      -7.6      4.936      7.330
REMARK  1 active torsions:
REMARK  status: ('A' for Active; 'I' for Inactive)
REMARK    1  A    between atoms: C2_2  and  C3_3 
ROOT
HETATM    1  C3  UNL     1      23.552   5.591  51.050  1.00  0.00     0.082 C 
HETATM    2  C4  UNL     1      24.454   6.761  51.160  1.00  0.00     0.049 C 
HETATM    3  C5  UNL     1      24.449   7.692  49.972  1.00  0.00     0.188 C 
HETATM    4  N1  UNL     1      25.223   8.885  50.144  1.00  0.00    -0.147 NA
HETATM    5  N2  UNL     1      26.325   9.037  50.021  1.00  0.00    -0.349 NA
HETATM    6  C6  UNL     1      27.622   9.413  49.924  1.00  0.00     0.273 C 
HETATM    7  C7  UNL     1      28.238   9.126  48.511  1.00  0.00     0.113 C 
HETATM    8  C8  UNL     1      29.627   9.795  48.506  1.00  0.00     0.168 C 
HETATM    9  N3  UNL     1      29.349  11.098  47.961  1.00  0.00    -0.311 N 
HETATM   10  N4  UNL     1      28.208  10.952  47.198  1.00  0.00    -0.163 NA
HETATM   11  C9  UNL     1      27.555   9.854  47.476  1.00  0.00     0.166 C 
HETATM   12  N5  UNL     1      26.357   9.428  46.796  1.00  0.00    -0.226 NA
HETATM   13  C10 UNL     1      26.090   8.105  46.880  1.00  0.00     0.209 C 
HETATM   14  N6  UNL     1      27.115   7.354  47.691  1.00  0.00    -0.353 N 
HETATM   15  C11 UNL     1      28.360   7.691  48.445  1.00  0.00     0.031 C 
HETATM   16  C12 UNL     1      28.602   6.440  48.350  1.00  0.00     0.026 C 
HETATM   17  C13 UNL     1      28.275   5.071  48.434  1.00  0.00     0.002 C 
HETATM   18  C14 UNL     1      26.996   5.145  48.918  1.00  0.00     0.108 C 
HETATM   19  C15 UNL     1      25.963   4.230  49.294  1.00  0.00     0.135 C 
HETATM   20  F1  UNL     1      26.695   3.049  49.017  1.00  0.00    -0.239 F 
HETATM   21  C16 UNL     1      24.880   3.473  49.692  1.00  0.00     0.098 C 
HETATM   22  N7  UNL     1      23.994   4.590  50.064  1.00  0.00    -0.395 N 
HETATM   23  H15 UNL     1      29.965  11.923  48.172  1.00  0.00     0.182 HD
HETATM   24  H17 UNL     1      26.611   6.456  47.376  1.00  0.00     0.166 HD
HETATM   25  H22 UNL     1      23.447   4.669  49.139  1.00  0.00     0.159 HD
ENDROOT
BRANCH   1  26
HETATM   26  C2  UNL     1      23.373   4.822  52.360  1.00  0.00     0.020 C 
HETATM   27  C1  UNL     1      22.115   3.966  52.295  1.00  0.00     0.007 C 
ENDBRANCH   1  26
TORSDOF 1
ENDMDL
MODEL 6
REMARK VINA RESULT:      -7.4      9.044     11.607
REMARK  1 active torsions:
REMARK  status: ('A' for Active; 'I' for Inactive)
REMARK    1  A    between atoms: C2_2  and  C3_3 
ROOT
HETATM    1  C3  UNL     1      28.906   7.736  48.622  1.00  0.00     0.082 C 
HETATM    2  C4  UNL     1      29.468   6.593  47.865  1.00  0.00     0.049 C 
HETATM    3  C5  UNL     1      30.617   5.880  48.537  1.00  0.00     0.188 C 
HETATM    4  N1  UNL     1      31.065   4.700  47.860  1.00  0.00    -0.147 NA
HETATM    5  N2  UNL     1      31.761   4.605  46.988  1.00  0.00    -0.349 NA
HETATM    6  C6  UNL     1      32.571   4.292  45.951  1.00  0.00     0.273 C 
HETATM    7  C7  UNL     1      34.031   4.835  46.129  1.00  0.00     0.113 C 
HETATM    8  C8  UNL     1      34.860   4.221  44.983  1.00  0.00     0.168 C 
HETATM    9  N3  UNL     1      35.387   3.022  45.582  1.00  0.00    -0.311 N 
HETATM   10  N4  UNL     1      35.418   3.261  46.941  1.00  0.00    -0.163 NA
HETATM   11  C9  UNL     1      34.669   4.275  47.290  1.00  0.00     0.166 C 
HETATM   12  N5  UNL     1      34.554   4.773  48.637  1.00  0.00    -0.226 NA
HETATM   13  C10 UNL     1      34.130   6.053  48.741  1.00  0.00     0.209 C 
HETATM   14  N6  UNL     1      33.855   6.686  47.402  1.00  0.00    -0.353 N 
HETATM   15  C11 UNL     1      33.916   6.264  45.969  1.00  0.00     0.031 C 
HETATM   16  C12 UNL     1      33.918   7.520  45.733  1.00  0.00     0.026 C 
HETATM   17  C13 UNL     1      33.456   8.843  45.885  1.00  0.00     0.002 C 
HETATM   18  C14 UNL     1      32.401   8.647  46.737  1.00  0.00     0.108 C 
HETATM   19  C15 UNL     1      31.404   9.453  47.372  1.00  0.00     0.135 C 
HETATM   20  F1  UNL     1      31.823  10.685  46.815  1.00  0.00    -0.239 F 
HETATM   21  C16 UNL     1      30.388  10.096  48.049  1.00  0.00     0.098 C 
HETATM   22  N7  UNL     1      29.800   8.905  48.687  1.00  0.00    -0.395 N 
HETATM   23  H15 UNL     1      35.661   2.192  44.997  1.00  0.00     0.182 HD
HETATM   24  H17 UNL     1      33.714   7.608  47.938  1.00  0.00     0.166 HD
HETATM   25  H22 UNL     1      30.309   8.968  49.634  1.00  0.00     0.159 HD
ENDROOT
BRANCH   1  26
HETATM   26  C2  UNL     1      27.586   8.264  48.056  1.00  0.00     0.020 C 
HETATM   27  C1  UNL     1      27.576   8.128  46.540  1.00  0.00     0.007 C 
ENDBRANCH   1  26
TORSDOF 1
ENDMDL
MODEL 7
REMARK VINA RESULT:      -7.3      8.824     10.523
REMARK  1 active torsions:
REMARK  status: ('A' for Active; 'I' for Inactive)
REMARK    1  A    between atoms: C2_2  and  C3_3 
ROOT
HETATM    1  C3  UNL     1      32.374   3.494  46.800  1.00  0.00     0.082 C 
HETATM    2  C4  UNL     1      32.164   4.551  47.817  1.00  0.00     0.049 C 
HETATM    3  C5  UNL     1      30.811   5.219  47.780  1.00  0.00     0.188 C 
HETATM    4  N1  UNL     1      30.572   6.144  48.847  1.00  0.00    -0.147 NA
HETATM    5  N2  UNL     1      30.888   7.214  48.941  1.00  0.00    -0.349 NA
HETATM    6  C6  UNL     1      31.178   8.503  49.232  1.00  0.00     0.273 C 
HETATM    7  C7  UNL     1      30.661   9.507  48.145  1.00  0.00     0.113 C 
HETATM    8  C8  UNL     1      30.883  10.918  48.725  1.00  0.00     0.168 C 
HETATM    9  N3  UNL     1      29.625  11.195  49.371  1.00  0.00    -0.311 N 
HETATM   10  N4  UNL     1      28.688  10.421  48.718  1.00  0.00    -0.163 NA
HETATM   11  C9  UNL     1      29.229   9.460  48.015  1.00  0.00     0.166 C 
HETATM   12  N5  UNL     1      28.487   8.535  47.198  1.00  0.00    -0.226 NA
HETATM   13  C10 UNL     1      29.200   7.935  46.218  1.00  0.00     0.209 C 
HETATM   14  N6  UNL     1      30.645   8.366  46.202  1.00  0.00    -0.353 N 
HETATM   15  C11 UNL     1      31.511   9.284  47.001  1.00  0.00     0.031 C 
HETATM   16  C12 UNL     1      32.287   9.225  45.988  1.00  0.00     0.026 C 
HETATM   17  C13 UNL     1      33.001   8.561  44.969  1.00  0.00     0.002 C 
HETATM   18  C14 UNL     1      32.718   7.255  45.271  1.00  0.00     0.108 C 
HETATM   19  C15 UNL     1      33.051   5.964  44.753  1.00  0.00     0.135 C 
HETATM   20  F1  UNL     1      33.879   6.428  43.702  1.00  0.00    -0.239 F 
HETATM   21  C16 UNL     1      33.284   4.660  44.370  1.00  0.00     0.098 C 
HETATM   22  N7  UNL     1      32.489   4.006  45.423  1.00  0.00    -0.395 N 
HETATM   23  H15 UNL     1      29.559  11.874  50.171  1.00  0.00     0.182 HD
HETATM   24  H17 UNL     1      30.734   7.809  45.286  1.00  0.00     0.166 HD
HETATM   25  H22 UNL     1      31.572   3.879  44.871  1.00  0.00     0.159 HD
ENDROOT
BRANCH   1  26
HETATM   26  C2  UNL     1      33.634   2.656  47.029  1.00  0.00     0.020 C 
HETATM   27  C1  UNL     1      34.707   3.501  47.703  1.00  0.00     0.007 C 
ENDBRANCH   1  26
TORSDOF 1
ENDMDL
MODEL 8
REMARK VINA RESULT:      -7.2      3.890      6.927
REMARK  1 active torsions:
REMARK  status: ('A' for Active; 'I' for Inactive)
REMARK    1  A    between atoms: C2_2  and  C3_3 
ROOT
HETATM    1  C3  UNL     1      16.529   1.748  51.296  1.00  0.00     0.082 C 
HETATM    2  C4  UNL     1      17.628   2.697  51.592  1.00  0.00     0.049 C 
HETATM    3  C5  UNL     1      18.742   2.729  50.574  1.00  0.00     0.188 C 
HETATM    4  N1  UNL     1      19.730   3.741  50.801  1.00  0.00    -0.147 NA
HETATM    5  N2  UNL     1      20.613   3.726  51.489  1.00  0.00    -0.349 NA
HETATM    6  C6  UNL     1      21.717   3.893  52.253  1.00  0.00     0.273 C 
HETATM    7  C7  UNL     1      22.799   2.783  52.017  1.00  0.00     0.113 C 
HETATM    8  C8  UNL     1      24.053   3.235  52.793  1.00  0.00     0.168 C 
HETATM    9  N3  UNL     1      24.794   3.966  51.797  1.00  0.00    -0.311 N 
HETATM   10  N4  UNL     1      24.392   3.457  50.579  1.00  0.00    -0.163 NA
HETATM   11  C9  UNL     1      23.274   2.783  50.659  1.00  0.00     0.166 C 
HETATM   12  N5  UNL     1      22.654   2.105  49.550  1.00  0.00    -0.226 NA
HETATM   13  C10 UNL     1      21.798   1.114  49.889  1.00  0.00     0.209 C 
HETATM   14  N6  UNL     1      21.670   0.940  51.380  1.00  0.00    -0.353 N 
HETATM   15  C11 UNL     1      22.237   1.590  52.601  1.00  0.00     0.031 C 
HETATM   16  C12 UNL     1      21.861   0.520  53.189  1.00  0.00     0.026 C 
HETATM   17  C13 UNL     1      20.944  -0.505  53.501  1.00  0.00     0.002 C 
HETATM   18  C14 UNL     1      19.844  -0.082  52.802  1.00  0.00     0.108 C 
HETATM   19  C15 UNL     1      18.502  -0.530  52.590  1.00  0.00     0.135 C 
HETATM   20  F1  UNL     1      18.592  -1.681  53.410  1.00  0.00    -0.239 F 
HETATM   21  C16 UNL     1      17.189  -0.833  52.295  1.00  0.00     0.098 C 
HETATM   22  N7  UNL     1      16.912   0.332  51.437  1.00  0.00    -0.395 N 
HETATM   23  H15 UNL     1      25.480   4.716  52.067  1.00  0.00     0.182 HD
HETATM   24  H17 UNL     1      21.085   0.064  51.163  1.00  0.00     0.166 HD
HETATM   25  H22 UNL     1      17.108  -0.127  50.482  1.00  0.00     0.159 HD
ENDROOT
BRANCH   1  26
HETATM   26  C2  UNL     1      15.299   1.928  52.188  1.00  0.00     0.020 C 
HETATM   27  C1  UNL     1      15.153   3.390  52.586  1.00  0.00     0.007 C 
ENDBRANCH   1  26
TORSDOF 1
ENDMDL
MODEL 9
REMARK VINA RESULT:      -7.0      9.138     10.927
REMARK  1 active torsions:
REMARK  status: ('A' for Active; 'I' for Inactive)
REMARK    1  A    between atoms: C2_2  and  C3_3 
ROOT
HETATM    1  C3  UNL     1      34.404   6.471  43.316  1.00  0.00     0.082 C 
HETATM    2  C4  UNL     1      33.065   6.972  43.706  1.00  0.00     0.049 C 
HETATM    3  C5  UNL     1      33.047   7.889  44.905  1.00  0.00     0.188 C 
HETATM    4  N1  UNL     1      31.769   8.470  45.193  1.00  0.00    -0.147 NA
HETATM    5  N2  UNL     1      30.901   8.033  45.749  1.00  0.00    -0.349 NA
HETATM    6  C6  UNL     1      29.760   7.679  46.384  1.00  0.00     0.273 C 
HETATM    7  C7  UNL     1      29.994   7.267  47.878  1.00  0.00     0.113 C 
HETATM    8  C8  UNL     1      28.593   7.101  48.500  1.00  0.00     0.168 C 
HETATM    9  N3  UNL     1      28.336   8.407  49.051  1.00  0.00    -0.311 N 
HETATM   10  N4  UNL     1      29.575   8.966  49.291  1.00  0.00    -0.163 NA
HETATM   11  C9  UNL     1      30.536   8.352  48.651  1.00  0.00     0.166 C 
HETATM   12  N5  UNL     1      31.931   8.696  48.758  1.00  0.00    -0.226 NA
HETATM   13  C10 UNL     1      32.792   7.711  48.415  1.00  0.00     0.209 C 
HETATM   14  N6  UNL     1      32.091   6.450  47.978  1.00  0.00    -0.353 N 
HETATM   15  C11 UNL     1      30.677   5.999  47.809  1.00  0.00     0.031 C 
HETATM   16  C12 UNL     1      31.183   4.826  47.837  1.00  0.00     0.026 C 
HETATM   17  C13 UNL     1      32.114   3.833  47.466  1.00  0.00     0.002 C 
HETATM   18  C14 UNL     1      32.856   4.516  46.538  1.00  0.00     0.108 C 
HETATM   19  C15 UNL     1      33.971   4.245  45.684  1.00  0.00     0.135 C 
HETATM   20  F1  UNL     1      34.141   2.894  46.075  1.00  0.00    -0.239 F 
HETATM   21  C16 UNL     1      35.032   4.132  44.809  1.00  0.00     0.098 C 
HETATM   22  N7  UNL     1      34.976   5.500  44.265  1.00  0.00    -0.395 N 
HETATM   23  H15 UNL     1      27.354   8.756  49.197  1.00  0.00     0.182 HD
HETATM   24  H17 UNL     1      33.064   5.991  47.961  1.00  0.00     0.166 HD
HETATM   25  H22 UNL     1      35.710   5.955  44.909  1.00  0.00     0.159 HD
ENDROOT
BRANCH   1  26
HETATM   26  C2  UNL     1      34.431   5.773  41.954  1.00  0.00     0.020 C 
HETATM   27  C1  UNL     1      33.177   4.928  41.776  1.00  0.00     0.007 C 
ENDBRANCH   1  26
TORSDOF 1
ENDMDL
