MODEL 1
REMARK VINA RESULT:      -7.2      0.000      0.000
REMARK  8 active torsions:
REMARK  status: ('A' for Active; 'I' for Inactive)
REMARK    1  A    between atoms: C3_3  and  C4_4 
REMARK    2  A    between atoms: C5_6  and  C6_7 
REMARK    3  A    between atoms: C6_7  and  N1_8 
REMARK    4  A    between atoms: N1_8  and  C7_9 
REMARK    5  A    between atoms: C13_16  and  N3_17 
REMARK    6  A    between atoms: N3_17  and  C14_18 
REMARK    7  A    between atoms: C14_18  and  C15_19 
REMARK    8  A    between atoms: C15_19  and  N4_20 
ROOT
HETATM    1  C7  UNL     1      22.590   4.853  52.407  1.00  0.00     0.313 C 
HETATM    2  C8  UNL     1      21.567   5.057  51.377  1.00  0.00     0.131 C 
HETATM    3  N2  UNL     1      20.623   4.366  50.824  1.00  0.00    -0.275 NA
HETATM    4  C9  UNL     1      20.319   2.997  51.162  1.00  0.00     0.117 C 
HETATM    5  C10 UNL     1      21.092   2.106  51.777  1.00  0.00     0.032 C 
HETATM    6  C11 UNL     1      22.452   2.278  52.272  1.00  0.00    -0.005 A 
HETATM    7  C12 UNL     1      23.026   1.046  52.443  1.00  0.00     0.044 A 
HETATM    8  C13 UNL     1      24.327   0.965  52.910  1.00  0.00     0.046 A 
HETATM    9  C18 UNL     1      24.958   2.185  53.173  1.00  0.00     0.146 A 
HETATM   10  N5  UNL     1      24.351   3.390  52.991  1.00  0.00    -0.260 NA
HETATM   11  C19 UNL     1      23.087   3.483  52.538  1.00  0.00     0.082 A 
ENDROOT
BRANCH   1  12
HETATM   12  N1  UNL     1      23.719   5.717  52.146  1.00  0.00     0.102 N 
HETATM   13  H9  UNL     1      23.767   6.524  52.803  1.00  0.00     0.317 HD
BRANCH  12  14
HETATM   14  C6  UNL     1      23.923   6.072  50.781  1.00  0.00     0.300 C 
BRANCH  14  15
HETATM   15  C5  UNL     1      25.332   5.884  50.340  1.00  0.00     0.026 C 
HETATM   16  C4  UNL     1      25.676   4.784  49.658  1.00  0.00     0.031 C 
HETATM   17 CL1  UNL     1      24.400   3.606  49.321  1.00  0.00    -0.085 Cl
BRANCH  16  18
HETATM   18  C3  UNL     1      26.964   4.375  49.127  1.00  0.00     0.019 C 
HETATM   19  C2  UNL     1      27.911   5.032  48.509  1.00  0.00    -0.029 C 
HETATM   20  C1  UNL     1      27.873   6.473  48.184  1.00  0.00     0.036 C 
ENDBRANCH  16  18
ENDBRANCH  14  15
ENDBRANCH  12  14
ENDBRANCH   1  12
BRANCH   8  21
HETATM   21  N3  UNL     1      25.051  -0.241  53.140  1.00  0.00    -0.387 N 
HETATM   22  H15 UNL     1      24.637  -1.078  52.631  1.00  0.00     0.159 HD
BRANCH  21  23
HETATM   23  C14 UNL     1      26.225  -0.395  53.961  1.00  0.00     0.150 C 
BRANCH  23  24
HETATM   24  C15 UNL     1      27.465  -0.520  53.063  1.00  0.00     0.290 C 
BRANCH  24  25
HETATM   25  N4  UNL     1      28.603  -0.168  53.894  1.00  0.00     0.081 N 
HETATM   26  C16 UNL     1      29.742  -1.024  53.623  1.00  0.00     0.309 C 
HETATM   27  C17 UNL     1      28.944   1.224  53.669  1.00  0.00     0.309 C 
ENDBRANCH  24  25
ENDBRANCH  23  24
ENDBRANCH  21  23
ENDBRANCH   8  21
TORSDOF 8
ENDMDL
MODEL 2
REMARK VINA RESULT:      -7.0      2.541      5.627
REMARK  8 active torsions:
REMARK  status: ('A' for Active; 'I' for Inactive)
REMARK    1  A    between atoms: C3_3  and  C4_4 
REMARK    2  A    between atoms: C5_6  and  C6_7 
REMARK    3  A    between atoms: C6_7  and  N1_8 
REMARK    4  A    between atoms: N1_8  and  C7_9 
REMARK    5  A    between atoms: C13_16  and  N3_17 
REMARK    6  A    between atoms: N3_17  and  C14_18 
REMARK    7  A    between atoms: C14_18  and  C15_19 
REMARK    8  A    between atoms: C15_19  and  N4_20 
ROOT
HETATM    1  C7  UNL     1      27.033   2.010  52.086  1.00  0.00     0.313 C 
HETATM    2  C8  UNL     1      28.100   2.373  53.024  1.00  0.00     0.131 C 
HETATM    3  N2  UNL     1      28.678   1.847  54.055  1.00  0.00    -0.275 NA
HETATM    4  C9  UNL     1      28.335   0.558  54.605  1.00  0.00     0.117 C 
HETATM    5  C10 UNL     1      27.218  -0.143  54.434  1.00  0.00     0.032 C 
HETATM    6  C11 UNL     1      26.043   0.207  53.646  1.00  0.00    -0.005 A 
HETATM    7  C12 UNL     1      24.980  -0.550  54.065  1.00  0.00     0.044 A 
HETATM    8  C13 UNL     1      23.749  -0.386  53.452  1.00  0.00     0.046 A 
HETATM    9  C18 UNL     1      23.699   0.568  52.430  1.00  0.00     0.146 A 
HETATM   10  N5  UNL     1      24.780   1.299  52.043  1.00  0.00    -0.260 NA
HETATM   11  C19 UNL     1      25.981   1.149  52.629  1.00  0.00     0.082 A 
ENDROOT
BRANCH   1  12
HETATM   12  N1  UNL     1      26.410   3.210  51.574  1.00  0.00     0.102 N 
HETATM   13  H9  UNL     1      25.437   3.337  51.922  1.00  0.00     0.317 HD
BRANCH  12  14
HETATM   14  C6  UNL     1      26.554   3.431  50.173  1.00  0.00     0.300 C 
BRANCH  14  15
HETATM   15  C5  UNL     1      25.934   4.707  49.723  1.00  0.00     0.026 C 
HETATM   16  C4  UNL     1      26.613   5.529  48.911  1.00  0.00     0.031 C 
HETATM   17 CL1  UNL     1      28.235   5.024  48.418  1.00  0.00    -0.085 Cl
BRANCH  16  18
HETATM   18  C3  UNL     1      26.233   6.810  48.343  1.00  0.00     0.019 C 
HETATM   19  C2  UNL     1      25.096   7.269  47.889  1.00  0.00    -0.029 C 
HETATM   20  C1  UNL     1      23.827   6.513  47.850  1.00  0.00     0.036 C 
ENDBRANCH  16  18
ENDBRANCH  14  15
ENDBRANCH  12  14
ENDBRANCH   1  12
BRANCH   8  21
HETATM   21  N3  UNL     1      22.561  -1.102  53.777  1.00  0.00    -0.387 N 
HETATM   22  H15 UNL     1      22.410  -1.957  53.163  1.00  0.00     0.159 HD
BRANCH  21  23
HETATM   23  C14 UNL     1      21.613  -0.770  54.810  1.00  0.00     0.150 C 
BRANCH  23  24
HETATM   24  C15 UNL     1      20.622   0.277  54.278  1.00  0.00     0.290 C 
BRANCH  24  25
HETATM   25  N4  UNL     1      20.063  -0.280  53.059  1.00  0.00     0.081 N 
HETATM   26  C16 UNL     1      18.803  -0.951  53.312  1.00  0.00     0.309 C 
HETATM   27  C17 UNL     1      19.889   0.784  52.087  1.00  0.00     0.309 C 
ENDBRANCH  24  25
ENDBRANCH  23  24
ENDBRANCH  21  23
ENDBRANCH   8  21
TORSDOF 8
ENDMDL
MODEL 3
REMARK VINA RESULT:      -7.0      2.237      3.130
REMARK  8 active torsions:
REMARK  status: ('A' for Active; 'I' for Inactive)
REMARK    1  A    between atoms: C3_3  and  C4_4 
REMARK    2  A    between atoms: C5_6  and  C6_7 
REMARK    3  A    between atoms: C6_7  and  N1_8 
REMARK    4  A    between atoms: N1_8  and  C7_9 
REMARK    5  A    between atoms: C13_16  and  N3_17 
REMARK    6  A    between atoms: N3_17  and  C14_18 
REMARK    7  A    between atoms: C14_18  and  C15_19 
REMARK    8  A    between atoms: C15_19  and  N4_20 
ROOT
HETATM    1  C7  UNL     1      21.028   1.190  51.343  1.00  0.00     0.313 C 
HETATM    2  C8  UNL     1      19.754   0.471  51.259  1.00  0.00     0.131 C 
HETATM    3  N2  UNL     1      19.027  -0.269  52.032  1.00  0.00    -0.275 NA
HETATM    4  C9  UNL     1      19.377  -0.608  53.390  1.00  0.00     0.117 C 
HETATM    5  C10 UNL     1      20.573  -0.561  53.971  1.00  0.00     0.032 C 
HETATM    6  C11 UNL     1      21.846  -0.155  53.390  1.00  0.00    -0.005 A 
HETATM    7  C12 UNL     1      22.867  -0.645  54.160  1.00  0.00     0.044 A 
HETATM    8  C13 UNL     1      24.177  -0.380  53.795  1.00  0.00     0.046 A 
HETATM    9  C18 UNL     1      24.344   0.386  52.637  1.00  0.00     0.146 A 
HETATM   10  N5  UNL     1      23.301   0.855  51.900  1.00  0.00    -0.260 NA
HETATM   11  C19 UNL     1      22.024   0.606  52.243  1.00  0.00     0.082 A 
ENDROOT
BRANCH   1  12
HETATM   12  N1  UNL     1      21.618   1.289  50.027  1.00  0.00     0.102 N 
HETATM   13  H9  UNL     1      22.522   0.777  49.952  1.00  0.00     0.317 HD
BRANCH  12  14
HETATM   14  C6  UNL     1      21.647   2.596  49.459  1.00  0.00     0.300 C 
BRANCH  14  15
HETATM   15  C5  UNL     1      22.990   2.967  48.935  1.00  0.00     0.026 C 
HETATM   16  C4  UNL     1      23.795   3.755  49.660  1.00  0.00     0.031 C 
HETATM   17 CL1  UNL     1      23.190   4.310  51.227  1.00  0.00    -0.085 Cl
BRANCH  16  18
HETATM   18  C3  UNL     1      25.129   4.252  49.372  1.00  0.00     0.019 C 
HETATM   19  C2  UNL     1      26.313   3.882  49.783  1.00  0.00    -0.029 C 
HETATM   20  C1  UNL     1      26.581   2.772  50.720  1.00  0.00     0.036 C 
ENDBRANCH  16  18
ENDBRANCH  14  15
ENDBRANCH  12  14
ENDBRANCH   1  12
BRANCH   8  21
HETATM   21  N3  UNL     1      25.337  -0.817  54.498  1.00  0.00    -0.387 N 
HETATM   22  H15 UNL     1      25.277  -1.832  54.809  1.00  0.00     0.159 HD
BRANCH  21  23
HETATM   23  C14 UNL     1      26.506  -0.030  54.798  1.00  0.00     0.150 C 
BRANCH  23  24
HETATM   24  C15 UNL     1      27.577  -0.275  53.724  1.00  0.00     0.290 C 
BRANCH  24  25
HETATM   25  N4  UNL     1      28.858  -0.080  54.379  1.00  0.00     0.081 N 
HETATM   26  C16 UNL     1      29.886  -0.918  53.793  1.00  0.00     0.309 C 
HETATM   27  C17 UNL     1      29.229   1.321  54.289  1.00  0.00     0.309 C 
ENDBRANCH  24  25
ENDBRANCH  23  24
ENDBRANCH  21  23
ENDBRANCH   8  21
TORSDOF 8
ENDMDL
MODEL 4
REMARK VINA RESULT:      -6.9      2.440      5.790
REMARK  8 active torsions:
REMARK  status: ('A' for Active; 'I' for Inactive)
REMARK    1  A    between atoms: C3_3  and  C4_4 
REMARK    2  A    between atoms: C5_6  and  C6_7 
REMARK    3  A    between atoms: C6_7  and  N1_8 
REMARK    4  A    between atoms: N1_8  and  C7_9 
REMARK    5  A    between atoms: C13_16  and  N3_17 
REMARK    6  A    between atoms: N3_17  and  C14_18 
REMARK    7  A    between atoms: C14_18  and  C15_19 
REMARK    8  A    between atoms: C15_19  and  N4_20 
ROOT
HETATM    1  C7  UNL     1      26.816   1.942  52.011  1.00  0.00     0.313 C 
HETATM    2  C8  UNL     1      27.871   2.144  53.009  1.00  0.00     0.131 C 
HETATM    3  N2  UNL     1      28.305   1.541  54.068  1.00  0.00    -0.275 NA
HETATM    4  C9  UNL     1      27.743   0.320  54.592  1.00  0.00     0.117 C 
HETATM    5  C10 UNL     1      26.544  -0.206  54.356  1.00  0.00     0.032 C 
HETATM    6  C11 UNL     1      25.481   0.314  53.505  1.00  0.00    -0.005 A 
HETATM    7  C12 UNL     1      24.295  -0.274  53.860  1.00  0.00     0.044 A 
HETATM    8  C13 UNL     1      23.139   0.071  53.180  1.00  0.00     0.046 A 
HETATM    9  C18 UNL     1      23.290   1.018  52.161  1.00  0.00     0.146 A 
HETATM   10  N5  UNL     1      24.488   1.577  51.838  1.00  0.00    -0.260 NA
HETATM   11  C19 UNL     1      25.619   1.251  52.490  1.00  0.00     0.082 A 
ENDROOT
BRANCH   1  12
HETATM   12  N1  UNL     1      26.410   3.220  51.470  1.00  0.00     0.102 N 
HETATM   13  H9  UNL     1      25.477   3.524  51.818  1.00  0.00     0.317 HD
BRANCH  12  14
HETATM   14  C6  UNL     1      26.580   3.378  50.064  1.00  0.00     0.300 C 
BRANCH  14  15
HETATM   15  C5  UNL     1      25.959   4.627  49.544  1.00  0.00     0.026 C 
HETATM   16  C4  UNL     1      26.689   5.479  48.811  1.00  0.00     0.031 C 
HETATM   17 CL1  UNL     1      28.376   5.048  48.505  1.00  0.00    -0.085 Cl
BRANCH  16  18
HETATM   18  C3  UNL     1      26.319   6.744  48.201  1.00  0.00     0.019 C 
HETATM   19  C2  UNL     1      26.268   7.964  48.666  1.00  0.00    -0.029 C 
HETATM   20  C1  UNL     1      26.608   8.363  50.047  1.00  0.00     0.036 C 
ENDBRANCH  16  18
ENDBRANCH  14  15
ENDBRANCH  12  14
ENDBRANCH   1  12
BRANCH   8  21
HETATM   21  N3  UNL     1      21.840  -0.458  53.434  1.00  0.00    -0.387 N 
HETATM   22  H15 UNL     1      21.817  -1.521  53.436  1.00  0.00     0.159 HD
BRANCH  21  23
HETATM   23  C14 UNL     1      20.636   0.299  53.671  1.00  0.00     0.150 C 
BRANCH  23  24
HETATM   24  C15 UNL     1      19.424  -0.498  53.167  1.00  0.00     0.290 C 
BRANCH  24  25
HETATM   25  N4  UNL     1      19.133   0.010  51.837  1.00  0.00     0.081 N 
HETATM   26  C16 UNL     1      17.784  -0.329  51.425  1.00  0.00     0.309 C 
HETATM   27  C17 UNL     1      19.325   1.448  51.825  1.00  0.00     0.309 C 
ENDBRANCH  24  25
ENDBRANCH  23  24
ENDBRANCH  21  23
ENDBRANCH   8  21
TORSDOF 8
ENDMDL
MODEL 5
REMARK VINA RESULT:      -6.8      3.594      7.903
REMARK  8 active torsions:
REMARK  status: ('A' for Active; 'I' for Inactive)
REMARK    1  A    between atoms: C3_3  and  C4_4 
REMARK    2  A    between atoms: C5_6  and  C6_7 
REMARK    3  A    between atoms: C6_7  and  N1_8 
REMARK    4  A    between atoms: N1_8  and  C7_9 
REMARK    5  A    between atoms: C13_16  and  N3_17 
REMARK    6  A    between atoms: N3_17  and  C14_18 
REMARK    7  A    between atoms: C14_18  and  C15_19 
REMARK    8  A    between atoms: C15_19  and  N4_20 
ROOT
HETATM    1  C7  UNL     1      25.950   4.292  49.676  1.00  0.00     0.313 C 
HETATM    2  C8  UNL     1      24.815   4.901  50.376  1.00  0.00     0.131 C 
HETATM    3  N2  UNL     1      24.051   5.935  50.230  1.00  0.00    -0.275 NA
HETATM    4  C9  UNL     1      24.174   6.885  49.151  1.00  0.00     0.117 C 
HETATM    5  C10 UNL     1      25.221   7.107  48.360  1.00  0.00     0.032 C 
HETATM    6  C11 UNL     1      26.521   6.449  48.376  1.00  0.00    -0.005 A 
HETATM    7  C12 UNL     1      27.428   7.235  47.716  1.00  0.00     0.044 A 
HETATM    8  C13 UNL     1      28.740   6.805  47.604  1.00  0.00     0.046 A 
HETATM    9  C18 UNL     1      29.030   5.570  48.194  1.00  0.00     0.146 A 
HETATM   10  N5  UNL     1      28.097   4.819  48.840  1.00  0.00    -0.260 NA
HETATM   11  C19 UNL     1      26.819   5.224  48.955  1.00  0.00     0.082 A 
ENDROOT
BRANCH   1  12
HETATM   12  N1  UNL     1      26.764   3.558  50.618  1.00  0.00     0.102 N 
HETATM   13  H9  UNL     1      27.623   3.160  50.183  1.00  0.00     0.317 HD
BRANCH  12  14
HETATM   14  C6  UNL     1      26.064   2.639  51.454  1.00  0.00     0.300 C 
BRANCH  14  15
HETATM   15  C5  UNL     1      26.696   1.292  51.486  1.00  0.00     0.026 C 
HETATM   16  C4  UNL     1      26.841   0.651  52.654  1.00  0.00     0.031 C 
HETATM   17 CL1  UNL     1      26.255   1.471  54.107  1.00  0.00    -0.085 Cl
BRANCH  16  18
HETATM   18  C3  UNL     1      27.417  -0.650  52.943  1.00  0.00     0.019 C 
HETATM   19  C2  UNL     1      28.610  -1.018  53.332  1.00  0.00    -0.029 C 
HETATM   20  C1  UNL     1      29.742  -0.104  53.585  1.00  0.00     0.036 C 
ENDBRANCH  16  18
ENDBRANCH  14  15
ENDBRANCH  12  14
ENDBRANCH   1  12
BRANCH   8  21
HETATM   21  N3  UNL     1      29.789   7.510  46.945  1.00  0.00    -0.387 N 
HETATM   22  H15 UNL     1      29.802   7.348  45.894  1.00  0.00     0.159 HD
BRANCH  21  23
HETATM   23  C14 UNL     1      30.768   8.368  47.564  1.00  0.00     0.150 C 
BRANCH  23  24
HETATM   24  C15 UNL     1      30.467   9.830  47.203  1.00  0.00     0.290 C 
BRANCH  24  25
HETATM   25  N4  UNL     1      30.113  10.489  48.449  1.00  0.00     0.081 N 
HETATM   26  C16 UNL     1      28.677  10.638  48.580  1.00  0.00     0.309 C 
HETATM   27  C17 UNL     1      30.651   9.725  49.560  1.00  0.00     0.309 C 
ENDBRANCH  24  25
ENDBRANCH  23  24
ENDBRANCH  21  23
ENDBRANCH   8  21
TORSDOF 8
ENDMDL
MODEL 6
REMARK VINA RESULT:      -6.7      3.835      7.520
REMARK  8 active torsions:
REMARK  status: ('A' for Active; 'I' for Inactive)
REMARK    1  A    between atoms: C3_3  and  C4_4 
REMARK    2  A    between atoms: C5_6  and  C6_7 
REMARK    3  A    between atoms: C6_7  and  N1_8 
REMARK    4  A    between atoms: N1_8  and  C7_9 
REMARK    5  A    between atoms: C13_16  and  N3_17 
REMARK    6  A    between atoms: N3_17  and  C14_18 
REMARK    7  A    between atoms: C14_18  and  C15_19 
REMARK    8  A    between atoms: C15_19  and  N4_20 
ROOT
HETATM    1  C7  UNL     1      26.039   4.190  49.655  1.00  0.00     0.313 C 
HETATM    2  C8  UNL     1      24.861   4.721  50.347  1.00  0.00     0.131 C 
HETATM    3  N2  UNL     1      24.040   5.712  50.203  1.00  0.00    -0.275 NA
HETATM    4  C9  UNL     1      24.123   6.683  49.140  1.00  0.00     0.117 C 
HETATM    5  C10 UNL     1      25.166   6.977  48.368  1.00  0.00     0.032 C 
HETATM    6  C11 UNL     1      26.502   6.395  48.394  1.00  0.00    -0.005 A 
HETATM    7  C12 UNL     1      27.372   7.242  47.758  1.00  0.00     0.044 A 
HETATM    8  C13 UNL     1      28.708   6.890  47.660  1.00  0.00     0.046 A 
HETATM    9  C18 UNL     1      29.060   5.665  48.237  1.00  0.00     0.146 A 
HETATM   10  N5  UNL     1      28.163   4.852  48.859  1.00  0.00    -0.260 NA
HETATM   11  C19 UNL     1      26.863   5.181  48.961  1.00  0.00     0.082 A 
ENDROOT
BRANCH   1  12
HETATM   12  N1  UNL     1      26.880   3.490  50.599  1.00  0.00     0.102 N 
HETATM   13  H9  UNL     1      27.817   3.257  50.207  1.00  0.00     0.317 HD
BRANCH  12  14
HETATM   14  C6  UNL     1      26.263   2.409  51.294  1.00  0.00     0.300 C 
BRANCH  14  15
HETATM   15  C5  UNL     1      26.884   2.147  52.621  1.00  0.00     0.026 C 
HETATM   16  C4  UNL     1      27.137   0.887  53.001  1.00  0.00     0.031 C 
HETATM   17 CL1  UNL     1      26.705  -0.404  51.872  1.00  0.00    -0.085 Cl
BRANCH  16  18
HETATM   18  C3  UNL     1      27.726   0.379  54.227  1.00  0.00     0.019 C 
HETATM   19  C2  UNL     1      28.877  -0.186  54.482  1.00  0.00    -0.029 C 
HETATM   20  C1  UNL     1      29.932  -0.458  53.483  1.00  0.00     0.036 C 
ENDBRANCH  16  18
ENDBRANCH  14  15
ENDBRANCH  12  14
ENDBRANCH   1  12
BRANCH   8  21
HETATM   21  N3  UNL     1      29.723   7.664  47.027  1.00  0.00    -0.387 N 
HETATM   22  H15 UNL     1      29.574   7.768  45.980  1.00  0.00     0.159 HD
BRANCH  21  23
HETATM   23  C14 UNL     1      30.862   8.274  47.666  1.00  0.00     0.150 C 
BRANCH  23  24
HETATM   24  C15 UNL     1      32.153   7.672  47.093  1.00  0.00     0.290 C 
BRANCH  24  25
HETATM   25  N4  UNL     1      32.695   6.813  48.131  1.00  0.00     0.081 N 
HETATM   26  C16 UNL     1      32.719   5.425  47.712  1.00  0.00     0.309 C 
HETATM   27  C17 UNL     1      34.030   7.266  48.475  1.00  0.00     0.309 C 
ENDBRANCH  24  25
ENDBRANCH  23  24
ENDBRANCH  21  23
ENDBRANCH   8  21
TORSDOF 8
ENDMDL
MODEL 7
REMARK VINA RESULT:      -6.6      2.554      5.953
REMARK  8 active torsions:
REMARK  status: ('A' for Active; 'I' for Inactive)
REMARK    1  A    between atoms: C3_3  and  C4_4 
REMARK    2  A    between atoms: C5_6  and  C6_7 
REMARK    3  A    between atoms: C6_7  and  N1_8 
REMARK    4  A    between atoms: N1_8  and  C7_9 
REMARK    5  A    between atoms: C13_16  and  N3_17 
REMARK    6  A    between atoms: N3_17  and  C14_18 
REMARK    7  A    between atoms: C14_18  and  C15_19 
REMARK    8  A    between atoms: C15_19  and  N4_20 
ROOT
HETATM    1  C7  UNL     1      23.367   0.462  52.190  1.00  0.00     0.313 C 
HETATM    2  C8  UNL     1      21.923   0.253  52.324  1.00  0.00     0.131 C 
HETATM    3  N2  UNL     1      20.866   0.422  51.597  1.00  0.00    -0.275 NA
HETATM    4  C9  UNL     1      20.884   0.949  50.254  1.00  0.00     0.117 C 
HETATM    5  C10 UNL     1      21.837   1.659  49.658  1.00  0.00     0.032 C 
HETATM    6  C11 UNL     1      23.116   2.094  50.204  1.00  0.00    -0.005 A 
HETATM    7  C12 UNL     1      23.598   3.130  49.447  1.00  0.00     0.044 A 
HETATM    8  C13 UNL     1      24.811   3.705  49.784  1.00  0.00     0.046 A 
HETATM    9  C18 UNL     1      25.456   3.162  50.900  1.00  0.00     0.146 A 
HETATM   10  N5  UNL     1      24.943   2.131  51.625  1.00  0.00    -0.260 NA
HETATM   11  C19 UNL     1      23.766   1.562  51.309  1.00  0.00     0.082 A 
ENDROOT
BRANCH   1  12
HETATM   12  N1  UNL     1      23.946   0.700  53.493  1.00  0.00     0.102 N 
HETATM   13  H9  UNL     1      24.488   1.589  53.535  1.00  0.00     0.317 HD
BRANCH  12  14
HETATM   14  C6  UNL     1      24.615  -0.411  54.083  1.00  0.00     0.300 C 
BRANCH  14  15
HETATM   15  C5  UNL     1      25.972  -0.066  54.589  1.00  0.00     0.026 C 
HETATM   16  C4  UNL     1      27.042  -0.238  53.800  1.00  0.00     0.031 C 
HETATM   17 CL1  UNL     1      26.757  -0.878  52.176  1.00  0.00    -0.085 Cl
BRANCH  16  18
HETATM   18  C3  UNL     1      28.447   0.019  54.058  1.00  0.00     0.019 C 
HETATM   19  C2  UNL     1      29.168   1.108  53.998  1.00  0.00    -0.029 C 
HETATM   20  C1  UNL     1      28.663   2.444  53.619  1.00  0.00     0.036 C 
ENDBRANCH  16  18
ENDBRANCH  14  15
ENDBRANCH  12  14
ENDBRANCH   1  12
BRANCH   8  21
HETATM   21  N3  UNL     1      25.438   4.782  49.090  1.00  0.00    -0.387 N 
HETATM   22  H15 UNL     1      24.742   5.478  48.688  1.00  0.00     0.159 HD
BRANCH  21  23
HETATM   23  C14 UNL     1      26.854   4.978  48.909  1.00  0.00     0.150 C 
BRANCH  23  24
HETATM   24  C15 UNL     1      27.152   6.480  48.792  1.00  0.00     0.290 C 
BRANCH  24  25
HETATM   25  N4  UNL     1      28.246   6.602  47.845  1.00  0.00     0.081 N 
HETATM   26  C16 UNL     1      28.743   7.963  47.783  1.00  0.00     0.309 C 
HETATM   27  C17 UNL     1      29.307   5.687  48.224  1.00  0.00     0.309 C 
ENDBRANCH  24  25
ENDBRANCH  23  24
ENDBRANCH  21  23
ENDBRANCH   8  21
TORSDOF 8
ENDMDL
MODEL 8
REMARK VINA RESULT:      -6.6      2.616      7.582
REMARK  8 active torsions:
REMARK  status: ('A' for Active; 'I' for Inactive)
REMARK    1  A    between atoms: C3_3  and  C4_4 
REMARK    2  A    between atoms: C5_6  and  C6_7 
REMARK    3  A    between atoms: C6_7  and  N1_8 
REMARK    4  A    between atoms: N1_8  and  C7_9 
REMARK    5  A    between atoms: C13_16  and  N3_17 
REMARK    6  A    between atoms: N3_17  and  C14_18 
REMARK    7  A    between atoms: C14_18  and  C15_19 
REMARK    8  A    between atoms: C15_19  and  N4_20 
ROOT
HETATM    1  C7  UNL     1      24.706   0.087  53.603  1.00  0.00     0.313 C 
HETATM    2  C8  UNL     1      25.791  -0.866  53.854  1.00  0.00     0.131 C 
HETATM    3  N2  UNL     1      27.082  -0.885  53.757  1.00  0.00    -0.275 NA
HETATM    4  C9  UNL     1      27.874   0.229  53.296  1.00  0.00     0.117 C 
HETATM    5  C10 UNL     1      27.484   1.282  52.584  1.00  0.00     0.032 C 
HETATM    6  C11 UNL     1      26.152   1.590  52.081  1.00  0.00    -0.005 A 
HETATM    7  C12 UNL     1      26.256   2.506  51.067  1.00  0.00     0.044 A 
HETATM    8  C13 UNL     1      25.106   2.949  50.435  1.00  0.00     0.046 A 
HETATM    9  C18 UNL     1      23.905   2.404  50.901  1.00  0.00     0.146 A 
HETATM   10  N5  UNL     1      23.845   1.496  51.913  1.00  0.00    -0.260 NA
HETATM   11  C19 UNL     1      24.954   1.057  52.536  1.00  0.00     0.082 A 
ENDROOT
BRANCH   1  12
HETATM   12  N1  UNL     1      23.494  -0.632  53.283  1.00  0.00     0.102 N 
HETATM   13  H9  UNL     1      22.981  -0.216  52.478  1.00  0.00     0.317 HD
BRANCH  12  14
HETATM   14  C6  UNL     1      22.659  -0.960  54.390  1.00  0.00     0.300 C 
BRANCH  14  15
HETATM   15  C5  UNL     1      21.337  -1.504  53.975  1.00  0.00     0.026 C 
HETATM   16  C4  UNL     1      20.318  -0.669  53.733  1.00  0.00     0.031 C 
HETATM   17 CL1  UNL     1      20.625   1.062  53.927  1.00  0.00    -0.085 Cl
BRANCH  16  18
HETATM   18  C3  UNL     1      18.954  -0.949  53.323  1.00  0.00     0.019 C 
HETATM   19  C2  UNL     1      18.262  -0.601  52.270  1.00  0.00    -0.029 C 
HETATM   20  C1  UNL     1      18.764   0.236  51.160  1.00  0.00     0.036 C 
ENDBRANCH  16  18
ENDBRANCH  14  15
ENDBRANCH  12  14
ENDBRANCH   1  12
BRANCH   8  21
HETATM   21  N3  UNL     1      25.059   3.899  49.374  1.00  0.00    -0.387 N 
HETATM   22  H15 UNL     1      25.205   3.461  48.416  1.00  0.00     0.159 HD
BRANCH  21  23
HETATM   23  C14 UNL     1      24.842   5.318  49.501  1.00  0.00     0.150 C 
BRANCH  23  24
HETATM   24  C15 UNL     1      23.349   5.626  49.314  1.00  0.00     0.290 C 
BRANCH  24  25
HETATM   25  N4  UNL     1      22.961   6.451  50.445  1.00  0.00     0.081 N 
HETATM   26  C16 UNL     1      22.012   5.765  51.300  1.00  0.00     0.309 C 
HETATM   27  C17 UNL     1      24.149   6.819  51.193  1.00  0.00     0.309 C 
ENDBRANCH  24  25
ENDBRANCH  23  24
ENDBRANCH  21  23
ENDBRANCH   8  21
TORSDOF 8
ENDMDL
MODEL 9
REMARK VINA RESULT:      -6.5      2.103      6.403
REMARK  8 active torsions:
REMARK  status: ('A' for Active; 'I' for Inactive)
REMARK    1  A    between atoms: C3_3  and  C4_4 
REMARK    2  A    between atoms: C5_6  and  C6_7 
REMARK    3  A    between atoms: C6_7  and  N1_8 
REMARK    4  A    between atoms: N1_8  and  C7_9 
REMARK    5  A    between atoms: C13_16  and  N3_17 
REMARK    6  A    between atoms: N3_17  and  C14_18 
REMARK    7  A    between atoms: C14_18  and  C15_19 
REMARK    8  A    between atoms: C15_19  and  N4_20 
ROOT
HETATM    1  C7  UNL     1      22.880   0.756  52.700  1.00  0.00     0.313 C 
HETATM    2  C8  UNL     1      21.806  -0.068  53.261  1.00  0.00     0.131 C 
HETATM    3  N2  UNL     1      20.514  -0.116  53.199  1.00  0.00    -0.275 NA
HETATM    4  C9  UNL     1      19.707   0.796  52.426  1.00  0.00     0.117 C 
HETATM    5  C10 UNL     1      20.036   1.996  51.956  1.00  0.00     0.032 C 
HETATM    6  C11 UNL     1      21.300   2.707  52.098  1.00  0.00    -0.005 A 
HETATM    7  C12 UNL     1      21.095   4.039  51.854  1.00  0.00     0.044 A 
HETATM    8  C13 UNL     1      22.166   4.914  51.931  1.00  0.00     0.046 A 
HETATM    9  C18 UNL     1      23.399   4.341  52.263  1.00  0.00     0.146 A 
HETATM   10  N5  UNL     1      23.560   3.010  52.497  1.00  0.00    -0.260 NA
HETATM   11  C19 UNL     1      22.528   2.150  52.425  1.00  0.00     0.082 A 
ENDROOT
BRANCH   1  12
HETATM   12  N1  UNL     1      24.014   0.749  53.597  1.00  0.00     0.102 N 
HETATM   13  H9  UNL     1      24.670   1.539  53.421  1.00  0.00     0.317 HD
BRANCH  12  14
HETATM   14  C6  UNL     1      24.661  -0.510  53.765  1.00  0.00     0.300 C 
BRANCH  14  15
HETATM   15  C5  UNL     1      26.031  -0.384  54.334  1.00  0.00     0.026 C 
HETATM   16  C4  UNL     1      27.072  -0.155  53.523  1.00  0.00     0.031 C 
HETATM   17 CL1  UNL     1      26.736  -0.014  51.792  1.00  0.00    -0.085 Cl
BRANCH  16  18
HETATM   18  C3  UNL     1      28.482   0.005  53.829  1.00  0.00     0.019 C 
HETATM   19  C2  UNL     1      29.499  -0.813  53.747  1.00  0.00    -0.029 C 
HETATM   20  C1  UNL     1      29.429  -2.213  53.280  1.00  0.00     0.036 C 
ENDBRANCH  16  18
ENDBRANCH  14  15
ENDBRANCH  12  14
ENDBRANCH   1  12
BRANCH   8  21
HETATM   21  N3  UNL     1      22.106   6.319  51.700  1.00  0.00    -0.387 N 
HETATM   22  H15 UNL     1      21.647   6.852  52.496  1.00  0.00     0.159 HD
BRANCH  21  23
HETATM   23  C14 UNL     1      22.592   7.019  50.537  1.00  0.00     0.150 C 
BRANCH  23  24
HETATM   24  C15 UNL     1      23.878   7.779  50.898  1.00  0.00     0.290 C 
BRANCH  24  25
HETATM   25  N4  UNL     1      24.764   7.637  49.756  1.00  0.00     0.081 N 
HETATM   26  C16 UNL     1      26.044   8.276  49.997  1.00  0.00     0.309 C 
HETATM   27  C17 UNL     1      24.943   6.227  49.465  1.00  0.00     0.309 C 
ENDBRANCH  24  25
ENDBRANCH  23  24
ENDBRANCH  21  23
ENDBRANCH   8  21
TORSDOF 8
ENDMDL
