MODEL 1
REMARK VINA RESULT:      -9.0      0.000      0.000
REMARK  3 active torsions:
REMARK  status: ('A' for Active; 'I' for Inactive)
REMARK    1  A    between atoms: C4_5  and  C5_6 
REMARK    2  A    between atoms: C5_6  and  N1_7 
REMARK    3  A    between atoms: N1_7  and  C6_8 
ROOT
HETATM    1  C6  UNL     1      24.196   1.513  52.933  1.00  0.00     0.045 A 
HETATM    2  C7  UNL     1      22.994   0.854  53.012  1.00  0.00     0.049 A 
HETATM    3  C8  UNL     1      22.810  -0.338  53.673  1.00  0.00     0.122 A 
HETATM    4  N2  UNL     1      23.869  -0.895  54.281  1.00  0.00    -0.236 NA
HETATM    5  C9  UNL     1      25.082  -0.318  54.256  1.00  0.00     0.183 A 
HETATM    6  O1  UNL     1      26.242  -0.658  54.762  1.00  0.00    -0.290 OA
HETATM    7  C10 UNL     1      27.168   0.216  54.483  1.00  0.00     0.089 A 
HETATM    8  C11 UNL     1      28.502   0.282  54.792  1.00  0.00     0.038 A 
HETATM    9  C12 UNL     1      29.270   1.345  54.361  1.00  0.00     0.003 A 
HETATM   10  C13 UNL     1      28.635   2.337  53.604  1.00  0.00     0.001 A 
HETATM   11  C14 UNL     1      27.293   2.251  53.304  1.00  0.00     0.015 A 
HETATM   12  C15 UNL     1      26.543   1.192  53.738  1.00  0.00     0.015 A 
HETATM   13  C16 UNL     1      25.220   0.876  53.580  1.00  0.00     0.057 A 
ENDROOT
BRANCH   1  14
HETATM   14  N1  UNL     1      24.270   2.732  52.227  1.00  0.00    -0.385 N 
HETATM   15  H5  UNL     1      24.317   3.731  52.439  1.00  0.00     0.160 HD
BRANCH  14  16
HETATM   16  C5  UNL     1      24.295   2.656  50.782  1.00  0.00     0.158 C 
BRANCH  16  17
HETATM   17  C4  UNL     1      25.084   3.699  50.110  1.00  0.00    -0.041 A 
HETATM   18  C3  UNL     1      24.621   4.975  49.872  1.00  0.00     0.010 A 
HETATM   19  C2  UNL     1      25.427   5.915  49.227  1.00  0.00     0.024 A 
HETATM   20  C1  UNL     1      26.697   5.494  48.849  1.00  0.00     0.034 A 
HETATM   21 CL1  UNL     1      27.787   6.594  48.035  1.00  0.00    -0.084 Cl
HETATM   22  C18 UNL     1      27.185   4.216  49.077  1.00  0.00     0.024 A 
HETATM   23  C17 UNL     1      26.353   3.324  49.716  1.00  0.00     0.010 A 
ENDBRANCH  16  17
ENDBRANCH  14  16
ENDBRANCH   1  14
TORSDOF 3
ENDMDL
MODEL 2
REMARK VINA RESULT:      -8.7      1.619      3.672
REMARK  3 active torsions:
REMARK  status: ('A' for Active; 'I' for Inactive)
REMARK    1  A    between atoms: C4_5  and  C5_6 
REMARK    2  A    between atoms: C5_6  and  N1_7 
REMARK    3  A    between atoms: N1_7  and  C6_8 
ROOT
HETATM    1  C6  UNL     1      27.057   1.758  52.979  1.00  0.00     0.045 A 
HETATM    2  C7  UNL     1      28.381   1.600  53.306  1.00  0.00     0.049 A 
HETATM    3  C8  UNL     1      28.864   0.589  54.104  1.00  0.00     0.122 A 
HETATM    4  N2  UNL     1      27.988  -0.303  54.594  1.00  0.00    -0.236 NA
HETATM    5  C9  UNL     1      26.675  -0.225  54.324  1.00  0.00     0.183 A 
HETATM    6  O1  UNL     1      25.647  -0.958  54.677  1.00  0.00    -0.290 OA
HETATM    7  C10 UNL     1      24.532  -0.504  54.174  1.00  0.00     0.089 A 
HETATM    8  C11 UNL     1      23.233  -0.932  54.267  1.00  0.00     0.038 A 
HETATM    9  C12 UNL     1      22.223  -0.252  53.618  1.00  0.00     0.003 A 
HETATM   10  C13 UNL     1      22.579   0.879  52.874  1.00  0.00     0.001 A 
HETATM   11  C14 UNL     1      23.891   1.293  52.794  1.00  0.00     0.015 A 
HETATM   12  C15 UNL     1      24.883   0.609  53.441  1.00  0.00     0.015 A 
HETATM   13  C16 UNL     1      26.236   0.807  53.521  1.00  0.00     0.057 A 
ENDROOT
BRANCH   1  14
HETATM   14  N1  UNL     1      26.673   2.835  52.153  1.00  0.00    -0.385 N 
HETATM   15  H5  UNL     1      26.439   3.825  52.255  1.00  0.00     0.160 HD
BRANCH  14  16
HETATM   16  C5  UNL     1      26.547   2.566  50.736  1.00  0.00     0.158 C 
BRANCH  16  17
HETATM   17  C4  UNL     1      25.663   3.480  49.998  1.00  0.00    -0.041 A 
HETATM   18  C3  UNL     1      24.341   3.207  49.718  1.00  0.00     0.010 A 
HETATM   19  C2  UNL     1      23.560   4.123  49.012  1.00  0.00     0.024 A 
HETATM   20  C1  UNL     1      24.184   5.302  48.617  1.00  0.00     0.034 A 
HETATM   21 CL1  UNL     1      23.295   6.516  47.726  1.00  0.00    -0.084 Cl
HETATM   22  C18 UNL     1      25.512   5.599  48.886  1.00  0.00     0.024 A 
HETATM   23  C17 UNL     1      26.242   4.664  49.586  1.00  0.00     0.010 A 
ENDBRANCH  16  17
ENDBRANCH  14  16
ENDBRANCH   1  14
TORSDOF 3
ENDMDL
MODEL 3
REMARK VINA RESULT:      -8.5      1.784      2.401
REMARK  3 active torsions:
REMARK  status: ('A' for Active; 'I' for Inactive)
REMARK    1  A    between atoms: C4_5  and  C5_6 
REMARK    2  A    between atoms: C5_6  and  N1_7 
REMARK    3  A    between atoms: N1_7  and  C6_8 
ROOT
HETATM    1  C6  UNL     1      22.510  -0.180  53.060  1.00  0.00     0.045 A 
HETATM    2  C7  UNL     1      21.471  -0.733  53.769  1.00  0.00     0.049 A 
HETATM    3  C8  UNL     1      21.621  -1.404  54.960  1.00  0.00     0.122 A 
HETATM    4  N2  UNL     1      22.858  -1.527  55.466  1.00  0.00    -0.236 NA
HETATM    5  C9  UNL     1      23.931  -1.016  54.841  1.00  0.00     0.183 A 
HETATM    6  O1  UNL     1      25.210  -1.006  55.127  1.00  0.00    -0.290 OA
HETATM    7  C10 UNL     1      25.906  -0.383  54.217  1.00  0.00     0.089 A 
HETATM    8  C11 UNL     1      27.247  -0.126  54.092  1.00  0.00     0.038 A 
HETATM    9  C12 UNL     1      27.729   0.572  53.004  1.00  0.00     0.003 A 
HETATM   10  C13 UNL     1      26.801   0.999  52.046  1.00  0.00     0.001 A 
HETATM   11  C14 UNL     1      25.458   0.729  52.191  1.00  0.00     0.015 A 
HETATM   12  C15 UNL     1      24.993   0.037  53.275  1.00  0.00     0.015 A 
HETATM   13  C16 UNL     1      23.733  -0.353  53.648  1.00  0.00     0.057 A 
ENDROOT
BRANCH   1  14
HETATM   14  N1  UNL     1      22.240   0.486  51.847  1.00  0.00    -0.385 N 
HETATM   15  H5  UNL     1      22.226   0.269  50.847  1.00  0.00     0.160 HD
BRANCH  14  16
HETATM   16  C5  UNL     1      21.865   1.882  51.930  1.00  0.00     0.158 C 
BRANCH  16  17
HETATM   17  C4  UNL     1      22.789   2.821  51.278  1.00  0.00    -0.041 A 
HETATM   18  C3  UNL     1      23.259   3.971  51.876  1.00  0.00     0.010 A 
HETATM   19  C2  UNL     1      24.136   4.818  51.196  1.00  0.00     0.024 A 
HETATM   20  C1  UNL     1      24.497   4.440  49.907  1.00  0.00     0.034 A 
HETATM   21 CL1  UNL     1      25.590   5.431  48.969  1.00  0.00    -0.084 Cl
HETATM   22  C18 UNL     1      24.037   3.289  49.285  1.00  0.00     0.024 A 
HETATM   23  C17 UNL     1      23.174   2.484  49.996  1.00  0.00     0.010 A 
ENDBRANCH  16  17
ENDBRANCH  14  16
ENDBRANCH   1  14
TORSDOF 3
ENDMDL
MODEL 4
REMARK VINA RESULT:      -8.3      2.979      5.593
REMARK  3 active torsions:
REMARK  status: ('A' for Active; 'I' for Inactive)
REMARK    1  A    between atoms: C4_5  and  C5_6 
REMARK    2  A    between atoms: C5_6  and  N1_7 
REMARK    3  A    between atoms: N1_7  and  C6_8 
ROOT
HETATM    1  C6  UNL     1      22.663   0.786  52.533  1.00  0.00     0.045 A 
HETATM    2  C7  UNL     1      21.388   0.281  52.463  1.00  0.00     0.049 A 
HETATM    3  C8  UNL     1      20.552   0.444  51.383  1.00  0.00     0.122 A 
HETATM    4  N2  UNL     1      21.008   1.138  50.329  1.00  0.00    -0.236 NA
HETATM    5  C9  UNL     1      22.243   1.666  50.311  1.00  0.00     0.183 A 
HETATM    6  O1  UNL     1      22.901   2.368  49.421  1.00  0.00    -0.290 OA
HETATM    7  C10 UNL     1      24.099   2.677  49.835  1.00  0.00     0.089 A 
HETATM    8  C11 UNL     1      25.123   3.383  49.259  1.00  0.00     0.038 A 
HETATM    9  C12 UNL     1      26.314   3.564  49.932  1.00  0.00     0.003 A 
HETATM   10  C13 UNL     1      26.427   3.004  51.210  1.00  0.00     0.001 A 
HETATM   11  C14 UNL     1      25.385   2.298  51.770  1.00  0.00     0.015 A 
HETATM   12  C15 UNL     1      24.209   2.125  51.092  1.00  0.00     0.015 A 
HETATM   13  C16 UNL     1      23.046   1.479  51.417  1.00  0.00     0.057 A 
ENDROOT
BRANCH   1  14
HETATM   14  N1  UNL     1      23.433   0.559  53.693  1.00  0.00    -0.385 N 
HETATM   15  H5  UNL     1      23.675   1.056  54.554  1.00  0.00     0.160 HD
BRANCH  14  16
HETATM   16  C5  UNL     1      24.117  -0.713  53.792  1.00  0.00     0.158 C 
BRANCH  16  17
HETATM   17  C4  UNL     1      25.582  -0.649  53.692  1.00  0.00    -0.041 A 
HETATM   18  C3  UNL     1      26.308  -1.250  52.686  1.00  0.00     0.010 A 
HETATM   19  C2  UNL     1      27.700  -1.148  52.656  1.00  0.00     0.024 A 
HETATM   20  C1  UNL     1      28.296  -0.419  53.679  1.00  0.00     0.034 A 
HETATM   21 CL1  UNL     1      30.034  -0.230  53.733  1.00  0.00    -0.084 Cl
HETATM   22  C18 UNL     1      27.587   0.194  54.702  1.00  0.00     0.024 A 
HETATM   23  C17 UNL     1      26.216   0.065  54.690  1.00  0.00     0.010 A 
ENDBRANCH  16  17
ENDBRANCH  14  16
ENDBRANCH   1  14
TORSDOF 3
ENDMDL
MODEL 5
REMARK VINA RESULT:      -8.3      2.751      4.604
REMARK  3 active torsions:
REMARK  status: ('A' for Active; 'I' for Inactive)
REMARK    1  A    between atoms: C4_5  and  C5_6 
REMARK    2  A    between atoms: C5_6  and  N1_7 
REMARK    3  A    between atoms: N1_7  and  C6_8 
ROOT
HETATM    1  C6  UNL     1      26.095   0.734  52.665  1.00  0.00     0.045 A 
HETATM    2  C7  UNL     1      27.411   0.775  53.054  1.00  0.00     0.049 A 
HETATM    3  C8  UNL     1      27.891   0.210  54.213  1.00  0.00     0.122 A 
HETATM    4  N2  UNL     1      27.020  -0.423  55.015  1.00  0.00    -0.236 NA
HETATM    5  C9  UNL     1      25.715  -0.511  54.712  1.00  0.00     0.183 A 
HETATM    6  O1  UNL     1      24.694  -1.062  55.320  1.00  0.00    -0.290 OA
HETATM    7  C10 UNL     1      23.585  -0.901  54.651  1.00  0.00     0.089 A 
HETATM    8  C11 UNL     1      22.294  -1.295  54.890  1.00  0.00     0.038 A 
HETATM    9  C12 UNL     1      21.291  -0.985  53.995  1.00  0.00     0.003 A 
HETATM   10  C13 UNL     1      21.644  -0.261  52.851  1.00  0.00     0.001 A 
HETATM   11  C14 UNL     1      22.948   0.126  52.630  1.00  0.00     0.015 A 
HETATM   12  C15 UNL     1      23.934  -0.188  53.525  1.00  0.00     0.015 A 
HETATM   13  C16 UNL     1      25.279   0.072  53.541  1.00  0.00     0.057 A 
ENDROOT
BRANCH   1  14
HETATM   14  N1  UNL     1      25.713   1.350  51.454  1.00  0.00    -0.385 N 
HETATM   15  H5  UNL     1      25.515   1.071  50.490  1.00  0.00     0.160 HD
BRANCH  14  16
HETATM   16  C5  UNL     1      25.520   2.784  51.475  1.00  0.00     0.158 C 
BRANCH  16  17
HETATM   17  C4  UNL     1      24.121   3.231  51.421  1.00  0.00    -0.041 A 
HETATM   18  C3  UNL     1      23.508   3.950  52.425  1.00  0.00     0.010 A 
HETATM   19  C2  UNL     1      22.174   4.342  52.305  1.00  0.00     0.024 A 
HETATM   20  C1  UNL     1      21.515   3.971  51.138  1.00  0.00     0.034 A 
HETATM   21 CL1  UNL     1      19.841   4.411  50.889  1.00  0.00    -0.084 Cl
HETATM   22  C18 UNL     1      22.110   3.247  50.115  1.00  0.00     0.024 A 
HETATM   23  C17 UNL     1      23.428   2.884  50.278  1.00  0.00     0.010 A 
ENDBRANCH  16  17
ENDBRANCH  14  16
ENDBRANCH   1  14
TORSDOF 3
ENDMDL
MODEL 6
REMARK VINA RESULT:      -7.9      1.641      2.207
REMARK  3 active torsions:
REMARK  status: ('A' for Active; 'I' for Inactive)
REMARK    1  A    between atoms: C4_5  and  C5_6 
REMARK    2  A    between atoms: C5_6  and  N1_7 
REMARK    3  A    between atoms: N1_7  and  C6_8 
ROOT
HETATM    1  C6  UNL     1      22.414   1.169  51.452  1.00  0.00     0.045 A 
HETATM    2  C7  UNL     1      21.047   1.090  51.557  1.00  0.00     0.049 A 
HETATM    3  C8  UNL     1      20.387   0.446  52.577  1.00  0.00     0.122 A 
HETATM    4  N2  UNL     1      21.123  -0.143  53.533  1.00  0.00    -0.236 NA
HETATM    5  C9  UNL     1      22.465  -0.115  53.510  1.00  0.00     0.183 A 
HETATM    6  O1  UNL     1      23.381  -0.605  54.309  1.00  0.00    -0.290 OA
HETATM    7  C10 UNL     1      24.586  -0.332  53.890  1.00  0.00     0.089 A 
HETATM    8  C11 UNL     1      25.829  -0.631  54.387  1.00  0.00     0.038 A 
HETATM    9  C12 UNL     1      26.966  -0.209  53.730  1.00  0.00     0.003 A 
HETATM   10  C13 UNL     1      26.798   0.526  52.550  1.00  0.00     0.001 A 
HETATM   11  C14 UNL     1      25.540   0.814  52.067  1.00  0.00     0.015 A 
HETATM   12  C15 UNL     1      24.420   0.391  52.729  1.00  0.00     0.015 A 
HETATM   13  C16 UNL     1      23.084   0.541  52.467  1.00  0.00     0.057 A 
ENDROOT
BRANCH   1  14
HETATM   14  N1  UNL     1      22.985   1.856  50.360  1.00  0.00    -0.385 N 
HETATM   15  H5  UNL     1      23.381   1.631  49.444  1.00  0.00     0.160 HD
BRANCH  14  16
HETATM   16  C5  UNL     1      23.082   3.296  50.465  1.00  0.00     0.158 C 
BRANCH  16  17
HETATM   17  C4  UNL     1      24.325   3.883  49.943  1.00  0.00    -0.041 A 
HETATM   18  C3  UNL     1      24.428   5.181  49.492  1.00  0.00     0.010 A 
HETATM   19  C2  UNL     1      25.642   5.671  49.009  1.00  0.00     0.024 A 
HETATM   20  C1  UNL     1      26.718   4.789  49.010  1.00  0.00     0.034 A 
HETATM   21 CL1  UNL     1      28.283   5.303  48.424  1.00  0.00    -0.084 Cl
HETATM   22  C18 UNL     1      26.638   3.479  49.458  1.00  0.00     0.024 A 
HETATM   23  C17 UNL     1      25.419   3.041  49.925  1.00  0.00     0.010 A 
ENDBRANCH  16  17
ENDBRANCH  14  16
ENDBRANCH   1  14
TORSDOF 3
ENDMDL
MODEL 7
REMARK VINA RESULT:      -7.9      1.680      2.087
REMARK  3 active torsions:
REMARK  status: ('A' for Active; 'I' for Inactive)
REMARK    1  A    between atoms: C4_5  and  C5_6 
REMARK    2  A    between atoms: C5_6  and  N1_7 
REMARK    3  A    between atoms: N1_7  and  C6_8 
ROOT
HETATM    1  C6  UNL     1      24.255   1.503  52.796  1.00  0.00     0.045 A 
HETATM    2  C7  UNL     1      23.035   0.873  52.835  1.00  0.00     0.049 A 
HETATM    3  C8  UNL     1      22.800  -0.312  53.492  1.00  0.00     0.122 A 
HETATM    4  N2  UNL     1      23.824  -0.892  54.138  1.00  0.00    -0.236 NA
HETATM    5  C9  UNL     1      25.051  -0.344  54.153  1.00  0.00     0.183 A 
HETATM    6  O1  UNL     1      26.184  -0.710  54.699  1.00  0.00    -0.290 OA
HETATM    7  C10 UNL     1      27.140   0.142  54.450  1.00  0.00     0.089 A 
HETATM    8  C11 UNL     1      28.464   0.177  54.805  1.00  0.00     0.038 A 
HETATM    9  C12 UNL     1      29.271   1.220  54.397  1.00  0.00     0.003 A 
HETATM   10  C13 UNL     1      28.687   2.224  53.617  1.00  0.00     0.001 A 
HETATM   11  C14 UNL     1      27.354   2.169  53.271  1.00  0.00     0.015 A 
HETATM   12  C15 UNL     1      26.565   1.130  53.682  1.00  0.00     0.015 A 
HETATM   13  C16 UNL     1      25.240   0.844  53.479  1.00  0.00     0.057 A 
ENDROOT
BRANCH   1  14
HETATM   14  N1  UNL     1      24.382   2.717  52.089  1.00  0.00    -0.385 N 
HETATM   15  H5  UNL     1      24.200   3.711  52.248  1.00  0.00     0.160 HD
BRANCH  14  16
HETATM   16  C5  UNL     1      24.915   2.646  50.745  1.00  0.00     0.158 C 
BRANCH  16  17
HETATM   17  C4  UNL     1      24.143   3.365  49.723  1.00  0.00    -0.041 A 
HETATM   18  C3  UNL     1      23.134   2.790  48.981  1.00  0.00     0.010 A 
HETATM   19  C2  UNL     1      22.441   3.536  48.024  1.00  0.00     0.024 A 
HETATM   20  C1  UNL     1      22.824   4.864  47.870  1.00  0.00     0.034 A 
HETATM   21 CL1  UNL     1      22.020   5.885  46.699  1.00  0.00    -0.084 Cl
HETATM   22  C18 UNL     1      23.836   5.464  48.605  1.00  0.00     0.024 A 
HETATM   23  C17 UNL     1      24.490   4.689  49.536  1.00  0.00     0.010 A 
ENDBRANCH  16  17
ENDBRANCH  14  16
ENDBRANCH   1  14
TORSDOF 3
ENDMDL
MODEL 8
REMARK VINA RESULT:      -7.7      3.450      6.502
REMARK  3 active torsions:
REMARK  status: ('A' for Active; 'I' for Inactive)
REMARK    1  A    between atoms: C4_5  and  C5_6 
REMARK    2  A    between atoms: C5_6  and  N1_7 
REMARK    3  A    between atoms: N1_7  and  C6_8 
ROOT
HETATM    1  C6  UNL     1      22.598   4.850  50.680  1.00  0.00     0.045 A 
HETATM    2  C7  UNL     1      21.545   5.675  50.989  1.00  0.00     0.049 A 
HETATM    3  C8  UNL     1      21.556   7.039  50.814  1.00  0.00     0.122 A 
HETATM    4  N2  UNL     1      22.663   7.603  50.307  1.00  0.00    -0.236 NA
HETATM    5  C9  UNL     1      23.740   6.871  49.975  1.00  0.00     0.183 A 
HETATM    6  O1  UNL     1      24.910   7.183  49.475  1.00  0.00    -0.290 OA
HETATM    7  C10 UNL     1      25.664   6.131  49.312  1.00  0.00     0.089 A 
HETATM    8  C11 UNL     1      26.938   5.971  48.831  1.00  0.00     0.038 A 
HETATM    9  C12 UNL     1      27.509   4.716  48.764  1.00  0.00     0.003 A 
HETATM   10  C13 UNL     1      26.741   3.631  49.203  1.00  0.00     0.001 A 
HETATM   11  C14 UNL     1      25.463   3.815  49.684  1.00  0.00     0.015 A 
HETATM   12  C15 UNL     1      24.908   5.063  49.744  1.00  0.00     0.015 A 
HETATM   13  C16 UNL     1      23.684   5.507  50.170  1.00  0.00     0.057 A 
ENDROOT
BRANCH   1  14
HETATM   14  N1  UNL     1      22.477   3.462  50.903  1.00  0.00    -0.385 N 
HETATM   15  H5  UNL     1      22.430   2.605  50.347  1.00  0.00     0.160 HD
BRANCH  14  16
HETATM   16  C5  UNL     1      22.385   3.020  52.278  1.00  0.00     0.158 C 
BRANCH  16  17
HETATM   17  C4  UNL     1      23.497   2.179  52.744  1.00  0.00    -0.041 A 
HETATM   18  C3  UNL     1      23.458   0.802  52.766  1.00  0.00     0.010 A 
HETATM   19  C2  UNL     1      24.553   0.066  53.222  1.00  0.00     0.024 A 
HETATM   20  C1  UNL     1      25.662   0.793  53.644  1.00  0.00     0.034 A 
HETATM   21 CL1  UNL     1      27.086  -0.032  54.234  1.00  0.00    -0.084 Cl
HETATM   22  C18 UNL     1      25.725   2.178  53.632  1.00  0.00     0.024 A 
HETATM   23  C17 UNL     1      24.620   2.860  53.173  1.00  0.00     0.010 A 
ENDBRANCH  16  17
ENDBRANCH  14  16
ENDBRANCH   1  14
TORSDOF 3
ENDMDL
MODEL 9
REMARK VINA RESULT:      -7.7      3.409      6.036
REMARK  3 active torsions:
REMARK  status: ('A' for Active; 'I' for Inactive)
REMARK    1  A    between atoms: C4_5  and  C5_6 
REMARK    2  A    between atoms: C5_6  and  N1_7 
REMARK    3  A    between atoms: N1_7  and  C6_8 
ROOT
HETATM    1  C6  UNL     1      23.500   1.258  52.645  1.00  0.00     0.045 A 
HETATM    2  C7  UNL     1      23.266   0.439  53.723  1.00  0.00     0.049 A 
HETATM    3  C8  UNL     1      22.226  -0.458  53.799  1.00  0.00     0.122 A 
HETATM    4  N2  UNL     1      21.386  -0.542  52.756  1.00  0.00    -0.236 NA
HETATM    5  C9  UNL     1      21.540   0.220  51.661  1.00  0.00     0.183 A 
HETATM    6  O1  UNL     1      20.867   0.318  50.541  1.00  0.00    -0.290 OA
HETATM    7  C10 UNL     1      21.384   1.209  49.741  1.00  0.00     0.089 A 
HETATM    8  C11 UNL     1      21.030   1.646  48.490  1.00  0.00     0.038 A 
HETATM    9  C12 UNL     1      21.769   2.622  47.854  1.00  0.00     0.003 A 
HETATM   10  C13 UNL     1      22.879   3.139  48.533  1.00  0.00     0.001 A 
HETATM   11  C14 UNL     1      23.217   2.686  49.790  1.00  0.00     0.015 A 
HETATM   12  C15 UNL     1      22.476   1.717  50.409  1.00  0.00     0.015 A 
HETATM   13  C16 UNL     1      22.596   1.107  51.630  1.00  0.00     0.057 A 
ENDROOT
BRANCH   1  14
HETATM   14  N1  UNL     1      24.598   2.143  52.675  1.00  0.00    -0.385 N 
HETATM   15  H5  UNL     1      24.877   2.991  53.174  1.00  0.00     0.160 HD
BRANCH  14  16
HETATM   16  C5  UNL     1      25.700   1.856  51.782  1.00  0.00     0.158 C 
BRANCH  16  17
HETATM   17  C4  UNL     1      26.737   0.967  52.327  1.00  0.00    -0.041 A 
HETATM   18  C3  UNL     1      26.670  -0.408  52.276  1.00  0.00     0.010 A 
HETATM   19  C2  UNL     1      27.693  -1.190  52.816  1.00  0.00     0.024 A 
HETATM   20  C1  UNL     1      28.760  -0.511  53.394  1.00  0.00     0.034 A 
HETATM   21 CL1  UNL     1      30.093  -1.397  54.098  1.00  0.00    -0.084 Cl
HETATM   22  C18 UNL     1      28.850   0.872  53.457  1.00  0.00     0.024 A 
HETATM   23  C17 UNL     1      27.816   1.600  52.912  1.00  0.00     0.010 A 
ENDBRANCH  16  17
ENDBRANCH  14  16
ENDBRANCH   1  14
TORSDOF 3
ENDMDL
