MODEL 1
REMARK VINA RESULT:      -7.8      0.000      0.000
REMARK  6 active torsions:
REMARK  status: ('A' for Active; 'I' for Inactive)
REMARK    1  A    between atoms: C1_2  and  C12_15 
REMARK    2  A    between atoms: C2_3  and  C3_4 
REMARK    3  A    between atoms: C3_4  and  N1_5 
REMARK    4  A    between atoms: C12_15  and  O1_16 
REMARK    5  A    between atoms: O1_16  and  C13_17 
REMARK    6  A    between atoms: C13_17  and  C14_18 
ROOT
HETATM    1 CL1  UNL     1      21.026   1.160  49.270  1.00  0.00    -0.087 Cl
HETATM    2  C1  UNL     1      21.903   2.087  50.520  1.00  0.00     0.033 C 
HETATM    3  C2  UNL     1      22.596   1.430  51.485  1.00  0.00     0.024 C 
ENDROOT
BRANCH   3   4
HETATM    4  C3  UNL     1      23.443   1.407  52.674  1.00  0.00     0.301 C 
BRANCH   4   5
HETATM    5  N1  UNL     1      24.819   1.013  52.363  1.00  0.00     0.092 N 
HETATM    6  C4  UNL     1      25.024  -0.297  53.080  1.00  0.00     0.280 C 
HETATM    7  C5  UNL     1      26.394  -0.757  52.758  1.00  0.00     0.049 C 
HETATM    8  C6  UNL     1      27.687  -1.068  53.002  1.00  0.00     0.139 C 
HETATM    9  N2  UNL     1      28.865  -1.217  53.811  1.00  0.00    -0.294 NA
HETATM   10  C7  UNL     1      29.367  -0.031  54.215  1.00  0.00     0.110 C 
HETATM   11  C8  UNL     1      29.038   1.401  54.049  1.00  0.00     0.015 C 
HETATM   12  C9  UNL     1      28.200   2.263  53.433  1.00  0.00    -0.024 C 
HETATM   13  C10 UNL     1      27.135   1.782  52.516  1.00  0.00     0.057 C 
HETATM   14  C11 UNL     1      25.766   1.953  53.022  1.00  0.00     0.276 C 
ENDBRANCH   4   5
ENDBRANCH   3   4
BRANCH   2  15
HETATM   15  C12 UNL     1      21.580   3.485  50.127  1.00  0.00     0.219 C 
BRANCH  15  16
HETATM   16  O1  UNL     1      22.614   4.352  50.385  1.00  0.00    -0.381 OA
BRANCH  16  17
HETATM   17  C13 UNL     1      23.102   5.025  49.269  1.00  0.00     0.206 C 
BRANCH  17  18
HETATM   18  C14 UNL     1      24.597   4.795  49.195  1.00  0.00    -0.035 A 
HETATM   19  C15 UNL     1      25.341   5.877  48.730  1.00  0.00     0.009 A 
HETATM   20  C16 UNL     1      26.711   5.741  48.631  1.00  0.00     0.001 A 
HETATM   21  C17 UNL     1      27.367   4.578  48.976  1.00  0.00     0.000 A 
HETATM   22  C18 UNL     1      26.598   3.521  49.435  1.00  0.00     0.001 A 
HETATM   23  C19 UNL     1      25.221   3.617  49.548  1.00  0.00     0.009 A 
ENDBRANCH  17  18
ENDBRANCH  16  17
ENDBRANCH  15  16
ENDBRANCH   2  15
TORSDOF 6
ENDMDL
MODEL 2
REMARK VINA RESULT:      -7.7      1.468      1.833
REMARK  6 active torsions:
REMARK  status: ('A' for Active; 'I' for Inactive)
REMARK    1  A    between atoms: C1_2  and  C12_15 
REMARK    2  A    between atoms: C2_3  and  C3_4 
REMARK    3  A    between atoms: C3_4  and  N1_5 
REMARK    4  A    between atoms: C12_15  and  O1_16 
REMARK    5  A    between atoms: O1_16  and  C13_17 
REMARK    6  A    between atoms: C13_17  and  C14_18 
ROOT
HETATM    1 CL1  UNL     1      22.648   5.597  51.443  1.00  0.00    -0.087 Cl
HETATM    2  C1  UNL     1      22.999   3.871  51.148  1.00  0.00     0.033 C 
HETATM    3  C2  UNL     1      23.175   3.028  52.198  1.00  0.00     0.024 C 
ENDROOT
BRANCH   3   4
HETATM    4  C3  UNL     1      23.444   1.708  52.761  1.00  0.00     0.301 C 
BRANCH   4   5
HETATM    5  N1  UNL     1      24.775   1.215  52.397  1.00  0.00     0.092 N 
HETATM    6  C4  UNL     1      24.920  -0.097  53.126  1.00  0.00     0.280 C 
HETATM    7  C5  UNL     1      26.239  -0.656  52.752  1.00  0.00     0.049 C 
HETATM    8  C6  UNL     1      27.517  -1.053  52.945  1.00  0.00     0.139 C 
HETATM    9  N2  UNL     1      28.716  -1.273  53.704  1.00  0.00    -0.294 NA
HETATM   10  C7  UNL     1      29.317  -0.120  54.066  1.00  0.00     0.110 C 
HETATM   11  C8  UNL     1      29.081   1.329  53.892  1.00  0.00     0.015 C 
HETATM   12  C9  UNL     1      28.278   2.239  53.298  1.00  0.00    -0.024 C 
HETATM   13  C10 UNL     1      27.143   1.822  52.436  1.00  0.00     0.057 C 
HETATM   14  C11 UNL     1      25.813   2.095  52.998  1.00  0.00     0.276 C 
ENDBRANCH   4   5
ENDBRANCH   3   4
BRANCH   2  15
HETATM   15  C12 UNL     1      23.025   3.828  49.662  1.00  0.00     0.219 C 
BRANCH  15  16
HETATM   16  O1  UNL     1      24.114   4.482  49.139  1.00  0.00    -0.381 OA
BRANCH  16  17
HETATM   17  C13 UNL     1      25.345   4.031  49.607  1.00  0.00     0.206 C 
BRANCH  17  18
HETATM   18  C14 UNL     1      26.425   4.924  49.032  1.00  0.00    -0.035 A 
HETATM   19  C15 UNL     1      26.025   6.226  48.741  1.00  0.00     0.009 A 
HETATM   20  C16 UNL     1      26.954   7.098  48.211  1.00  0.00     0.001 A 
HETATM   21  C17 UNL     1      28.259   6.728  47.960  1.00  0.00     0.000 A 
HETATM   22  C18 UNL     1      28.624   5.426  48.261  1.00  0.00     0.001 A 
HETATM   23  C19 UNL     1      27.722   4.520  48.794  1.00  0.00     0.009 A 
ENDBRANCH  17  18
ENDBRANCH  16  17
ENDBRANCH  15  16
ENDBRANCH   2  15
TORSDOF 6
ENDMDL
MODEL 3
REMARK VINA RESULT:      -7.3      2.915      4.699
REMARK  6 active torsions:
REMARK  status: ('A' for Active; 'I' for Inactive)
REMARK    1  A    between atoms: C1_2  and  C12_15 
REMARK    2  A    between atoms: C2_3  and  C3_4 
REMARK    3  A    between atoms: C3_4  and  N1_5 
REMARK    4  A    between atoms: C12_15  and  O1_16 
REMARK    5  A    between atoms: O1_16  and  C13_17 
REMARK    6  A    between atoms: C13_17  and  C14_18 
ROOT
HETATM    1 CL1  UNL     1      23.982   5.416  51.640  1.00  0.00    -0.087 Cl
HETATM    2  C1  UNL     1      23.333   3.883  52.287  1.00  0.00     0.033 C 
HETATM    3  C2  UNL     1      24.166   2.999  52.894  1.00  0.00     0.024 C 
ENDROOT
BRANCH   3   4
HETATM    4  C3  UNL     1      24.429   1.739  53.583  1.00  0.00     0.301 C 
BRANCH   4   5
HETATM    5  N1  UNL     1      25.492   0.968  52.934  1.00  0.00     0.092 N 
HETATM    6  C4  UNL     1      25.305  -0.446  53.422  1.00  0.00     0.280 C 
HETATM    7  C5  UNL     1      26.336  -1.274  52.757  1.00  0.00     0.049 C 
HETATM    8  C6  UNL     1      27.442  -2.049  52.674  1.00  0.00     0.139 C 
HETATM    9  N2  UNL     1      28.591  -2.744  53.183  1.00  0.00    -0.294 NA
HETATM   10  C7  UNL     1      29.555  -1.902  53.611  1.00  0.00     0.110 C 
HETATM   11  C8  UNL     1      29.761  -0.441  53.699  1.00  0.00     0.015 C 
HETATM   12  C9  UNL     1      29.218   0.757  53.390  1.00  0.00    -0.024 C 
HETATM   13  C10 UNL     1      27.921   0.855  52.674  1.00  0.00     0.057 C 
HETATM   14  C11 UNL     1      26.812   1.382  53.482  1.00  0.00     0.276 C 
ENDBRANCH   4   5
ENDBRANCH   3   4
BRANCH   2  15
HETATM   15  C12 UNL     1      21.895   3.998  51.925  1.00  0.00     0.219 C 
BRANCH  15  16
HETATM   16  O1  UNL     1      21.083   3.288  52.776  1.00  0.00    -0.381 OA
BRANCH  16  17
HETATM   17  C13 UNL     1      20.430   2.207  52.191  1.00  0.00     0.206 C 
BRANCH  17  18
HETATM   18  C14 UNL     1      20.962   0.937  52.821  1.00  0.00    -0.035 A 
HETATM   19  C15 UNL     1      20.771   0.832  54.197  1.00  0.00     0.009 A 
HETATM   20  C16 UNL     1      21.232  -0.297  54.843  1.00  0.00     0.001 A 
HETATM   21  C17 UNL     1      21.872  -1.322  54.178  1.00  0.00     0.000 A 
HETATM   22  C18 UNL     1      22.046  -1.187  52.810  1.00  0.00     0.001 A 
HETATM   23  C19 UNL     1      21.598  -0.069  52.125  1.00  0.00     0.009 A 
ENDBRANCH  17  18
ENDBRANCH  16  17
ENDBRANCH  15  16
ENDBRANCH   2  15
TORSDOF 6
ENDMDL
MODEL 4
REMARK VINA RESULT:      -7.2      2.841      5.883
REMARK  6 active torsions:
REMARK  status: ('A' for Active; 'I' for Inactive)
REMARK    1  A    between atoms: C1_2  and  C12_15 
REMARK    2  A    between atoms: C2_3  and  C3_4 
REMARK    3  A    between atoms: C3_4  and  N1_5 
REMARK    4  A    between atoms: C12_15  and  O1_16 
REMARK    5  A    between atoms: O1_16  and  C13_17 
REMARK    6  A    between atoms: C13_17  and  C14_18 
ROOT
HETATM    1 CL1  UNL     1      24.414   5.924  48.735  1.00  0.00    -0.087 Cl
HETATM    2  C1  UNL     1      24.164   4.717  50.027  1.00  0.00     0.033 C 
HETATM    3  C2  UNL     1      23.078   4.811  50.837  1.00  0.00     0.024 C 
ENDROOT
BRANCH   3   4
HETATM    4  C3  UNL     1      22.250   4.338  51.943  1.00  0.00     0.301 C 
BRANCH   4   5
HETATM    5  N1  UNL     1      21.865   2.934  51.781  1.00  0.00     0.092 N 
HETATM    6  C4  UNL     1      20.506   2.823  52.426  1.00  0.00     0.280 C 
HETATM    7  C5  UNL     1      20.055   1.425  52.248  1.00  0.00     0.049 C 
HETATM    8  C6  UNL     1      19.715   0.173  52.632  1.00  0.00     0.139 C 
HETATM    9  N2  UNL     1      19.499  -0.893  53.570  1.00  0.00    -0.294 NA
HETATM   10  C7  UNL     1      20.649  -1.342  54.114  1.00  0.00     0.110 C 
HETATM   11  C8  UNL     1      22.092  -1.039  54.008  1.00  0.00     0.015 C 
HETATM   12  C9  UNL     1      23.003  -0.287  53.351  1.00  0.00    -0.024 C 
HETATM   13  C10 UNL     1      22.597   0.654  52.277  1.00  0.00     0.057 C 
HETATM   14  C11 UNL     1      22.747   2.076  52.617  1.00  0.00     0.276 C 
ENDBRANCH   4   5
ENDBRANCH   3   4
BRANCH   2  15
HETATM   15  C12 UNL     1      25.360   3.850  49.854  1.00  0.00     0.219 C 
BRANCH  15  16
HETATM   16  O1  UNL     1      25.423   2.851  50.795  1.00  0.00    -0.381 OA
BRANCH  16  17
HETATM   17  C13 UNL     1      26.713   2.462  51.146  1.00  0.00     0.206 C 
BRANCH  17  18
HETATM   18  C14 UNL     1      26.611   1.447  52.265  1.00  0.00    -0.035 A 
HETATM   19  C15 UNL     1      26.686   0.114  51.866  1.00  0.00     0.009 A 
HETATM   20  C16 UNL     1      26.597  -0.869  52.831  1.00  0.00     0.001 A 
HETATM   21  C17 UNL     1      26.439  -0.580  54.170  1.00  0.00     0.000 A 
HETATM   22  C18 UNL     1      26.368   0.754  54.534  1.00  0.00     0.001 A 
HETATM   23  C19 UNL     1      26.452   1.770  53.596  1.00  0.00     0.009 A 
ENDBRANCH  17  18
ENDBRANCH  16  17
ENDBRANCH  15  16
ENDBRANCH   2  15
TORSDOF 6
ENDMDL
MODEL 5
REMARK VINA RESULT:      -7.2      2.449      6.066
REMARK  6 active torsions:
REMARK  status: ('A' for Active; 'I' for Inactive)
REMARK    1  A    between atoms: C1_2  and  C12_15 
REMARK    2  A    between atoms: C2_3  and  C3_4 
REMARK    3  A    between atoms: C3_4  and  N1_5 
REMARK    4  A    between atoms: C12_15  and  O1_16 
REMARK    5  A    between atoms: O1_16  and  C13_17 
REMARK    6  A    between atoms: C13_17  and  C14_18 
ROOT
HETATM    1 CL1  UNL     1      21.596   0.043  53.113  1.00  0.00    -0.087 Cl
HETATM    2  C1  UNL     1      22.775   1.171  52.386  1.00  0.00     0.033 C 
HETATM    3  C2  UNL     1      22.476   1.802  51.221  1.00  0.00     0.024 C 
ENDROOT
BRANCH   3   4
HETATM    4  C3  UNL     1      22.800   2.718  50.132  1.00  0.00     0.301 C 
BRANCH   4   5
HETATM    5  N1  UNL     1      23.909   3.612  50.475  1.00  0.00     0.092 N 
HETATM    6  C4  UNL     1      23.394   5.001  50.195  1.00  0.00     0.280 C 
HETATM    7  C5  UNL     1      24.472   5.945  50.570  1.00  0.00     0.049 C 
HETATM    8  C6  UNL     1      25.436   6.872  50.365  1.00  0.00     0.139 C 
HETATM    9  N2  UNL     1      26.258   7.750  49.580  1.00  0.00    -0.294 NA
HETATM   10  C7  UNL     1      27.129   7.079  48.798  1.00  0.00     0.110 C 
HETATM   11  C8  UNL     1      27.480   5.670  48.523  1.00  0.00     0.015 C 
HETATM   12  C9  UNL     1      27.224   4.392  48.883  1.00  0.00    -0.024 C 
HETATM   13  C10 UNL     1      26.255   4.074  49.962  1.00  0.00     0.057 C 
HETATM   14  C11 UNL     1      25.020   3.421  49.504  1.00  0.00     0.276 C 
ENDBRANCH   4   5
ENDBRANCH   3   4
BRANCH   2  15
HETATM   15  C12 UNL     1      23.899   1.085  53.356  1.00  0.00     0.219 C 
BRANCH  15  16
HETATM   16  O1  UNL     1      24.770   0.066  53.058  1.00  0.00    -0.381 OA
BRANCH  16  17
HETATM   17  C13 UNL     1      25.755   0.394  52.131  1.00  0.00     0.206 C 
BRANCH  17  18
HETATM   18  C14 UNL     1      26.995   0.820  52.889  1.00  0.00    -0.035 A 
HETATM   19  C15 UNL     1      27.619  -0.189  53.620  1.00  0.00     0.009 A 
HETATM   20  C16 UNL     1      28.754   0.124  54.340  1.00  0.00     0.001 A 
HETATM   21  C17 UNL     1      29.291   1.394  54.362  1.00  0.00     0.000 A 
HETATM   22  C18 UNL     1      28.647   2.374  53.624  1.00  0.00     0.001 A 
HETATM   23  C19 UNL     1      27.506   2.101  52.889  1.00  0.00     0.009 A 
ENDBRANCH  17  18
ENDBRANCH  16  17
ENDBRANCH  15  16
ENDBRANCH   2  15
TORSDOF 6
ENDMDL
MODEL 6
REMARK VINA RESULT:      -7.1      2.154      4.601
REMARK  6 active torsions:
REMARK  status: ('A' for Active; 'I' for Inactive)
REMARK    1  A    between atoms: C1_2  and  C12_15 
REMARK    2  A    between atoms: C2_3  and  C3_4 
REMARK    3  A    between atoms: C3_4  and  N1_5 
REMARK    4  A    between atoms: C12_15  and  O1_16 
REMARK    5  A    between atoms: O1_16  and  C13_17 
REMARK    6  A    between atoms: C13_17  and  C14_18 
ROOT
HETATM    1 CL1  UNL     1      24.084   6.124  48.480  1.00  0.00    -0.087 Cl
HETATM    2  C1  UNL     1      24.573   5.154  49.898  1.00  0.00     0.033 C 
HETATM    3  C2  UNL     1      25.525   4.196  49.765  1.00  0.00     0.024 C 
ENDROOT
BRANCH   3   4
HETATM    4  C3  UNL     1      26.370   3.135  50.305  1.00  0.00     0.301 C 
BRANCH   4   5
HETATM    5  N1  UNL     1      25.993   2.771  51.673  1.00  0.00     0.092 N 
HETATM    6  C4  UNL     1      27.141   1.941  52.189  1.00  0.00     0.280 C 
HETATM    7  C5  UNL     1      26.821   1.585  53.590  1.00  0.00     0.049 C 
HETATM    8  C6  UNL     1      26.505   0.769  54.621  1.00  0.00     0.139 C 
HETATM    9  N2  UNL     1      26.201  -0.488  55.246  1.00  0.00    -0.294 NA
HETATM   10  C7  UNL     1      25.006  -0.982  54.858  1.00  0.00     0.110 C 
HETATM   11  C8  UNL     1      23.906  -0.580  53.955  1.00  0.00     0.015 C 
HETATM   12  C9  UNL     1      23.467   0.408  53.145  1.00  0.00    -0.024 C 
HETATM   13  C10 UNL     1      24.240   1.663  52.969  1.00  0.00     0.057 C 
HETATM   14  C11 UNL     1      24.838   1.834  51.637  1.00  0.00     0.276 C 
ENDBRANCH   4   5
ENDBRANCH   3   4
BRANCH   2  15
HETATM   15  C12 UNL     1      23.687   5.714  50.954  1.00  0.00     0.219 C 
BRANCH  15  16
HETATM   16  O1  UNL     1      23.065   4.734  51.688  1.00  0.00    -0.381 OA
BRANCH  16  17
HETATM   17  C13 UNL     1      21.675   4.736  51.602  1.00  0.00     0.206 C 
BRANCH  17  18
HETATM   18  C14 UNL     1      21.207   3.300  51.482  1.00  0.00    -0.035 A 
HETATM   19  C15 UNL     1      21.642   2.628  50.342  1.00  0.00     0.009 A 
HETATM   20  C16 UNL     1      21.253   1.316  50.161  1.00  0.00     0.001 A 
HETATM   21  C17 UNL     1      20.454   0.649  51.066  1.00  0.00     0.000 A 
HETATM   22  C18 UNL     1      20.038   1.346  52.189  1.00  0.00     0.001 A 
HETATM   23  C19 UNL     1      20.407   2.663  52.406  1.00  0.00     0.009 A 
ENDBRANCH  17  18
ENDBRANCH  16  17
ENDBRANCH  15  16
ENDBRANCH   2  15
TORSDOF 6
ENDMDL
MODEL 7
REMARK VINA RESULT:      -6.9      2.633      6.162
REMARK  6 active torsions:
REMARK  status: ('A' for Active; 'I' for Inactive)
REMARK    1  A    between atoms: C1_2  and  C12_15 
REMARK    2  A    between atoms: C2_3  and  C3_4 
REMARK    3  A    between atoms: C3_4  and  N1_5 
REMARK    4  A    between atoms: C12_15  and  O1_16 
REMARK    5  A    between atoms: O1_16  and  C13_17 
REMARK    6  A    between atoms: C13_17  and  C14_18 
ROOT
HETATM    1 CL1  UNL     1      21.371   0.745  53.689  1.00  0.00    -0.087 Cl
HETATM    2  C1  UNL     1      22.480   1.690  52.655  1.00  0.00     0.033 C 
HETATM    3  C2  UNL     1      22.296   3.028  52.514  1.00  0.00     0.024 C 
ENDROOT
BRANCH   3   4
HETATM    4  C3  UNL     1      22.666   4.329  51.965  1.00  0.00     0.301 C 
BRANCH   4   5
HETATM    5  N1  UNL     1      23.514   4.205  50.777  1.00  0.00     0.092 N 
HETATM    6  C4  UNL     1      24.871   3.809  51.303  1.00  0.00     0.280 C 
HETATM    7  C5  UNL     1      25.755   3.630  50.129  1.00  0.00     0.049 C 
HETATM    8  C6  UNL     1      26.783   3.910  49.297  1.00  0.00     0.139 C 
HETATM    9  N2  UNL     1      27.927   4.646  48.835  1.00  0.00    -0.294 NA
HETATM   10  C7  UNL     1      27.602   5.879  48.391  1.00  0.00     0.110 C 
HETATM   11  C8  UNL     1      26.376   6.692  48.243  1.00  0.00     0.015 C 
HETATM   12  C9  UNL     1      25.032   6.673  48.381  1.00  0.00    -0.024 C 
HETATM   13  C10 UNL     1      24.319   5.451  48.833  1.00  0.00     0.057 C 
HETATM   14  C11 UNL     1      23.723   5.548  50.174  1.00  0.00     0.276 C 
ENDBRANCH   4   5
ENDBRANCH   3   4
BRANCH   2  15
HETATM   15  C12 UNL     1      23.395   0.627  52.159  1.00  0.00     0.219 C 
BRANCH  15  16
HETATM   16  O1  UNL     1      24.637   0.692  52.741  1.00  0.00    -0.381 OA
BRANCH  16  17
HETATM   17  C13 UNL     1      24.927  -0.353  53.613  1.00  0.00     0.206 C 
BRANCH  17  18
HETATM   18  C14 UNL     1      26.433  -0.476  53.719  1.00  0.00    -0.035 A 
HETATM   19  C15 UNL     1      27.021   0.284  54.727  1.00  0.00     0.009 A 
HETATM   20  C16 UNL     1      28.391   0.227  54.883  1.00  0.00     0.001 A 
HETATM   21  C17 UNL     1      29.196  -0.554  54.079  1.00  0.00     0.000 A 
HETATM   22  C18 UNL     1      28.580  -1.298  53.086  1.00  0.00     0.001 A 
HETATM   23  C19 UNL     1      27.208  -1.267  52.898  1.00  0.00     0.009 A 
ENDBRANCH  17  18
ENDBRANCH  16  17
ENDBRANCH  15  16
ENDBRANCH   2  15
TORSDOF 6
ENDMDL
MODEL 8
REMARK VINA RESULT:      -6.9      3.205      7.061
REMARK  6 active torsions:
REMARK  status: ('A' for Active; 'I' for Inactive)
REMARK    1  A    between atoms: C1_2  and  C12_15 
REMARK    2  A    between atoms: C2_3  and  C3_4 
REMARK    3  A    between atoms: C3_4  and  N1_5 
REMARK    4  A    between atoms: C12_15  and  O1_16 
REMARK    5  A    between atoms: O1_16  and  C13_17 
REMARK    6  A    between atoms: C13_17  and  C14_18 
ROOT
HETATM    1 CL1  UNL     1      23.118   4.627  52.848  1.00  0.00    -0.087 Cl
HETATM    2  C1  UNL     1      24.270   3.575  51.977  1.00  0.00     0.033 C 
HETATM    3  C2  UNL     1      24.719   3.937  50.748  1.00  0.00     0.024 C 
ENDROOT
BRANCH   3   4
HETATM    4  C3  UNL     1      25.527   3.711  49.553  1.00  0.00     0.301 C 
BRANCH   4   5
HETATM    5  N1  UNL     1      25.960   4.967  48.936  1.00  0.00     0.092 N 
HETATM    6  C4  UNL     1      27.463   4.868  48.860  1.00  0.00     0.280 C 
HETATM    7  C5  UNL     1      27.945   6.103  48.200  1.00  0.00     0.049 C 
HETATM    8  C6  UNL     1      28.583   7.292  48.108  1.00  0.00     0.139 C 
HETATM    9  N2  UNL     1      29.356   8.400  48.594  1.00  0.00    -0.294 NA
HETATM   10  C7  UNL     1      28.678   9.152  49.486  1.00  0.00     0.110 C 
HETATM   11  C8  UNL     1      27.337   9.153  50.108  1.00  0.00     0.015 C 
HETATM   12  C9  UNL     1      26.136   8.533  50.112  1.00  0.00    -0.024 C 
HETATM   13  C10 UNL     1      25.852   7.395  49.202  1.00  0.00     0.057 C 
HETATM   14  C11 UNL     1      25.706   6.095  49.872  1.00  0.00     0.276 C 
ENDBRANCH   4   5
ENDBRANCH   3   4
BRANCH   2  15
HETATM   15  C12 UNL     1      24.423   2.450  52.939  1.00  0.00     0.219 C 
BRANCH  15  16
HETATM   16  O1  UNL     1      25.017   1.351  52.368  1.00  0.00    -0.381 OA
BRANCH  16  17
HETATM   17  C13 UNL     1      25.061   0.223  53.183  1.00  0.00     0.206 C 
BRANCH  17  18
HETATM   18  C14 UNL     1      26.509  -0.057  53.524  1.00  0.00    -0.035 A 
HETATM   19  C15 UNL     1      27.107  -1.073  52.781  1.00  0.00     0.009 A 
HETATM   20  C16 UNL     1      28.426  -1.389  53.037  1.00  0.00     0.001 A 
HETATM   21  C17 UNL     1      29.171  -0.736  53.998  1.00  0.00     0.000 A 
HETATM   22  C18 UNL     1      28.547   0.269  54.719  1.00  0.00     0.001 A 
HETATM   23  C19 UNL     1      27.225   0.615  54.492  1.00  0.00     0.009 A 
ENDBRANCH  17  18
ENDBRANCH  16  17
ENDBRANCH  15  16
ENDBRANCH   2  15
TORSDOF 6
ENDMDL
MODEL 9
REMARK VINA RESULT:      -6.8      1.866      3.986
REMARK  6 active torsions:
REMARK  status: ('A' for Active; 'I' for Inactive)
REMARK    1  A    between atoms: C1_2  and  C12_15 
REMARK    2  A    between atoms: C2_3  and  C3_4 
REMARK    3  A    between atoms: C3_4  and  N1_5 
REMARK    4  A    between atoms: C12_15  and  O1_16 
REMARK    5  A    between atoms: O1_16  and  C13_17 
REMARK    6  A    between atoms: C13_17  and  C14_18 
ROOT
HETATM    1 CL1  UNL     1      26.743   3.528  49.351  1.00  0.00    -0.087 Cl
HETATM    2  C1  UNL     1      25.358   3.698  50.467  1.00  0.00     0.033 C 
HETATM    3  C2  UNL     1      25.245   2.865  51.533  1.00  0.00     0.024 C 
ENDROOT
BRANCH   3   4
HETATM    4  C3  UNL     1      24.558   2.392  52.732  1.00  0.00     0.301 C 
BRANCH   4   5
HETATM    5  N1  UNL     1      25.346   1.395  53.461  1.00  0.00     0.092 N 
HETATM    6  C4  UNL     1      26.730   1.984  53.560  1.00  0.00     0.280 C 
HETATM    7  C5  UNL     1      27.554   1.026  54.331  1.00  0.00     0.049 C 
HETATM    8  C6  UNL     1      28.537   0.121  54.535  1.00  0.00     0.139 C 
HETATM    9  N2  UNL     1      29.651  -0.706  54.160  1.00  0.00    -0.294 NA
HETATM   10  C7  UNL     1      29.295  -1.701  53.320  1.00  0.00     0.110 C 
HETATM   11  C8  UNL     1      28.058  -2.185  52.672  1.00  0.00     0.015 C 
HETATM   12  C9  UNL     1      26.723  -1.993  52.591  1.00  0.00    -0.024 C 
HETATM   13  C10 UNL     1      26.043  -0.948  53.397  1.00  0.00     0.057 C 
HETATM   14  C11 UNL     1      25.515   0.181  52.617  1.00  0.00     0.276 C 
ENDBRANCH   4   5
ENDBRANCH   3   4
BRANCH   2  15
HETATM   15  C12 UNL     1      24.612   4.821  49.839  1.00  0.00     0.219 C 
BRANCH  15  16
HETATM   16  O1  UNL     1      23.317   4.904  50.287  1.00  0.00    -0.381 OA
BRANCH  16  17
HETATM   17  C13 UNL     1      22.373   4.307  49.456  1.00  0.00     0.206 C 
BRANCH  17  18
HETATM   18  C14 UNL     1      21.873   3.049  50.135  1.00  0.00    -0.035 A 
HETATM   19  C15 UNL     1      21.179   3.254  51.326  1.00  0.00     0.009 A 
HETATM   20  C16 UNL     1      20.696   2.154  52.005  1.00  0.00     0.001 A 
HETATM   21  C17 UNL     1      20.874   0.864  51.548  1.00  0.00     0.000 A 
HETATM   22  C18 UNL     1      21.568   0.695  50.362  1.00  0.00     0.001 A 
HETATM   23  C19 UNL     1      22.069   1.773  49.651  1.00  0.00     0.009 A 
ENDBRANCH  17  18
ENDBRANCH  16  17
ENDBRANCH  15  16
ENDBRANCH   2  15
TORSDOF 6
ENDMDL
