MODEL 1
REMARK VINA RESULT:      -8.0      0.000      0.000
REMARK  5 active torsions:
REMARK  status: ('A' for Active; 'I' for Inactive)
REMARK    1  A    between atoms: O1_2  and  C2_3 
REMARK    2  A    between atoms: C5_6  and  O2_7 
REMARK    3  A    between atoms: C7_9  and  C8_10 
REMARK    4  A    between atoms: C11_13  and  N1_14 
REMARK    5  A    between atoms: N1_14  and  C12_15 
ROOT
HETATM    1  C8  UNL     1      22.130   2.247  51.486  1.00  0.00     0.014 C 
HETATM    2  C9  UNL     1      23.407   2.323  51.721  1.00  0.00     0.033 C 
HETATM    3  C10 UNL     1      24.443   2.607  50.717  1.00  0.00     0.079 C 
HETATM    4  C11 UNL     1      25.758   2.725  50.851  1.00  0.00     0.130 C 
HETATM    5  N2  UNL     1      26.910   2.747  51.665  1.00  0.00    -0.235 NA
HETATM    6  C18 UNL     1      27.454   1.810  52.328  1.00  0.00     0.188 C 
HETATM    7  S1  UNL     1      27.118   0.042  52.612  1.00  0.00     0.019 SA
HETATM    8  N3  UNL     1      25.323  -0.015  52.670  1.00  0.00    -0.206 NA
HETATM    9  C19 UNL     1      24.717   1.091  52.907  1.00  0.00     0.216 C 
HETATM   10  N4  UNL     1      23.678   2.037  53.127  1.00  0.00    -0.350 N 
HETATM   11  H19 UNL     1      23.262   2.388  53.991  1.00  0.00     0.166 HD
ENDROOT
BRANCH   1  12
HETATM   12  C7  UNL     1      20.995   1.976  52.388  1.00  0.00     0.073 A 
HETATM   13  C5  UNL     1      20.720   0.544  52.631  1.00  0.00     0.054 A 
HETATM   14  C4  UNL     1      19.607  -0.191  52.424  1.00  0.00     0.035 A 
HETATM   15  C3  UNL     1      18.425   0.501  51.858  1.00  0.00     0.035 A 
HETATM   16  C2  UNL     1      18.617   1.781  51.619  1.00  0.00     0.046 A 
HETATM   17  C20 UNL     1      19.774   2.673  51.799  1.00  0.00     0.079 A 
BRANCH  13  18
HETATM   18  O2  UNL     1      21.560  -0.431  53.147  1.00  0.00    -0.360 OA
HETATM   19  C6  UNL     1      21.538  -0.666  54.538  1.00  0.00     0.209 C 
ENDBRANCH  13  18
BRANCH  16  20
HETATM   20  O1  UNL     1      17.567   2.549  51.082  1.00  0.00    -0.360 OA
HETATM   21  C1  UNL     1      17.580   3.954  51.251  1.00  0.00     0.209 C 
ENDBRANCH  16  20
ENDBRANCH   1  12
BRANCH   4  22
HETATM   22  N1  UNL     1      26.462   3.006  49.628  1.00  0.00    -0.341 N 
HETATM   23  H12 UNL     1      26.908   2.502  48.840  1.00  0.00     0.167 HD
BRANCH  22  24
HETATM   24  C12 UNL     1      26.613   4.391  49.357  1.00  0.00     0.034 A 
HETATM   25  C13 UNL     1      27.748   4.760  48.627  1.00  0.00     0.029 A 
HETATM   26  C14 UNL     1      28.002   6.073  48.293  1.00  0.00     0.004 A 
HETATM   27  C15 UNL     1      27.134   7.084  48.669  1.00  0.00     0.019 A 
HETATM   28  C16 UNL     1      25.999   6.735  49.396  1.00  0.00     0.013 A 
HETATM   29 BR1  UNL     1      24.716   8.023  49.973  1.00  0.00    -0.051 Br
HETATM   30  C17 UNL     1      25.777   5.422  49.713  1.00  0.00     0.048 A 
ENDBRANCH  22  24
ENDBRANCH   4  22
TORSDOF 5
ENDMDL
MODEL 2
REMARK VINA RESULT:      -7.9      3.327      5.629
REMARK  5 active torsions:
REMARK  status: ('A' for Active; 'I' for Inactive)
REMARK    1  A    between atoms: O1_2  and  C2_3 
REMARK    2  A    between atoms: C5_6  and  O2_7 
REMARK    3  A    between atoms: C7_9  and  C8_10 
REMARK    4  A    between atoms: C11_13  and  N1_14 
REMARK    5  A    between atoms: N1_14  and  C12_15 
ROOT
HETATM    1  C8  UNL     1      23.610   1.911  52.828  1.00  0.00     0.014 C 
HETATM    2  C9  UNL     1      22.793   2.572  52.064  1.00  0.00     0.033 C 
HETATM    3  C10 UNL     1      22.619   4.032  52.062  1.00  0.00     0.079 C 
HETATM    4  C11 UNL     1      21.835   4.803  51.318  1.00  0.00     0.130 C 
HETATM    5  N2  UNL     1      20.896   4.952  50.276  1.00  0.00    -0.235 NA
HETATM    6  C18 UNL     1      19.692   4.557  50.204  1.00  0.00     0.188 C 
HETATM    7  S1  UNL     1      18.548   3.644  51.290  1.00  0.00     0.019 SA
HETATM    8  N3  UNL     1      19.627   2.449  52.086  1.00  0.00    -0.206 NA
HETATM    9  C19 UNL     1      20.745   2.203  51.506  1.00  0.00     0.216 C 
HETATM   10  N4  UNL     1      22.026   1.650  51.231  1.00  0.00    -0.350 N 
HETATM   11  H19 UNL     1      22.304   0.861  50.645  1.00  0.00     0.166 HD
ENDROOT
BRANCH   1  12
HETATM   12  C7  UNL     1      23.884   0.465  52.930  1.00  0.00     0.073 A 
HETATM   13  C5  UNL     1      22.928  -0.293  53.765  1.00  0.00     0.054 A 
HETATM   14  C4  UNL     1      23.122  -1.062  54.857  1.00  0.00     0.035 A 
HETATM   15  C3  UNL     1      24.511  -1.209  55.353  1.00  0.00     0.035 A 
HETATM   16  C2  UNL     1      25.405  -0.550  54.646  1.00  0.00     0.046 A 
HETATM   17  C20 UNL     1      25.307   0.311  53.456  1.00  0.00     0.079 A 
BRANCH  13  18
HETATM   18  O2  UNL     1      21.553  -0.408  53.631  1.00  0.00    -0.360 OA
HETATM   19  C6  UNL     1      20.733   0.161  54.629  1.00  0.00     0.209 C 
ENDBRANCH  13  18
BRANCH  16  20
HETATM   20  O1  UNL     1      26.761  -0.612  55.016  1.00  0.00    -0.360 OA
HETATM   21  C1  UNL     1      27.664   0.349  54.502  1.00  0.00     0.209 C 
ENDBRANCH  16  20
ENDBRANCH   1  12
BRANCH   4  22
HETATM   22  N1  UNL     1      21.930   6.209  51.605  1.00  0.00    -0.341 N 
HETATM   23  H12 UNL     1      21.601   6.895  52.309  1.00  0.00     0.167 HD
BRANCH  22  24
HETATM   24  C12 UNL     1      22.719   6.933  50.673  1.00  0.00     0.034 A 
HETATM   25  C13 UNL     1      22.112   8.044  50.078  1.00  0.00     0.029 A 
HETATM   26  C14 UNL     1      22.779   8.833  49.165  1.00  0.00     0.004 A 
HETATM   27  C15 UNL     1      24.085   8.554  48.802  1.00  0.00     0.019 A 
HETATM   28  C16 UNL     1      24.704   7.452  49.384  1.00  0.00     0.013 A 
HETATM   29 BR1  UNL     1      26.502   6.956  48.982  1.00  0.00    -0.051 Br
HETATM   30  C17 UNL     1      24.015   6.688  50.287  1.00  0.00     0.048 A 
ENDBRANCH  22  24
ENDBRANCH   4  22
TORSDOF 5
ENDMDL
MODEL 3
REMARK VINA RESULT:      -7.8      4.554      9.062
REMARK  5 active torsions:
REMARK  status: ('A' for Active; 'I' for Inactive)
REMARK    1  A    between atoms: O1_2  and  C2_3 
REMARK    2  A    between atoms: C5_6  and  O2_7 
REMARK    3  A    between atoms: C7_9  and  C8_10 
REMARK    4  A    between atoms: C11_13  and  N1_14 
REMARK    5  A    between atoms: N1_14  and  C12_15 
ROOT
HETATM    1  C8  UNL     1      26.784   5.788  48.737  1.00  0.00     0.014 C 
HETATM    2  C9  UNL     1      25.864   5.532  49.620  1.00  0.00     0.033 C 
HETATM    3  C10 UNL     1      25.108   4.275  49.723  1.00  0.00     0.079 C 
HETATM    4  C11 UNL     1      24.171   3.905  50.587  1.00  0.00     0.130 C 
HETATM    5  N2  UNL     1      23.386   4.167  51.730  1.00  0.00    -0.235 NA
HETATM    6  C18 UNL     1      22.467   5.026  51.904  1.00  0.00     0.188 C 
HETATM    7  S1  UNL     1      21.679   6.322  50.894  1.00  0.00     0.019 SA
HETATM    8  N3  UNL     1      23.050   6.956  49.922  1.00  0.00    -0.206 NA
HETATM    9  C19 UNL     1      24.231   6.721  50.367  1.00  0.00     0.216 C 
HETATM   10  N4  UNL     1      25.649   6.696  50.474  1.00  0.00    -0.350 N 
HETATM   11  H19 UNL     1      26.294   7.303  50.982  1.00  0.00     0.166 HD
ENDROOT
BRANCH   1  12
HETATM   12  C7  UNL     1      27.613   6.990  48.525  1.00  0.00     0.073 A 
HETATM   13  C5  UNL     1      27.149   7.883  47.443  1.00  0.00     0.054 A 
HETATM   14  C4  UNL     1      27.770   8.320  46.327  1.00  0.00     0.035 A 
HETATM   15  C3  UNL     1      29.158   7.856  46.091  1.00  0.00     0.035 A 
HETATM   16  C2  UNL     1      29.621   7.053  47.025  1.00  0.00     0.046 A 
HETATM   17  C20 UNL     1      29.038   6.514  48.265  1.00  0.00     0.079 A 
BRANCH  13  18
HETATM   18  O2  UNL     1      25.924   8.517  47.299  1.00  0.00    -0.360 OA
HETATM   19  C6  UNL     1      25.606   9.569  48.184  1.00  0.00     0.209 C 
ENDBRANCH  13  18
BRANCH  16  20
HETATM   20  O1  UNL     1      30.929   6.546  46.915  1.00  0.00    -0.360 OA
HETATM   21  C1  UNL     1      31.341   5.499  47.774  1.00  0.00     0.209 C 
ENDBRANCH  16  20
ENDBRANCH   1  12
BRANCH   4  22
HETATM   22  N1  UNL     1      23.646   2.584  50.373  1.00  0.00    -0.341 N 
HETATM   23  H12 UNL     1      23.063   2.067  49.688  1.00  0.00     0.167 HD
BRANCH  22  24
HETATM   24  C12 UNL     1      24.018   1.648  51.373  1.00  0.00     0.034 A 
HETATM   25  C13 UNL     1      22.970   1.007  52.044  1.00  0.00     0.029 A 
HETATM   26  C14 UNL     1      23.203   0.071  53.029  1.00  0.00     0.004 A 
HETATM   27  C15 UNL     1      24.493  -0.274  53.392  1.00  0.00     0.019 A 
HETATM   28  C16 UNL     1      25.549   0.354  52.735  1.00  0.00     0.013 A 
HETATM   29 BR1  UNL     1      27.375  -0.030  53.130  1.00  0.00    -0.051 Br
HETATM   30  C17 UNL     1      25.284   1.280  51.763  1.00  0.00     0.048 A 
ENDBRANCH  22  24
ENDBRANCH   4  22
TORSDOF 5
ENDMDL
MODEL 4
REMARK VINA RESULT:      -7.5      5.357     10.086
REMARK  5 active torsions:
REMARK  status: ('A' for Active; 'I' for Inactive)
REMARK    1  A    between atoms: O1_2  and  C2_3 
REMARK    2  A    between atoms: C5_6  and  O2_7 
REMARK    3  A    between atoms: C7_9  and  C8_10 
REMARK    4  A    between atoms: C11_13  and  N1_14 
REMARK    5  A    between atoms: N1_14  and  C12_15 
ROOT
HETATM    1  C8  UNL     1      29.018   5.868  48.044  1.00  0.00     0.014 C 
HETATM    2  C9  UNL     1      27.922   6.017  48.725  1.00  0.00     0.033 C 
HETATM    3  C10 UNL     1      26.845   5.021  48.836  1.00  0.00     0.079 C 
HETATM    4  C11 UNL     1      25.704   5.062  49.513  1.00  0.00     0.130 C 
HETATM    5  N2  UNL     1      24.829   5.723  50.400  1.00  0.00    -0.235 NA
HETATM    6  C18 UNL     1      24.164   6.793  50.240  1.00  0.00     0.188 C 
HETATM    7  S1  UNL     1      23.953   8.014  48.903  1.00  0.00     0.019 SA
HETATM    8  N3  UNL     1      25.596   8.099  48.182  1.00  0.00    -0.206 NA
HETATM    9  C19 UNL     1      26.569   7.683  48.909  1.00  0.00     0.216 C 
HETATM   10  N4  UNL     1      27.883   7.343  49.333  1.00  0.00    -0.350 N 
HETATM   11  H19 UNL     1      28.568   7.868  49.880  1.00  0.00     0.166 HD
ENDROOT
BRANCH   1  12
HETATM   12  C7  UNL     1      30.168   6.772  47.852  1.00  0.00     0.073 A 
HETATM   13  C5  UNL     1      30.035   7.717  46.723  1.00  0.00     0.054 A 
HETATM   14  C4  UNL     1      30.811   7.912  45.635  1.00  0.00     0.035 A 
HETATM   15  C3  UNL     1      32.016   7.061  45.493  1.00  0.00     0.035 A 
HETATM   16  C2  UNL     1      32.181   6.197  46.472  1.00  0.00     0.046 A 
HETATM   17  C20 UNL     1      31.407   5.898  47.688  1.00  0.00     0.079 A 
BRANCH  13  18
HETATM   18  O2  UNL     1      29.054   8.669  46.492  1.00  0.00    -0.360 OA
HETATM   19  C6  UNL     1      28.171   8.471  45.409  1.00  0.00     0.209 C 
ENDBRANCH  13  18
BRANCH  16  20
HETATM   20  O1  UNL     1      33.291   5.332  46.451  1.00  0.00    -0.360 OA
HETATM   21  C1  UNL     1      33.371   4.285  47.400  1.00  0.00     0.209 C 
ENDBRANCH  16  20
ENDBRANCH   1  12
BRANCH   4  22
HETATM   22  N1  UNL     1      24.884   3.888  49.379  1.00  0.00    -0.341 N 
HETATM   23  H12 UNL     1      24.166   3.495  48.743  1.00  0.00     0.167 HD
BRANCH  22  24
HETATM   24  C12 UNL     1      25.089   2.924  50.401  1.00  0.00     0.034 A 
HETATM   25  C13 UNL     1      26.419   2.597  50.687  1.00  0.00     0.029 A 
HETATM   26  C14 UNL     1      26.747   1.682  51.665  1.00  0.00     0.004 A 
HETATM   27  C15 UNL     1      25.765   1.050  52.407  1.00  0.00     0.019 A 
HETATM   28  C16 UNL     1      24.436   1.363  52.135  1.00  0.00     0.013 A 
HETATM   29 BR1  UNL     1      22.982   0.573  53.085  1.00  0.00    -0.051 Br
HETATM   30  C17 UNL     1      24.143   2.275  51.157  1.00  0.00     0.048 A 
ENDBRANCH  22  24
ENDBRANCH   4  22
TORSDOF 5
ENDMDL
MODEL 5
REMARK VINA RESULT:      -7.4      4.212      8.456
REMARK  5 active torsions:
REMARK  status: ('A' for Active; 'I' for Inactive)
REMARK    1  A    between atoms: O1_2  and  C2_3 
REMARK    2  A    between atoms: C5_6  and  O2_7 
REMARK    3  A    between atoms: C7_9  and  C8_10 
REMARK    4  A    between atoms: C11_13  and  N1_14 
REMARK    5  A    between atoms: N1_14  and  C12_15 
ROOT
HETATM    1  C8  UNL     1      23.164   1.028  51.794  1.00  0.00     0.014 C 
HETATM    2  C9  UNL     1      22.145   1.784  51.513  1.00  0.00     0.033 C 
HETATM    3  C10 UNL     1      21.002   1.396  50.672  1.00  0.00     0.079 C 
HETATM    4  C11 UNL     1      19.912   2.075  50.338  1.00  0.00     0.130 C 
HETATM    5  N2  UNL     1      19.112   3.234  50.435  1.00  0.00    -0.235 NA
HETATM    6  C18 UNL     1      19.337   4.414  50.023  1.00  0.00     0.188 C 
HETATM    7  S1  UNL     1      20.694   5.255  49.144  1.00  0.00     0.019 SA
HETATM    8  N3  UNL     1      22.157   4.463  49.821  1.00  0.00    -0.206 NA
HETATM    9  C19 UNL     1      22.019   3.858  50.945  1.00  0.00     0.216 C 
HETATM   10  N4  UNL     1      22.315   3.103  52.113  1.00  0.00    -0.350 N 
HETATM   11  H19 UNL     1      22.569   3.400  53.057  1.00  0.00     0.166 HD
ENDROOT
BRANCH   1  12
HETATM   12  C7  UNL     1      24.361   1.285  52.617  1.00  0.00     0.073 A 
HETATM   13  C5  UNL     1      25.454   1.997  51.920  1.00  0.00     0.054 A 
HETATM   14  C4  UNL     1      26.741   1.651  51.707  1.00  0.00     0.035 A 
HETATM   15  C3  UNL     1      27.196   0.344  52.238  1.00  0.00     0.035 A 
HETATM   16  C2  UNL     1      26.259  -0.335  52.866  1.00  0.00     0.046 A 
HETATM   17  C20 UNL     1      24.841  -0.060  53.150  1.00  0.00     0.079 A 
BRANCH  13  18
HETATM   18  O2  UNL     1      25.430   3.234  51.295  1.00  0.00    -0.360 OA
HETATM   19  C6  UNL     1      25.667   3.287  49.905  1.00  0.00     0.209 C 
ENDBRANCH  13  18
BRANCH  16  20
HETATM   20  O1  UNL     1      26.567  -1.592  53.416  1.00  0.00    -0.360 OA
HETATM   21  C1  UNL     1      27.573  -2.384  52.813  1.00  0.00     0.209 C 
ENDBRANCH  16  20
ENDBRANCH   1  12
BRANCH   4  22
HETATM   22  N1  UNL     1      19.001   1.365  49.482  1.00  0.00    -0.341 N 
HETATM   23  H12 UNL     1      18.804   1.235  48.472  1.00  0.00     0.167 HD
BRANCH  22  24
HETATM   24  C12 UNL     1      18.061   0.563  50.182  1.00  0.00     0.034 A 
HETATM   25  C13 UNL     1      16.766   0.522  49.654  1.00  0.00     0.029 A 
HETATM   26  C14 UNL     1      15.767  -0.227  50.237  1.00  0.00     0.004 A 
HETATM   27  C15 UNL     1      16.011  -0.975  51.376  1.00  0.00     0.019 A 
HETATM   28  C16 UNL     1      17.294  -0.946  51.915  1.00  0.00     0.013 A 
HETATM   29 BR1  UNL     1      17.772  -1.933  53.476  1.00  0.00    -0.051 Br
HETATM   30  C17 UNL     1      18.264  -0.191  51.313  1.00  0.00     0.048 A 
ENDBRANCH  22  24
ENDBRANCH   4  22
TORSDOF 5
ENDMDL
MODEL 6
REMARK VINA RESULT:      -7.3      5.772      8.817
REMARK  5 active torsions:
REMARK  status: ('A' for Active; 'I' for Inactive)
REMARK    1  A    between atoms: O1_2  and  C2_3 
REMARK    2  A    between atoms: C5_6  and  O2_7 
REMARK    3  A    between atoms: C7_9  and  C8_10 
REMARK    4  A    between atoms: C11_13  and  N1_14 
REMARK    5  A    between atoms: N1_14  and  C12_15 
ROOT
HETATM    1  C8  UNL     1      28.097   5.794  48.726  1.00  0.00     0.014 C 
HETATM    2  C9  UNL     1      29.074   6.334  48.060  1.00  0.00     0.033 C 
HETATM    3  C10 UNL     1      30.504   6.069  48.278  1.00  0.00     0.079 C 
HETATM    4  C11 UNL     1      31.572   6.546  47.649  1.00  0.00     0.130 C 
HETATM    5  N2  UNL     1      32.141   7.336  46.629  1.00  0.00    -0.235 NA
HETATM    6  C18 UNL     1      32.141   8.598  46.482  1.00  0.00     0.188 C 
HETATM    7  S1  UNL     1      31.470  10.021  47.401  1.00  0.00     0.019 SA
HETATM    8  N3  UNL     1      29.906   9.391  48.021  1.00  0.00    -0.206 NA
HETATM    9  C19 UNL     1      29.420   8.364  47.425  1.00  0.00     0.216 C 
HETATM   10  N4  UNL     1      28.553   7.289  47.087  1.00  0.00    -0.350 N 
HETATM   11  H19 UNL     1      27.808   7.222  46.391  1.00  0.00     0.166 HD
ENDROOT
BRANCH   1  12
HETATM   12  C7  UNL     1      26.637   5.966  48.610  1.00  0.00     0.073 A 
HETATM   13  C5  UNL     1      26.089   7.136  49.327  1.00  0.00     0.054 A 
HETATM   14  C4  UNL     1      25.149   7.224  50.292  1.00  0.00     0.035 A 
HETATM   15  C3  UNL     1      24.523   5.961  50.754  1.00  0.00     0.035 A 
HETATM   16  C2  UNL     1      24.978   4.885  50.149  1.00  0.00     0.046 A 
HETATM   17  C20 UNL     1      25.991   4.675  49.101  1.00  0.00     0.079 A 
BRANCH  13  18
HETATM   18  O2  UNL     1      26.411   8.477  49.184  1.00  0.00    -0.360 OA
HETATM   19  C6  UNL     1      27.091   9.120  50.240  1.00  0.00     0.209 C 
ENDBRANCH  13  18
BRANCH  16  20
HETATM   20  O1  UNL     1      24.461   3.624  50.500  1.00  0.00    -0.360 OA
HETATM   21  C1  UNL     1      24.424   3.246  51.864  1.00  0.00     0.209 C 
ENDBRANCH  16  20
ENDBRANCH   1  12
BRANCH   4  22
HETATM   22  N1  UNL     1      32.829   6.057  48.148  1.00  0.00    -0.341 N 
HETATM   23  H12 UNL     1      33.541   6.294  48.863  1.00  0.00     0.167 HD
BRANCH  22  24
HETATM   24  C12 UNL     1      33.282   4.875  47.505  1.00  0.00     0.034 A 
HETATM   25  C13 UNL     1      34.529   4.951  46.875  1.00  0.00     0.029 A 
HETATM   26  C14 UNL     1      35.081   3.867  46.225  1.00  0.00     0.004 A 
HETATM   27  C15 UNL     1      34.417   2.654  46.173  1.00  0.00     0.019 A 
HETATM   28  C16 UNL     1      33.174   2.561  46.794  1.00  0.00     0.013 A 
HETATM   29 BR1  UNL     1      32.153   0.950  46.806  1.00  0.00    -0.051 Br
HETATM   30  C17 UNL     1      32.653   3.655  47.430  1.00  0.00     0.048 A 
ENDBRANCH  22  24
ENDBRANCH   4  22
TORSDOF 5
ENDMDL
MODEL 7
REMARK VINA RESULT:      -7.2      5.941     10.925
REMARK  5 active torsions:
REMARK  status: ('A' for Active; 'I' for Inactive)
REMARK    1  A    between atoms: O1_2  and  C2_3 
REMARK    2  A    between atoms: C5_6  and  O2_7 
REMARK    3  A    between atoms: C7_9  and  C8_10 
REMARK    4  A    between atoms: C11_13  and  N1_14 
REMARK    5  A    between atoms: N1_14  and  C12_15 
ROOT
HETATM    1  C8  UNL     1      30.262   5.996  47.733  1.00  0.00     0.014 C 
HETATM    2  C9  UNL     1      29.265   6.504  48.396  1.00  0.00     0.033 C 
HETATM    3  C10 UNL     1      27.865   6.063  48.299  1.00  0.00     0.079 C 
HETATM    4  C11 UNL     1      26.783   6.494  48.936  1.00  0.00     0.130 C 
HETATM    5  N2  UNL     1      26.180   7.333  49.896  1.00  0.00    -0.235 NA
HETATM    6  C18 UNL     1      26.045   8.596  49.902  1.00  0.00     0.188 C 
HETATM    7  S1  UNL     1      26.503   9.965  48.790  1.00  0.00     0.019 SA
HETATM    8  N3  UNL     1      28.095   9.438  48.147  1.00  0.00    -0.206 NA
HETATM    9  C19 UNL     1      28.724   8.545  48.822  1.00  0.00     0.216 C 
HETATM   10  N4  UNL     1      29.723   7.616  49.222  1.00  0.00    -0.350 N 
HETATM   11  H19 UNL     1      30.505   7.711  49.873  1.00  0.00     0.166 HD
ENDROOT
BRANCH   1  12
HETATM   12  C7  UNL     1      31.698   6.335  47.737  1.00  0.00     0.073 A 
HETATM   13  C5  UNL     1      32.094   7.378  46.767  1.00  0.00     0.054 A 
HETATM   14  C4  UNL     1      32.991   7.355  45.759  1.00  0.00     0.035 A 
HETATM   15  C3  UNL     1      33.738   6.093  45.537  1.00  0.00     0.035 A 
HETATM   16  C2  UNL     1      33.420   5.128  46.373  1.00  0.00     0.046 A 
HETATM   17  C20 UNL     1      32.467   5.042  47.491  1.00  0.00     0.079 A 
BRANCH  13  18
HETATM   18  O2  UNL     1      31.632   8.680  46.647  1.00  0.00    -0.360 OA
HETATM   19  C6  UNL     1      32.195   9.670  47.479  1.00  0.00     0.209 C 
ENDBRANCH  13  18
BRANCH  16  20
HETATM   20  O1  UNL     1      34.062   3.880  46.264  1.00  0.00    -0.360 OA
HETATM   21  C1  UNL     1      34.553   3.250  47.432  1.00  0.00     0.209 C 
ENDBRANCH  16  20
ENDBRANCH   1  12
BRANCH   4  22
HETATM   22  N1  UNL     1      25.566   5.819  48.575  1.00  0.00    -0.341 N 
HETATM   23  H12 UNL     1      24.859   5.816  47.816  1.00  0.00     0.167 HD
BRANCH  22  24
HETATM   24  C12 UNL     1      25.162   4.825  49.505  1.00  0.00     0.034 A 
HETATM   25  C13 UNL     1      23.813   4.834  49.875  1.00  0.00     0.029 A 
HETATM   26  C14 UNL     1      23.298   3.913  50.763  1.00  0.00     0.004 A 
HETATM   27  C15 UNL     1      24.103   2.937  51.324  1.00  0.00     0.019 A 
HETATM   28  C16 UNL     1      25.449   2.914  50.967  1.00  0.00     0.013 A 
HETATM   29 BR1  UNL     1      26.670   1.622  51.658  1.00  0.00    -0.051 Br
HETATM   30  C17 UNL     1      25.930   3.843  50.084  1.00  0.00     0.048 A 
ENDBRANCH  22  24
ENDBRANCH   4  22
TORSDOF 5
ENDMDL
MODEL 8
REMARK VINA RESULT:      -7.0      4.181      6.588
REMARK  5 active torsions:
REMARK  status: ('A' for Active; 'I' for Inactive)
REMARK    1  A    between atoms: O1_2  and  C2_3 
REMARK    2  A    between atoms: C5_6  and  O2_7 
REMARK    3  A    between atoms: C7_9  and  C8_10 
REMARK    4  A    between atoms: C11_13  and  N1_14 
REMARK    5  A    between atoms: N1_14  and  C12_15 
ROOT
HETATM    1  C8  UNL     1      23.701   3.081  51.863  1.00  0.00     0.014 C 
HETATM    2  C9  UNL     1      23.255   4.280  51.632  1.00  0.00     0.033 C 
HETATM    3  C10 UNL     1      22.031   4.605  50.884  1.00  0.00     0.079 C 
HETATM    4  C11 UNL     1      21.479   5.781  50.609  1.00  0.00     0.130 C 
HETATM    5  N2  UNL     1      21.466   7.186  50.729  1.00  0.00    -0.235 NA
HETATM    6  C18 UNL     1      22.277   8.049  50.269  1.00  0.00     0.188 C 
HETATM    7  S1  UNL     1      23.804   8.010  49.275  1.00  0.00     0.019 SA
HETATM    8  N3  UNL     1      24.626   6.528  49.870  1.00  0.00    -0.206 NA
HETATM    9  C19 UNL     1      24.259   6.084  51.017  1.00  0.00     0.216 C 
HETATM   10  N4  UNL     1      24.172   5.273  52.182  1.00  0.00    -0.350 N 
HETATM   11  H19 UNL     1      24.616   5.364  53.097  1.00  0.00     0.166 HD
ENDROOT
BRANCH   1  12
HETATM   12  C7  UNL     1      24.896   2.618  52.592  1.00  0.00     0.073 A 
HETATM   13  C5  UNL     1      26.083   2.365  51.747  1.00  0.00     0.054 A 
HETATM   14  C4  UNL     1      26.825   1.252  51.572  1.00  0.00     0.035 A 
HETATM   15  C3  UNL     1      26.431   0.041  52.331  1.00  0.00     0.035 A 
HETATM   16  C2  UNL     1      25.375   0.209  53.099  1.00  0.00     0.046 A 
HETATM   17  C20 UNL     1      24.498   1.362  53.360  1.00  0.00     0.079 A 
BRANCH  13  18
HETATM   18  O2  UNL     1      26.750   3.235  50.898  1.00  0.00    -0.360 OA
HETATM   19  C6  UNL     1      26.413   3.224  49.528  1.00  0.00     0.209 C 
ENDBRANCH  13  18
BRANCH  16  20
HETATM   20  O1  UNL     1      24.904  -0.868  53.872  1.00  0.00    -0.360 OA
HETATM   21  C1  UNL     1      23.559  -0.866  54.314  1.00  0.00     0.209 C 
ENDBRANCH  16  20
ENDBRANCH   1  12
BRANCH   4  22
HETATM   22  N1  UNL     1      20.267   5.709  49.838  1.00  0.00    -0.341 N 
HETATM   23  H12 UNL     1      19.258   5.925  49.931  1.00  0.00     0.167 HD
BRANCH  22  24
HETATM   24  C12 UNL     1      20.451   5.201  48.525  1.00  0.00     0.034 A 
HETATM   25  C13 UNL     1      19.858   3.964  48.250  1.00  0.00     0.029 A 
HETATM   26  C14 UNL     1      19.957   3.371  47.009  1.00  0.00     0.004 A 
HETATM   27  C15 UNL     1      20.650   3.985  45.980  1.00  0.00     0.019 A 
HETATM   28  C16 UNL     1      21.247   5.217  46.236  1.00  0.00     0.013 A 
HETATM   29 BR1  UNL     1      22.226   6.176  44.910  1.00  0.00    -0.051 Br
HETATM   30  C17 UNL     1      21.131   5.778  47.479  1.00  0.00     0.048 A 
ENDBRANCH  22  24
ENDBRANCH   4  22
TORSDOF 5
ENDMDL
MODEL 9
REMARK VINA RESULT:      -7.0      4.685      8.873
REMARK  5 active torsions:
REMARK  status: ('A' for Active; 'I' for Inactive)
REMARK    1  A    between atoms: O1_2  and  C2_3 
REMARK    2  A    between atoms: C5_6  and  O2_7 
REMARK    3  A    between atoms: C7_9  and  C8_10 
REMARK    4  A    between atoms: C11_13  and  N1_14 
REMARK    5  A    between atoms: N1_14  and  C12_15 
ROOT
HETATM    1  C8  UNL     1      25.876   7.002  49.765  1.00  0.00     0.014 C 
HETATM    2  C9  UNL     1      24.605   6.773  49.916  1.00  0.00     0.033 C 
HETATM    3  C10 UNL     1      23.997   6.048  51.042  1.00  0.00     0.079 C 
HETATM    4  C11 UNL     1      22.723   5.777  51.301  1.00  0.00     0.130 C 
HETATM    5  N2  UNL     1      21.356   5.889  50.973  1.00  0.00    -0.235 NA
HETATM    6  C18 UNL     1      20.714   5.407  49.990  1.00  0.00     0.188 C 
HETATM    7  S1  UNL     1      21.119   4.381  48.539  1.00  0.00     0.019 SA
HETATM    8  N3  UNL     1      22.754   4.969  48.083  1.00  0.00    -0.206 NA
HETATM    9  C19 UNL     1      23.096   6.125  48.521  1.00  0.00     0.216 C 
HETATM   10  N4  UNL     1      23.860   7.297  48.775  1.00  0.00    -0.350 N 
HETATM   11  H19 UNL     1      23.878   8.202  48.302  1.00  0.00     0.166 HD
ENDROOT
BRANCH   1  12
HETATM   12  C7  UNL     1      26.611   7.709  48.700  1.00  0.00     0.073 A 
HETATM   13  C5  UNL     1      27.977   7.204  48.446  1.00  0.00     0.054 A 
HETATM   14  C4  UNL     1      29.174   7.827  48.488  1.00  0.00     0.035 A 
HETATM   15  C3  UNL     1      29.185   9.266  48.846  1.00  0.00     0.035 A 
HETATM   16  C2  UNL     1      27.992   9.767  49.088  1.00  0.00     0.046 A 
HETATM   17  C20 UNL     1      26.639   9.187  49.076  1.00  0.00     0.079 A 
BRANCH  13  18
HETATM   18  O2  UNL     1      28.384   5.928  48.088  1.00  0.00    -0.360 OA
HETATM   19  C6  UNL     1      29.766   5.648  48.060  1.00  0.00     0.209 C 
ENDBRANCH  13  18
BRANCH  16  20
HETATM   20  O1  UNL     1      27.870  11.124  49.437  1.00  0.00    -0.360 OA
HETATM   21  C1  UNL     1      28.742  12.071  48.849  1.00  0.00     0.209 C 
ENDBRANCH  16  20
ENDBRANCH   1  12
BRANCH   4  22
HETATM   22  N1  UNL     1      22.503   5.032  52.511  1.00  0.00    -0.341 N 
HETATM   23  H12 UNL     1      22.030   5.136  53.427  1.00  0.00     0.167 HD
BRANCH  22  24
HETATM   24  C12 UNL     1      23.084   3.737  52.502  1.00  0.00     0.034 A 
HETATM   25  C13 UNL     1      22.373   2.744  51.819  1.00  0.00     0.029 A 
HETATM   26  C14 UNL     1      22.838   1.449  51.730  1.00  0.00     0.004 A 
HETATM   27  C15 UNL     1      24.036   1.081  52.317  1.00  0.00     0.019 A 
HETATM   28  C16 UNL     1      24.756   2.056  53.002  1.00  0.00     0.013 A 
HETATM   29 BR1  UNL     1      26.424   1.690  53.851  1.00  0.00    -0.051 Br
HETATM   30  C17 UNL     1      24.267   3.332  53.072  1.00  0.00     0.048 A 
ENDBRANCH  22  24
ENDBRANCH   4  22
TORSDOF 5
ENDMDL
