MODEL 1
REMARK VINA RESULT:      -8.3      0.000      0.000
REMARK  3 active torsions:
REMARK  status: ('A' for Active; 'I' for Inactive)
REMARK    1  A    between atoms: C4_6  and  C5_7 
REMARK    2  A    between atoms: C5_7  and  C6_8 
REMARK    3  A    between atoms: C6_8  and  C7_9 
ROOT
HETATM    1  F1  UNL     1      30.630  -0.083  53.741  1.00  0.00    -0.186 F 
HETATM    2  C1  UNL     1      29.358  -0.442  53.470  1.00  0.00     0.196 A 
HETATM    3  C2  UNL     1      28.494   0.556  53.547  1.00  0.00     0.027 A 
HETATM    4  C3  UNL     1      28.846   1.965  53.896  1.00  0.00     0.163 A 
HETATM    5  N1  UNL     1      27.544   2.582  53.830  1.00  0.00    -0.388 N 
HETATM    6  C4  UNL     1      26.507   1.676  53.480  1.00  0.00     0.015 A 
HETATM    7  C13 UNL     1      27.057   0.474  53.310  1.00  0.00     0.014 A 
HETATM    8  C14 UNL     1      26.127  -0.596  52.942  1.00  0.00     0.230 A 
HETATM    9  F2  UNL     1      25.148  -0.762  53.921  1.00  0.00    -0.240 F 
HETATM   10  C15 UNL     1      26.756  -1.919  52.777  1.00  0.00     0.032 A 
HETATM   11  C16 UNL     1      27.939  -2.510  52.838  1.00  0.00     0.089 A 
HETATM   12  N2  UNL     1      29.113  -1.802  53.148  1.00  0.00    -0.343 N 
HETATM   13  H3  UNL     1      27.517   3.611  54.045  1.00  0.00     0.159 HD
HETATM   14  H16 UNL     1      29.991  -2.341  53.153  1.00  0.00     0.167 HD
ENDROOT
BRANCH   6  15
HETATM   15  C5  UNL     1      25.094   2.142  53.363  1.00  0.00     0.062 C 
BRANCH  15  16
HETATM   16  C6  UNL     1      24.826   2.543  51.950  1.00  0.00     0.044 C 
BRANCH  16  17
HETATM   17  C7  UNL     1      23.582   1.895  51.410  1.00  0.00    -0.058 A 
HETATM   18  C8  UNL     1      22.938   0.977  52.234  1.00  0.00     0.007 A 
HETATM   19  C9  UNL     1      21.789   0.307  51.869  1.00  0.00     0.001 A 
HETATM   20  C10 UNL     1      21.300   0.607  50.606  1.00  0.00     0.000 A 
HETATM   21  C11 UNL     1      21.911   1.509  49.765  1.00  0.00     0.001 A 
HETATM   22  C12 UNL     1      23.067   2.167  50.160  1.00  0.00     0.007 A 
ENDBRANCH  16  17
ENDBRANCH  15  16
ENDBRANCH   6  15
TORSDOF 3
ENDMDL
MODEL 2
REMARK VINA RESULT:      -8.0      1.605      2.332
REMARK  3 active torsions:
REMARK  status: ('A' for Active; 'I' for Inactive)
REMARK    1  A    between atoms: C4_6  and  C5_7 
REMARK    2  A    between atoms: C5_7  and  C6_8 
REMARK    3  A    between atoms: C6_8  and  C7_9 
ROOT
HETATM    1  F1  UNL     1      30.111   1.385  54.476  1.00  0.00    -0.186 F 
HETATM    2  C1  UNL     1      29.272   0.497  53.903  1.00  0.00     0.196 A 
HETATM    3  C2  UNL     1      28.124   1.023  53.513  1.00  0.00     0.027 A 
HETATM    4  C3  UNL     1      27.746   2.459  53.671  1.00  0.00     0.163 A 
HETATM    5  N1  UNL     1      26.427   2.447  53.087  1.00  0.00    -0.388 N 
HETATM    6  C4  UNL     1      26.029   1.165  52.619  1.00  0.00     0.015 A 
HETATM    7  C13 UNL     1      27.026   0.315  52.866  1.00  0.00     0.014 A 
HETATM    8  C14 UNL     1      26.789  -1.069  52.446  1.00  0.00     0.230 A 
HETATM    9  F2  UNL     1      25.671  -1.598  53.088  1.00  0.00    -0.240 F 
HETATM   10  C15 UNL     1      27.897  -1.994  52.745  1.00  0.00     0.032 A 
HETATM   11  C16 UNL     1      29.107  -2.009  53.282  1.00  0.00     0.089 A 
HETATM   12  N2  UNL     1      29.713  -0.847  53.794  1.00  0.00    -0.343 N 
HETATM   13  H3  UNL     1      25.924   3.369  53.078  1.00  0.00     0.159 HD
HETATM   14  H16 UNL     1      30.664  -0.952  54.174  1.00  0.00     0.167 HD
ENDROOT
BRANCH   6  15
HETATM   15  C5  UNL     1      24.693   0.965  51.984  1.00  0.00     0.062 C 
BRANCH  15  16
HETATM   16  C6  UNL     1      23.641   1.558  52.861  1.00  0.00     0.044 C 
BRANCH  16  17
HETATM   17  C7  UNL     1      22.673   0.518  53.355  1.00  0.00    -0.058 A 
HETATM   18  C8  UNL     1      21.341   0.665  52.981  1.00  0.00     0.007 A 
HETATM   19  C9  UNL     1      20.346  -0.211  53.360  1.00  0.00     0.001 A 
HETATM   20  C10 UNL     1      20.757  -1.272  54.154  1.00  0.00     0.000 A 
HETATM   21  C11 UNL     1      22.066  -1.448  54.543  1.00  0.00     0.001 A 
HETATM   22  C12 UNL     1      23.045  -0.549  54.146  1.00  0.00     0.007 A 
ENDBRANCH  16  17
ENDBRANCH  15  16
ENDBRANCH   6  15
TORSDOF 3
ENDMDL
MODEL 3
REMARK VINA RESULT:      -8.0      1.783      2.874
REMARK  3 active torsions:
REMARK  status: ('A' for Active; 'I' for Inactive)
REMARK    1  A    between atoms: C4_6  and  C5_7 
REMARK    2  A    between atoms: C5_7  and  C6_8 
REMARK    3  A    between atoms: C6_8  and  C7_9 
ROOT
HETATM    1  F1  UNL     1      30.678  -0.021  53.880  1.00  0.00    -0.186 F 
HETATM    2  C1  UNL     1      29.440  -0.425  53.524  1.00  0.00     0.196 A 
HETATM    3  C2  UNL     1      28.564   0.560  53.429  1.00  0.00     0.027 A 
HETATM    4  C3  UNL     1      28.867   2.000  53.681  1.00  0.00     0.163 A 
HETATM    5  N1  UNL     1      27.572   2.586  53.437  1.00  0.00    -0.388 N 
HETATM    6  C4  UNL     1      26.582   1.634  53.074  1.00  0.00     0.015 A 
HETATM    7  C13 UNL     1      27.157   0.431  53.066  1.00  0.00     0.014 A 
HETATM    8  C14 UNL     1      26.276  -0.684  52.710  1.00  0.00     0.230 A 
HETATM    9  F2  UNL     1      25.210  -0.780  53.603  1.00  0.00    -0.240 F 
HETATM   10  C15 UNL     1      26.931  -2.005  52.725  1.00  0.00     0.032 A 
HETATM   11  C16 UNL     1      28.108  -2.567  52.950  1.00  0.00     0.089 A 
HETATM   12  N2  UNL     1      29.241  -1.812  53.304  1.00  0.00    -0.343 N 
HETATM   13  H3  UNL     1      27.515   3.628  53.555  1.00  0.00     0.159 HD
HETATM   14  H16 UNL     1      30.119  -2.334  53.441  1.00  0.00     0.167 HD
ENDROOT
BRANCH   6  15
HETATM   15  C5  UNL     1      25.182   2.061  52.783  1.00  0.00     0.062 C 
BRANCH  15  16
HETATM   16  C6  UNL     1      24.940   1.974  51.312  1.00  0.00     0.044 C 
BRANCH  16  17
HETATM   17  C7  UNL     1      25.353   3.232  50.601  1.00  0.00    -0.058 A 
HETATM   18  C8  UNL     1      26.499   3.167  49.814  1.00  0.00     0.007 A 
HETATM   19  C9  UNL     1      26.994   4.242  49.106  1.00  0.00     0.001 A 
HETATM   20  C10 UNL     1      26.269   5.419  49.225  1.00  0.00     0.000 A 
HETATM   21  C11 UNL     1      25.132   5.520  49.995  1.00  0.00     0.001 A 
HETATM   22  C12 UNL     1      24.659   4.420  50.697  1.00  0.00     0.007 A 
ENDBRANCH  16  17
ENDBRANCH  15  16
ENDBRANCH   6  15
TORSDOF 3
ENDMDL
MODEL 4
REMARK VINA RESULT:      -7.9      2.423      6.021
REMARK  3 active torsions:
REMARK  status: ('A' for Active; 'I' for Inactive)
REMARK    1  A    between atoms: C4_6  and  C5_7 
REMARK    2  A    between atoms: C5_7  and  C6_8 
REMARK    3  A    between atoms: C6_8  and  C7_9 
ROOT
HETATM    1  F1  UNL     1      22.746   2.770  48.821  1.00  0.00    -0.186 F 
HETATM    2  C1  UNL     1      22.759   2.079  49.981  1.00  0.00     0.196 A 
HETATM    3  C2  UNL     1      23.814   2.330  50.739  1.00  0.00     0.027 A 
HETATM    4  C3  UNL     1      24.911   3.279  50.388  1.00  0.00     0.163 A 
HETATM    5  N1  UNL     1      25.756   3.141  51.548  1.00  0.00    -0.388 N 
HETATM    6  C4  UNL     1      25.251   2.224  52.508  1.00  0.00     0.015 A 
HETATM    7  C13 UNL     1      24.101   1.737  52.039  1.00  0.00     0.014 A 
HETATM    8  C14 UNL     1      23.431   0.765  52.907  1.00  0.00     0.230 A 
HETATM    9  F2  UNL     1      24.246  -0.342  53.135  1.00  0.00    -0.240 F 
HETATM   10  C15 UNL     1      22.171   0.228  52.359  1.00  0.00     0.032 A 
HETATM   11  C16 UNL     1      21.383   0.333  51.302  1.00  0.00     0.089 A 
HETATM   12  N2  UNL     1      21.676   1.199  50.233  1.00  0.00    -0.343 N 
HETATM   13  H3  UNL     1      26.630   3.725  51.547  1.00  0.00     0.159 HD
HETATM   14  H16 UNL     1      20.994   1.228  49.462  1.00  0.00     0.167 HD
ENDROOT
BRANCH   6  15
HETATM   15  C5  UNL     1      25.994   1.956  53.774  1.00  0.00     0.062 C 
BRANCH  15  16
HETATM   16  C6  UNL     1      27.461   1.988  53.497  1.00  0.00     0.044 C 
BRANCH  16  17
HETATM   17  C7  UNL     1      28.041   0.605  53.394  1.00  0.00    -0.058 A 
HETATM   18  C8  UNL     1      29.383   0.455  53.728  1.00  0.00     0.007 A 
HETATM   19  C9  UNL     1      30.046  -0.753  53.681  1.00  0.00     0.001 A 
HETATM   20  C10 UNL     1      29.282  -1.836  53.271  1.00  0.00     0.000 A 
HETATM   21  C11 UNL     1      27.952  -1.725  52.933  1.00  0.00     0.001 A 
HETATM   22  C12 UNL     1      27.312  -0.495  52.990  1.00  0.00     0.007 A 
ENDBRANCH  16  17
ENDBRANCH  15  16
ENDBRANCH   6  15
TORSDOF 3
ENDMDL
MODEL 5
REMARK VINA RESULT:      -7.7      2.938      6.384
REMARK  3 active torsions:
REMARK  status: ('A' for Active; 'I' for Inactive)
REMARK    1  A    between atoms: C4_6  and  C5_7 
REMARK    2  A    between atoms: C5_7  and  C6_8 
REMARK    3  A    between atoms: C6_8  and  C7_9 
ROOT
HETATM    1  F1  UNL     1      19.522   0.069  51.617  1.00  0.00    -0.186 F 
HETATM    2  C1  UNL     1      20.523  -0.161  52.492  1.00  0.00     0.196 A 
HETATM    3  C2  UNL     1      21.616   0.543  52.248  1.00  0.00     0.027 A 
HETATM    4  C3  UNL     1      21.774   1.512  51.123  1.00  0.00     0.163 A 
HETATM    5  N1  UNL     1      23.127   1.957  51.350  1.00  0.00    -0.388 N 
HETATM    6  C4  UNL     1      23.739   1.346  52.478  1.00  0.00     0.015 A 
HETATM    7  C13 UNL     1      22.854   0.508  53.017  1.00  0.00     0.014 A 
HETATM    8  C14 UNL     1      23.318  -0.218  54.203  1.00  0.00     0.230 A 
HETATM    9  F2  UNL     1      24.440  -0.990  53.905  1.00  0.00    -0.240 F 
HETATM   10  C15 UNL     1      22.328  -1.152  54.770  1.00  0.00     0.032 A 
HETATM   11  C16 UNL     1      21.091  -1.580  54.578  1.00  0.00     0.089 A 
HETATM   12  N2  UNL     1      20.287  -1.097  53.530  1.00  0.00    -0.343 N 
HETATM   13  H3  UNL     1      23.494   2.666  50.668  1.00  0.00     0.159 HD
HETATM   14  H16 UNL     1      19.330  -1.475  53.471  1.00  0.00     0.167 HD
ENDROOT
BRANCH   6  15
HETATM   15  C5  UNL     1      25.139   1.688  52.865  1.00  0.00     0.062 C 
BRANCH  15  16
HETATM   16  C6  UNL     1      26.085   1.021  51.922  1.00  0.00     0.044 C 
BRANCH  16  17
HETATM   17  C7  UNL     1      27.303   0.494  52.629  1.00  0.00    -0.058 A 
HETATM   18  C8  UNL     1      27.476  -0.886  52.649  1.00  0.00     0.007 A 
HETATM   19  C9  UNL     1      28.545  -1.507  53.259  1.00  0.00     0.001 A 
HETATM   20  C10 UNL     1      29.459  -0.659  53.867  1.00  0.00     0.000 A 
HETATM   21  C11 UNL     1      29.320   0.711  53.868  1.00  0.00     0.001 A 
HETATM   22  C12 UNL     1      28.232   1.307  53.245  1.00  0.00     0.007 A 
ENDBRANCH  16  17
ENDBRANCH  15  16
ENDBRANCH   6  15
TORSDOF 3
ENDMDL
MODEL 6
REMARK VINA RESULT:      -7.7      2.968      6.665
REMARK  3 active torsions:
REMARK  status: ('A' for Active; 'I' for Inactive)
REMARK    1  A    between atoms: C4_6  and  C5_7 
REMARK    2  A    between atoms: C5_7  and  C6_8 
REMARK    3  A    between atoms: C6_8  and  C7_9 
ROOT
HETATM    1  F1  UNL     1      20.210  -1.742  54.278  1.00  0.00    -0.186 F 
HETATM    2  C1  UNL     1      20.664  -0.695  53.558  1.00  0.00     0.196 A 
HETATM    3  C2  UNL     1      21.961  -0.476  53.695  1.00  0.00     0.027 A 
HETATM    4  C3  UNL     1      22.877  -1.284  54.554  1.00  0.00     0.163 A 
HETATM    5  N1  UNL     1      24.125  -0.602  54.317  1.00  0.00    -0.388 N 
HETATM    6  C4  UNL     1      24.007   0.494  53.420  1.00  0.00     0.015 A 
HETATM    7  C13 UNL     1      22.731   0.578  53.046  1.00  0.00     0.014 A 
HETATM    8  C14 UNL     1      22.420   1.663  52.111  1.00  0.00     0.230 A 
HETATM    9  F2  UNL     1      22.735   2.902  52.667  1.00  0.00    -0.240 F 
HETATM   10  C15 UNL     1      21.000   1.746  51.726  1.00  0.00     0.032 A 
HETATM   11  C16 UNL     1      19.841   1.141  51.932  1.00  0.00     0.089 A 
HETATM   12  N2  UNL     1      19.724   0.017  52.770  1.00  0.00    -0.343 N 
HETATM   13  H3  UNL     1      24.959  -0.988  54.827  1.00  0.00     0.159 HD
HETATM   14  H16 UNL     1      18.786  -0.400  52.855  1.00  0.00     0.167 HD
ENDROOT
BRANCH   6  15
HETATM   15  C5  UNL     1      25.200   1.316  53.058  1.00  0.00     0.062 C 
BRANCH  15  16
HETATM   16  C6  UNL     1      26.053   0.546  52.105  1.00  0.00     0.044 C 
BRANCH  16  17
HETATM   17  C7  UNL     1      27.372   0.165  52.717  1.00  0.00    -0.058 A 
HETATM   18  C8  UNL     1      27.678  -1.191  52.769  1.00  0.00     0.007 A 
HETATM   19  C9  UNL     1      28.850  -1.684  53.302  1.00  0.00     0.001 A 
HETATM   20  C10 UNL     1      29.728  -0.729  53.795  1.00  0.00     0.000 A 
HETATM   21  C11 UNL     1      29.459   0.620  53.760  1.00  0.00     0.001 A 
HETATM   22  C12 UNL     1      28.269   1.086  53.218  1.00  0.00     0.007 A 
ENDBRANCH  16  17
ENDBRANCH  15  16
ENDBRANCH   6  15
TORSDOF 3
ENDMDL
MODEL 7
REMARK VINA RESULT:      -7.6      3.192      4.959
REMARK  3 active torsions:
REMARK  status: ('A' for Active; 'I' for Inactive)
REMARK    1  A    between atoms: C4_6  and  C5_7 
REMARK    2  A    between atoms: C5_7  and  C6_8 
REMARK    3  A    between atoms: C6_8  and  C7_9 
ROOT
HETATM    1  F1  UNL     1      23.682  -1.103  54.902  1.00  0.00    -0.186 F 
HETATM    2  C1  UNL     1      24.629  -0.439  54.207  1.00  0.00     0.196 A 
HETATM    3  C2  UNL     1      24.147   0.300  53.222  1.00  0.00     0.027 A 
HETATM    4  C3  UNL     1      22.700   0.420  52.873  1.00  0.00     0.163 A 
HETATM    5  N1  UNL     1      22.776   1.325  51.753  1.00  0.00    -0.388 N 
HETATM    6  C4  UNL     1      24.103   1.725  51.440  1.00  0.00     0.015 A 
HETATM    7  C13 UNL     1      24.923   1.124  52.303  1.00  0.00     0.014 A 
HETATM    8  C14 UNL     1      26.347   1.424  52.129  1.00  0.00     0.230 A 
HETATM    9  F2  UNL     1      26.783   1.041  50.861  1.00  0.00    -0.240 F 
HETATM   10  C15 UNL     1      27.235   0.734  53.083  1.00  0.00     0.032 A 
HETATM   11  C16 UNL     1      27.191  -0.100  54.109  1.00  0.00     0.089 A 
HETATM   12  N2  UNL     1      25.979  -0.611  54.606  1.00  0.00    -0.343 N 
HETATM   13  H3  UNL     1      21.858   1.577  51.308  1.00  0.00     0.159 HD
HETATM   14  H16 UNL     1      26.041  -1.239  55.421  1.00  0.00     0.167 HD
ENDROOT
BRANCH   6  15
HETATM   15  C5  UNL     1      24.372   2.662  50.310  1.00  0.00     0.062 C 
BRANCH  15  16
HETATM   16  C6  UNL     1      24.637   4.025  50.857  1.00  0.00     0.044 C 
BRANCH  16  17
HETATM   17  C7  UNL     1      25.578   4.806  49.983  1.00  0.00    -0.058 A 
HETATM   18  C8  UNL     1      26.696   4.135  49.497  1.00  0.00     0.007 A 
HETATM   19  C9  UNL     1      27.642   4.725  48.686  1.00  0.00     0.001 A 
HETATM   20  C10 UNL     1      27.411   6.057  48.374  1.00  0.00     0.000 A 
HETATM   21  C11 UNL     1      26.317   6.753  48.836  1.00  0.00     0.001 A 
HETATM   22  C12 UNL     1      25.382   6.131  49.652  1.00  0.00     0.007 A 
ENDBRANCH  16  17
ENDBRANCH  15  16
ENDBRANCH   6  15
TORSDOF 3
ENDMDL
MODEL 8
REMARK VINA RESULT:      -7.5      3.451      6.275
REMARK  3 active torsions:
REMARK  status: ('A' for Active; 'I' for Inactive)
REMARK    1  A    between atoms: C4_6  and  C5_7 
REMARK    2  A    between atoms: C5_7  and  C6_8 
REMARK    3  A    between atoms: C6_8  and  C7_9 
ROOT
HETATM    1  F1  UNL     1      24.322   7.352  50.932  1.00  0.00    -0.186 F 
HETATM    2  C1  UNL     1      24.923   6.208  50.542  1.00  0.00     0.196 A 
HETATM    3  C2  UNL     1      24.389   5.119  51.070  1.00  0.00     0.027 A 
HETATM    4  C3  UNL     1      23.231   5.106  52.012  1.00  0.00     0.163 A 
HETATM    5  N1  UNL     1      23.100   3.689  52.245  1.00  0.00    -0.388 N 
HETATM    6  C4  UNL     1      24.054   2.910  51.536  1.00  0.00     0.015 A 
HETATM    7  C13 UNL     1      24.822   3.746  50.837  1.00  0.00     0.014 A 
HETATM    8  C14 UNL     1      25.873   3.112  50.036  1.00  0.00     0.230 A 
HETATM    9  F2  UNL     1      26.744   2.385  50.846  1.00  0.00    -0.240 F 
HETATM   10  C15 UNL     1      26.720   4.058  49.287  1.00  0.00     0.032 A 
HETATM   11  C16 UNL     1      26.864   5.354  49.062  1.00  0.00     0.089 A 
HETATM   12  N2  UNL     1      26.016   6.313  49.645  1.00  0.00    -0.343 N 
HETATM   13  H3  UNL     1      22.330   3.405  52.901  1.00  0.00     0.159 HD
HETATM   14  H16 UNL     1      26.192   7.297  49.397  1.00  0.00     0.167 HD
ENDROOT
BRANCH   6  15
HETATM   15  C5  UNL     1      24.067   1.423  51.657  1.00  0.00     0.062 C 
BRANCH  15  16
HETATM   16  C6  UNL     1      24.266   1.050  53.088  1.00  0.00     0.044 C 
BRANCH  16  17
HETATM   17  C7  UNL     1      25.657   0.543  53.347  1.00  0.00    -0.058 A 
HETATM   18  C8  UNL     1      26.122  -0.478  52.525  1.00  0.00     0.007 A 
HETATM   19  C9  UNL     1      27.376  -1.038  52.647  1.00  0.00     0.001 A 
HETATM   20  C10 UNL     1      28.166  -0.515  53.661  1.00  0.00     0.000 A 
HETATM   21  C11 UNL     1      27.739   0.494  54.493  1.00  0.00     0.001 A 
HETATM   22  C12 UNL     1      26.470   1.038  54.346  1.00  0.00     0.007 A 
ENDBRANCH  16  17
ENDBRANCH  15  16
ENDBRANCH   6  15
TORSDOF 3
ENDMDL
MODEL 9
REMARK VINA RESULT:      -7.4      4.516      6.548
REMARK  3 active torsions:
REMARK  status: ('A' for Active; 'I' for Inactive)
REMARK    1  A    between atoms: C4_6  and  C5_7 
REMARK    2  A    between atoms: C5_7  and  C6_8 
REMARK    3  A    between atoms: C6_8  and  C7_9 
ROOT
HETATM    1  F1  UNL     1      25.949   8.888  50.449  1.00  0.00    -0.186 F 
HETATM    2  C1  UNL     1      26.295   7.684  49.948  1.00  0.00     0.196 A 
HETATM    3  C2  UNL     1      25.472   6.707  50.290  1.00  0.00     0.027 A 
HETATM    4  C3  UNL     1      24.261   6.872  51.148  1.00  0.00     0.163 A 
HETATM    5  N1  UNL     1      23.778   5.514  51.180  1.00  0.00    -0.388 N 
HETATM    6  C4  UNL     1      24.582   4.611  50.433  1.00  0.00     0.015 A 
HETATM    7  C13 UNL     1      25.588   5.306  49.902  1.00  0.00     0.014 A 
HETATM    8  C14 UNL     1      26.529   4.529  49.091  1.00  0.00     0.230 A 
HETATM    9  F2  UNL     1      27.123   3.521  49.848  1.00  0.00    -0.240 F 
HETATM   10  C15 UNL     1      27.642   5.316  48.529  1.00  0.00     0.032 A 
HETATM   11  C16 UNL     1      28.109   6.554  48.490  1.00  0.00     0.089 A 
HETATM   12  N2  UNL     1      27.461   7.618  49.142  1.00  0.00    -0.343 N 
HETATM   13  H3  UNL     1      22.904   5.355  51.742  1.00  0.00     0.159 HD
HETATM   14  H16 UNL     1      27.887   8.551  49.040  1.00  0.00     0.167 HD
ENDROOT
BRANCH   6  15
HETATM   15  C5  UNL     1      24.231   3.163  50.354  1.00  0.00     0.062 C 
BRANCH  15  16
HETATM   16  C6  UNL     1      23.845   2.677  51.712  1.00  0.00     0.044 C 
BRANCH  16  17
HETATM   17  C7  UNL     1      24.655   1.482  52.130  1.00  0.00    -0.058 A 
HETATM   18  C8  UNL     1      24.052   0.582  53.003  1.00  0.00     0.007 A 
HETATM   19  C9  UNL     1      24.676  -0.556  53.470  1.00  0.00     0.001 A 
HETATM   20  C10 UNL     1      25.968  -0.758  53.009  1.00  0.00     0.000 A 
HETATM   21  C11 UNL     1      26.597   0.111  52.146  1.00  0.00     0.001 A 
HETATM   22  C12 UNL     1      25.943   1.249  51.694  1.00  0.00     0.007 A 
ENDBRANCH  16  17
ENDBRANCH  15  16
ENDBRANCH   6  15
TORSDOF 3
ENDMDL
