MODEL 1
REMARK VINA RESULT:      -8.2      0.000      0.000
REMARK  1 active torsions:
REMARK  status: ('A' for Active; 'I' for Inactive)
REMARK    1  A    between atoms: C2_2  and  C3_3 
REMARK       I    between atoms: C3_3  and  N1_5 
ROOT
HETATM    1  C3  UNL     1      27.785   0.251  54.122  1.00  0.00     0.242 C 
HETATM    2  O1  UNL     1      27.362  -0.568  54.978  1.00  0.00    -0.268 OA
HETATM    3  N1  UNL     1      26.964   1.065  53.332  1.00  0.00    -0.348 N 
HETATM    4  C4  UNL     1      27.427   1.994  52.364  1.00  0.00     0.131 C 
HETATM    5  C5  UNL     1      26.234   2.718  51.785  1.00  0.00     0.021 C 
HETATM    6  C6  UNL     1      26.535   2.965  50.308  1.00  0.00     0.068 C 
HETATM    7  C7  UNL     1      26.052   4.195  49.769  1.00  0.00     0.063 A 
HETATM    8  N2  UNL     1      24.985   4.059  50.346  1.00  0.00    -0.232 NA
HETATM    9  C8  UNL     1      24.540   5.275  49.805  1.00  0.00     0.151 A 
HETATM   10  C9  UNL     1      25.689   5.428  49.174  1.00  0.00     0.104 A 
HETATM   11 CL1  UNL     1      26.230   6.690  48.138  1.00  0.00    -0.078 Cl
HETATM   12  N3  UNL     1      23.320   4.990  50.552  1.00  0.00    -0.349 N 
HETATM   13  C10 UNL     1      23.346   4.928  52.008  1.00  0.00     0.091 C 
HETATM   14  C11 UNL     1      23.538   3.754  52.588  1.00  0.00     0.068 C 
HETATM   15  C12 UNL     1      23.755   2.356  52.315  1.00  0.00     0.268 C 
HETATM   16  F1  UNL     1      23.125   1.602  53.349  1.00  0.00    -0.201 F 
HETATM   17  F2  UNL     1      22.928   2.025  51.214  1.00  0.00    -0.201 F 
HETATM   18  C13 UNL     1      25.100   1.818  52.054  1.00  0.00     0.086 C 
HETATM   19  C14 UNL     1      25.538   1.110  53.356  1.00  0.00     0.137 C 
HETATM   20  H9  UNL     1      22.496   4.851  49.926  1.00  0.00     0.166 HD
ENDROOT
BRANCH   1  21
HETATM   21  C2  UNL     1      29.249   0.278  54.024  1.00  0.00     0.064 C 
HETATM   22  C1  UNL     1      29.907  -0.768  53.580  1.00  0.00     0.017 C 
ENDBRANCH   1  21
TORSDOF 1
ENDMDL
MODEL 2
REMARK VINA RESULT:      -8.1      3.641      4.403
REMARK  1 active torsions:
REMARK  status: ('A' for Active; 'I' for Inactive)
REMARK    1  A    between atoms: C2_2  and  C3_3 
REMARK       I    between atoms: C3_3  and  N1_5 
ROOT
HETATM    1  C3  UNL     1      27.318   0.439  54.171  1.00  0.00     0.242 C 
HETATM    2  O1  UNL     1      27.917  -0.322  54.974  1.00  0.00    -0.268 OA
HETATM    3  N1  UNL     1      25.954   0.352  53.867  1.00  0.00    -0.348 N 
HETATM    4  C4  UNL     1      25.264   1.204  52.964  1.00  0.00     0.131 C 
HETATM    5  C5  UNL     1      23.802   0.826  52.972  1.00  0.00     0.021 C 
HETATM    6  C6  UNL     1      23.286   1.009  51.546  1.00  0.00     0.068 C 
HETATM    7  C7  UNL     1      21.946   1.487  51.422  1.00  0.00     0.063 A 
HETATM    8  N2  UNL     1      21.570   0.737  52.308  1.00  0.00    -0.232 NA
HETATM    9  C8  UNL     1      20.264   1.230  52.167  1.00  0.00     0.151 A 
HETATM   10  C9  UNL     1      20.662   2.041  51.204  1.00  0.00     0.104 A 
HETATM   11 CL1  UNL     1      19.772   3.175  50.266  1.00  0.00    -0.078 Cl
HETATM   12  N3  UNL     1      19.953   0.292  53.239  1.00  0.00    -0.349 N 
HETATM   13  C10 UNL     1      20.543   0.462  54.561  1.00  0.00     0.091 C 
HETATM   14  C11 UNL     1      21.674  -0.169  54.834  1.00  0.00     0.068 C 
HETATM   15  C12 UNL     1      22.661  -1.059  54.277  1.00  0.00     0.268 C 
HETATM   16  F1  UNL     1      23.149  -1.890  55.328  1.00  0.00    -0.201 F 
HETATM   17  F2  UNL     1      21.956  -2.011  53.501  1.00  0.00    -0.201 F 
HETATM   18  C13 UNL     1      23.788  -0.558  53.473  1.00  0.00     0.086 C 
HETATM   19  C14 UNL     1      25.024  -0.589  54.400  1.00  0.00     0.137 C 
HETATM   20  H9  UNL     1      19.293  -0.456  52.931  1.00  0.00     0.166 HD
ENDROOT
BRANCH   1  21
HETATM   21  C2  UNL     1      28.197   1.447  53.568  1.00  0.00     0.064 C 
HETATM   22  C1  UNL     1      29.167   1.989  54.267  1.00  0.00     0.017 C 
ENDBRANCH   1  21
TORSDOF 1
ENDMDL
MODEL 3
REMARK VINA RESULT:      -8.0      4.089      6.194
REMARK  1 active torsions:
REMARK  status: ('A' for Active; 'I' for Inactive)
REMARK    1  A    between atoms: C2_2  and  C3_3 
REMARK       I    between atoms: C3_3  and  N1_5 
ROOT
HETATM    1  C3  UNL     1      22.183  -0.095  53.677  1.00  0.00     0.242 C 
HETATM    2  O1  UNL     1      21.285   0.733  53.376  1.00  0.00    -0.268 OA
HETATM    3  N1  UNL     1      23.551   0.109  53.460  1.00  0.00    -0.348 N 
HETATM    4  C4  UNL     1      24.576  -0.815  53.795  1.00  0.00     0.131 C 
HETATM    5  C5  UNL     1      25.911  -0.190  53.466  1.00  0.00     0.021 C 
HETATM    6  C6  UNL     1      26.818  -1.313  52.966  1.00  0.00     0.068 C 
HETATM    7  C7  UNL     1      28.195  -1.215  53.332  1.00  0.00     0.063 A 
HETATM    8  N2  UNL     1      28.203  -0.021  53.080  1.00  0.00    -0.232 NA
HETATM    9  C8  UNL     1      29.554   0.045  53.452  1.00  0.00     0.151 A 
HETATM   10  C9  UNL     1      29.555  -1.246  53.722  1.00  0.00     0.104 A 
HETATM   11 CL1  UNL     1      30.820  -2.263  54.292  1.00  0.00    -0.078 Cl
HETATM   12  N3  UNL     1      29.423   1.459  53.119  1.00  0.00    -0.349 N 
HETATM   13  C10 UNL     1      28.524   2.315  53.883  1.00  0.00     0.091 C 
HETATM   14  C11 UNL     1      27.283   2.475  53.450  1.00  0.00     0.068 C 
HETATM   15  C12 UNL     1      26.370   2.094  52.403  1.00  0.00     0.268 C 
HETATM   16  F1  UNL     1      25.499   3.196  52.154  1.00  0.00    -0.201 F 
HETATM   17  F2  UNL     1      27.117   2.079  51.200  1.00  0.00    -0.201 F 
HETATM   18  C13 UNL     1      25.590   0.848  52.472  1.00  0.00     0.086 C 
HETATM   19  C14 UNL     1      24.156   1.261  52.875  1.00  0.00     0.137 C 
HETATM   20  H9  UNL     1      30.028   1.734  52.314  1.00  0.00     0.166 HD
ENDROOT
BRANCH   1  21
HETATM   21  C2  UNL     1      21.657  -1.319  54.289  1.00  0.00     0.064 C 
HETATM   22  C1  UNL     1      20.393  -1.647  54.144  1.00  0.00     0.017 C 
ENDBRANCH   1  21
TORSDOF 1
ENDMDL
MODEL 4
REMARK VINA RESULT:      -8.0      3.502      5.610
REMARK  1 active torsions:
REMARK  status: ('A' for Active; 'I' for Inactive)
REMARK    1  A    between atoms: C2_2  and  C3_3 
REMARK       I    between atoms: C3_3  and  N1_5 
ROOT
HETATM    1  C3  UNL     1      20.152  -0.609  53.045  1.00  0.00     0.242 C 
HETATM    2  O1  UNL     1      19.768  -1.463  53.885  1.00  0.00    -0.268 OA
HETATM    3  N1  UNL     1      21.468  -0.141  52.938  1.00  0.00    -0.348 N 
HETATM    4  C4  UNL     1      21.917   0.820  51.995  1.00  0.00     0.131 C 
HETATM    5  C5  UNL     1      23.407   0.997  52.163  1.00  0.00     0.021 C 
HETATM    6  C6  UNL     1      23.714   2.471  51.904  1.00  0.00     0.068 C 
HETATM    7  C7  UNL     1      24.949   2.746  51.242  1.00  0.00     0.063 A 
HETATM    8  N2  UNL     1      25.531   1.928  51.936  1.00  0.00    -0.232 NA
HETATM    9  C8  UNL     1      26.729   2.216  51.264  1.00  0.00     0.151 A 
HETATM   10  C9  UNL     1      26.108   3.106  50.513  1.00  0.00     0.104 A 
HETATM   11 CL1  UNL     1      26.710   4.121  49.262  1.00  0.00    -0.078 Cl
HETATM   12  N3  UNL     1      27.296   1.209  52.154  1.00  0.00    -0.349 N 
HETATM   13  C10 UNL     1      26.855  -0.178  52.073  1.00  0.00     0.091 C 
HETATM   14  C11 UNL     1      25.864  -0.573  52.857  1.00  0.00     0.068 C 
HETATM   15  C12 UNL     1      24.949  -0.120  53.874  1.00  0.00     0.268 C 
HETATM   16  F1  UNL     1      24.714  -1.204  54.770  1.00  0.00    -0.201 F 
HETATM   17  F2  UNL     1      25.679   0.755  54.715  1.00  0.00    -0.201 F 
HETATM   18  C13 UNL     1      23.674   0.531  53.534  1.00  0.00     0.086 C 
HETATM   19  C14 UNL     1      22.578  -0.538  53.741  1.00  0.00     0.137 C 
HETATM   20  H9  UNL     1      28.011   1.610  52.800  1.00  0.00     0.166 HD
ENDROOT
BRANCH   1  21
HETATM   21  C2  UNL     1      19.075  -0.138  52.167  1.00  0.00     0.064 C 
HETATM   22  C1  UNL     1      17.839  -0.537  52.357  1.00  0.00     0.017 C 
ENDBRANCH   1  21
TORSDOF 1
ENDMDL
MODEL 5
REMARK VINA RESULT:      -7.9      4.301      5.777
REMARK  1 active torsions:
REMARK  status: ('A' for Active; 'I' for Inactive)
REMARK    1  A    between atoms: C2_2  and  C3_3 
REMARK       I    between atoms: C3_3  and  N1_5 
ROOT
HETATM    1  C3  UNL     1      25.931   2.773  51.036  1.00  0.00     0.242 C 
HETATM    2  O1  UNL     1      27.075   2.610  51.534  1.00  0.00    -0.268 OA
HETATM    3  N1  UNL     1      24.794   2.050  51.413  1.00  0.00    -0.348 N 
HETATM    4  C4  UNL     1      23.497   2.224  50.861  1.00  0.00     0.131 C 
HETATM    5  C5  UNL     1      22.540   1.306  51.586  1.00  0.00     0.021 C 
HETATM    6  C6  UNL     1      21.526   0.816  50.555  1.00  0.00     0.068 C 
HETATM    7  C7  UNL     1      20.189   0.643  51.026  1.00  0.00     0.063 A 
HETATM    8  N2  UNL     1      20.592   0.116  52.051  1.00  0.00    -0.232 NA
HETATM    9  C8  UNL     1      19.267  -0.034  52.490  1.00  0.00     0.151 A 
HETATM   10  C9  UNL     1      18.824   0.529  51.382  1.00  0.00     0.104 A 
HETATM   11 CL1  UNL     1      17.215   0.853  50.866  1.00  0.00    -0.078 Cl
HETATM   12  N3  UNL     1      19.884  -0.639  53.666  1.00  0.00    -0.349 N 
HETATM   13  C10 UNL     1      20.742   0.154  54.537  1.00  0.00     0.091 C 
HETATM   14  C11 UNL     1      22.046   0.156  54.309  1.00  0.00     0.068 C 
HETATM   15  C12 UNL     1      23.065  -0.378  53.441  1.00  0.00     0.268 C 
HETATM   16  F1  UNL     1      24.246  -0.572  54.216  1.00  0.00    -0.201 F 
HETATM   17  F2  UNL     1      22.706  -1.723  53.177  1.00  0.00    -0.201 F 
HETATM   18  C13 UNL     1      23.406   0.264  52.162  1.00  0.00     0.086 C 
HETATM   19  C14 UNL     1      24.728   1.026  52.404  1.00  0.00     0.137 C 
HETATM   20  H9  UNL     1      19.629  -1.646  53.773  1.00  0.00     0.166 HD
ENDROOT
BRANCH   1  21
HETATM   21  C2  UNL     1      25.896   3.813  50.001  1.00  0.00     0.064 C 
HETATM   22  C1  UNL     1      26.942   4.029  49.237  1.00  0.00     0.017 C 
ENDBRANCH   1  21
TORSDOF 1
ENDMDL
MODEL 6
REMARK VINA RESULT:      -7.8      3.838      6.385
REMARK  1 active torsions:
REMARK  status: ('A' for Active; 'I' for Inactive)
REMARK    1  A    between atoms: C2_2  and  C3_3 
REMARK       I    between atoms: C3_3  and  N1_5 
ROOT
HETATM    1  C3  UNL     1      25.364   4.820  50.007  1.00  0.00     0.242 C 
HETATM    2  O1  UNL     1      26.408   5.371  49.575  1.00  0.00    -0.268 OA
HETATM    3  N1  UNL     1      25.347   3.656  50.785  1.00  0.00    -0.348 N 
HETATM    4  C4  UNL     1      24.177   3.023  51.281  1.00  0.00     0.131 C 
HETATM    5  C5  UNL     1      24.592   1.844  52.129  1.00  0.00     0.021 C 
HETATM    6  C6  UNL     1      23.553   0.746  51.905  1.00  0.00     0.068 C 
HETATM    7  C7  UNL     1      23.236  -0.056  53.043  1.00  0.00     0.063 A 
HETATM    8  N2  UNL     1      24.416  -0.134  53.348  1.00  0.00    -0.232 NA
HETATM    9  C8  UNL     1      24.072  -0.915  54.462  1.00  0.00     0.151 A 
HETATM   10  C9  UNL     1      22.796  -0.840  54.136  1.00  0.00     0.104 A 
HETATM   11 CL1  UNL     1      21.410  -1.512  54.903  1.00  0.00    -0.078 Cl
HETATM   12  N3  UNL     1      25.509  -0.922  54.712  1.00  0.00    -0.349 N 
HETATM   13  C10 UNL     1      26.210   0.319  55.015  1.00  0.00     0.091 C 
HETATM   14  C11 UNL     1      26.758   0.995  54.018  1.00  0.00     0.068 C 
HETATM   15  C12 UNL     1      26.959   0.984  52.591  1.00  0.00     0.268 C 
HETATM   16  F1  UNL     1      28.231   1.568  52.320  1.00  0.00    -0.201 F 
HETATM   17  F2  UNL     1      27.211  -0.362  52.228  1.00  0.00    -0.201 F 
HETATM   18  C13 UNL     1      25.953   1.526  51.664  1.00  0.00     0.086 C 
HETATM   19  C14 UNL     1      26.482   2.906  51.216  1.00  0.00     0.137 C 
HETATM   20  H9  UNL     1      25.917  -1.881  54.647  1.00  0.00     0.166 HD
ENDROOT
BRANCH   1  21
HETATM   21  C2  UNL     1      24.136   5.522  49.615  1.00  0.00     0.064 C 
HETATM   22  C1  UNL     1      23.603   5.321  48.431  1.00  0.00     0.017 C 
ENDBRANCH   1  21
TORSDOF 1
ENDMDL
MODEL 7
REMARK VINA RESULT:      -7.7      4.952      6.188
REMARK  1 active torsions:
REMARK  status: ('A' for Active; 'I' for Inactive)
REMARK    1  A    between atoms: C2_2  and  C3_3 
REMARK       I    between atoms: C3_3  and  N1_5 
ROOT
HETATM    1  C3  UNL     1      25.849   0.412  52.951  1.00  0.00     0.242 C 
HETATM    2  O1  UNL     1      26.614   1.340  52.584  1.00  0.00    -0.268 OA
HETATM    3  N1  UNL     1      24.451   0.470  52.892  1.00  0.00    -0.348 N 
HETATM    4  C4  UNL     1      23.574  -0.570  53.301  1.00  0.00     0.131 C 
HETATM    5  C5  UNL     1      22.155  -0.142  53.011  1.00  0.00     0.021 C 
HETATM    6  C6  UNL     1      21.284  -0.696  54.137  1.00  0.00     0.068 C 
HETATM    7  C7  UNL     1      19.977  -1.130  53.760  1.00  0.00     0.063 A 
HETATM    8  N2  UNL     1      19.826  -0.144  53.055  1.00  0.00    -0.232 NA
HETATM    9  C8  UNL     1      18.547  -0.600  52.699  1.00  0.00     0.151 A 
HETATM   10  C9  UNL     1      18.700  -1.665  53.463  1.00  0.00     0.104 A 
HETATM   11 CL1  UNL     1      17.631  -2.976  53.771  1.00  0.00    -0.078 Cl
HETATM   12  N3  UNL     1      18.502   0.615  51.893  1.00  0.00    -0.349 N 
HETATM   13  C10 UNL     1      19.429   0.797  50.784  1.00  0.00     0.091 C 
HETATM   14  C11 UNL     1      20.570   1.429  51.011  1.00  0.00     0.068 C 
HETATM   15  C12 UNL     1      21.341   2.082  52.038  1.00  0.00     0.268 C 
HETATM   16  F1  UNL     1      22.063   3.153  51.434  1.00  0.00    -0.201 F 
HETATM   17  F2  UNL     1      20.422   2.808  52.835  1.00  0.00    -0.201 F 
HETATM   18  C13 UNL     1      22.228   1.327  52.937  1.00  0.00     0.086 C 
HETATM   19  C14 UNL     1      23.665   1.562  52.420  1.00  0.00     0.137 C 
HETATM   20  H9  UNL     1      17.758   1.275  52.213  1.00  0.00     0.166 HD
ENDROOT
BRANCH   1  21
HETATM   21  C2  UNL     1      26.568  -0.763  53.455  1.00  0.00     0.064 C 
HETATM   22  C1  UNL     1      27.052  -1.656  52.623  1.00  0.00     0.017 C 
ENDBRANCH   1  21
TORSDOF 1
ENDMDL
MODEL 8
REMARK VINA RESULT:      -7.7      4.691      6.576
REMARK  1 active torsions:
REMARK  status: ('A' for Active; 'I' for Inactive)
REMARK    1  A    between atoms: C2_2  and  C3_3 
REMARK       I    between atoms: C3_3  and  N1_5 
ROOT
HETATM    1  C3  UNL     1      18.658  -0.690  52.875  1.00  0.00     0.242 C 
HETATM    2  O1  UNL     1      17.662  -0.323  52.201  1.00  0.00    -0.268 OA
HETATM    3  N1  UNL     1      19.947  -0.162  52.734  1.00  0.00    -0.348 N 
HETATM    4  C4  UNL     1      21.081  -0.566  53.488  1.00  0.00     0.131 C 
HETATM    5  C5  UNL     1      22.257   0.292  53.083  1.00  0.00     0.021 C 
HETATM    6  C6  UNL     1      23.496  -0.599  53.129  1.00  0.00     0.068 C 
HETATM    7  C7  UNL     1      24.702   0.028  53.566  1.00  0.00     0.063 A 
HETATM    8  N2  UNL     1      24.463   1.016  52.889  1.00  0.00    -0.232 NA
HETATM    9  C8  UNL     1      25.652   1.609  53.341  1.00  0.00     0.151 A 
HETATM   10  C9  UNL     1      25.920   0.543  54.071  1.00  0.00     0.104 A 
HETATM   11 CL1  UNL     1      27.257   0.207  55.099  1.00  0.00    -0.078 Cl
HETATM   12  N3  UNL     1      25.241   2.724  52.494  1.00  0.00    -0.349 N 
HETATM   13  C10 UNL     1      24.023   3.465  52.793  1.00  0.00     0.091 C 
HETATM   14  C11 UNL     1      22.895   3.088  52.212  1.00  0.00     0.068 C 
HETATM   15  C12 UNL     1      22.335   2.125  51.297  1.00  0.00     0.268 C 
HETATM   16  F1  UNL     1      21.287   2.764  50.572  1.00  0.00    -0.201 F 
HETATM   17  F2  UNL     1      23.289   1.945  50.266  1.00  0.00    -0.201 F 
HETATM   18  C13 UNL     1      21.893   0.796  51.748  1.00  0.00     0.086 C 
HETATM   19  C14 UNL     1      20.351   0.860  51.825  1.00  0.00     0.137 C 
HETATM   20  H9  UNL     1      25.909   2.890  51.708  1.00  0.00     0.166 HD
ENDROOT
BRANCH   1  21
HETATM   21  C2  UNL     1      18.342  -1.745  53.845  1.00  0.00     0.064 C 
HETATM   22  C1  UNL     1      17.637  -2.793  53.483  1.00  0.00     0.017 C 
ENDBRANCH   1  21
TORSDOF 1
ENDMDL
MODEL 9
REMARK VINA RESULT:      -7.6      3.674      4.810
REMARK  1 active torsions:
REMARK  status: ('A' for Active; 'I' for Inactive)
REMARK    1  A    between atoms: C2_2  and  C3_3 
REMARK       I    between atoms: C3_3  and  N1_5 
ROOT
HETATM    1  C3  UNL     1      28.188   0.698  53.451  1.00  0.00     0.242 C 
HETATM    2  O1  UNL     1      29.049   1.538  53.082  1.00  0.00    -0.268 OA
HETATM    3  N1  UNL     1      26.808   0.851  53.272  1.00  0.00    -0.348 N 
HETATM    4  C4  UNL     1      25.824  -0.088  53.682  1.00  0.00     0.131 C 
HETATM    5  C5  UNL     1      24.469   0.417  53.245  1.00  0.00     0.021 C 
HETATM    6  C6  UNL     1      23.473   0.018  54.332  1.00  0.00     0.068 C 
HETATM    7  C7  UNL     1      22.169  -0.350  53.881  1.00  0.00     0.063 A 
HETATM    8  N2  UNL     1      22.150   0.584  53.095  1.00  0.00    -0.232 NA
HETATM    9  C8  UNL     1      20.871   0.195  52.668  1.00  0.00     0.151 A 
HETATM   10  C9  UNL     1      20.881  -0.814  53.519  1.00  0.00     0.104 A 
HETATM   11 CL1  UNL     1      19.693  -2.017  53.832  1.00  0.00    -0.078 Cl
HETATM   12  N3  UNL     1      20.983   1.342  51.774  1.00  0.00    -0.349 N 
HETATM   13  C10 UNL     1      22.005   1.369  50.735  1.00  0.00     0.091 C 
HETATM   14  C11 UNL     1      23.170   1.933  51.009  1.00  0.00     0.068 C 
HETATM   15  C12 UNL     1      23.908   2.609  52.046  1.00  0.00     0.268 C 
HETATM   16  F1  UNL     1      24.756   3.574  51.427  1.00  0.00    -0.201 F 
HETATM   17  F2  UNL     1      22.989   3.459  52.708  1.00  0.00    -0.201 F 
HETATM   18  C13 UNL     1      24.661   1.866  53.069  1.00  0.00     0.086 C 
HETATM   19  C14 UNL     1      26.148   1.956  52.657  1.00  0.00     0.137 C 
HETATM   20  H9  UNL     1      20.270   2.076  51.982  1.00  0.00     0.166 HD
ENDROOT
BRANCH   1  21
HETATM   21  C2  UNL     1      28.772  -0.481  54.098  1.00  0.00     0.064 C 
HETATM   22  C1  UNL     1      29.647  -1.226  53.462  1.00  0.00     0.017 C 
ENDBRANCH   1  21
TORSDOF 1
ENDMDL
