MODEL 1
REMARK VINA RESULT:      -7.0      0.000      0.000
REMARK  2 active torsions:
REMARK  status: ('A' for Active; 'I' for Inactive)
REMARK    1  A    between atoms: O1_2  and  C2_3 
REMARK    2  A    between atoms: C13_19  and  C14_20 
ROOT
HETATM    1  C2  UNL     1      24.000   0.139  53.204  1.00  0.00     0.066 C 
HETATM    2  C3  UNL     1      24.559   0.784  52.212  1.00  0.00     0.012 C 
HETATM    3  C4  UNL     1      25.895   1.337  51.963  1.00  0.00     0.059 C 
HETATM    4  C5  UNL     1      25.764   2.845  51.728  1.00  0.00     0.117 C 
HETATM    5  N1  UNL     1      24.947   3.365  52.766  1.00  0.00    -0.387 N 
HETATM    6  C6  UNL     1      23.678   4.050  52.752  1.00  0.00     0.134 C 
HETATM    7  C7  UNL     1      22.769   3.981  51.790  1.00  0.00     0.143 C 
HETATM    8  N2  UNL     1      21.385   4.212  52.012  1.00  0.00    -0.223 NA
HETATM    9  C8  UNL     1      20.552   3.275  52.290  1.00  0.00     0.237 C 
HETATM   10  N3  UNL     1      21.172   2.005  52.348  1.00  0.00    -0.230 NA
HETATM   11  C9  UNL     1      20.681   1.015  51.649  1.00  0.00     0.258 C 
HETATM   12  O2  UNL     1      21.496  -0.078  51.911  1.00  0.00    -0.316 OA
HETATM   13  C10 UNL     1      21.712  -0.591  53.163  1.00  0.00     0.146 C 
HETATM   14  C11 UNL     1      22.864  -0.492  53.763  1.00  0.00     0.061 C 
HETATM   15  N4  UNL     1      22.978   3.675  50.397  1.00  0.00    -0.349 N 
HETATM   16  C12 UNL     1      24.224   3.313  49.779  1.00  0.00     0.097 C 
HETATM   17  C13 UNL     1      25.410   3.166  50.356  1.00  0.00    -0.014 C 
HETATM   18  H8  UNL     1      25.392   3.196  53.705  1.00  0.00     0.159 HD
HETATM   19  H14 UNL     1      22.135   3.725  49.793  1.00  0.00     0.167 HD
ENDROOT
BRANCH   1  20
HETATM   20  O1  UNL     1      25.233   0.270  53.790  1.00  0.00    -0.356 OA
HETATM   21  C1  UNL     1      25.588  -0.483  54.934  1.00  0.00     0.210 C 
ENDBRANCH   1  20
BRANCH  17  22
HETATM   22  C14 UNL     1      26.562   3.372  49.407  1.00  0.00     0.260 C 
HETATM   23  F1  UNL     1      26.439   4.613  48.790  1.00  0.00    -0.251 F 
ENDBRANCH  17  22
TORSDOF 2
ENDMDL
MODEL 2
REMARK VINA RESULT:      -6.7      2.072      2.859
REMARK  2 active torsions:
REMARK  status: ('A' for Active; 'I' for Inactive)
REMARK    1  A    between atoms: O1_2  and  C2_3 
REMARK    2  A    between atoms: C13_19  and  C14_20 
ROOT
HETATM    1  C2  UNL     1      22.229   0.580  52.334  1.00  0.00     0.066 C 
HETATM    2  C3  UNL     1      23.529   0.733  52.326  1.00  0.00     0.012 C 
HETATM    3  C4  UNL     1      24.575   0.717  53.355  1.00  0.00     0.059 C 
HETATM    4  C5  UNL     1      25.287   2.072  53.349  1.00  0.00     0.117 C 
HETATM    5  N1  UNL     1      24.284   3.077  53.352  1.00  0.00    -0.387 N 
HETATM    6  C6  UNL     1      23.962   4.129  52.420  1.00  0.00     0.134 C 
HETATM    7  C7  UNL     1      24.262   4.143  51.129  1.00  0.00     0.143 C 
HETATM    8  N2  UNL     1      23.521   4.880  50.167  1.00  0.00    -0.223 NA
HETATM    9  C8  UNL     1      22.540   4.382  49.503  1.00  0.00     0.237 C 
HETATM   10  N3  UNL     1      22.293   3.032  49.844  1.00  0.00    -0.230 NA
HETATM   11  C9  UNL     1      22.224   2.131  48.898  1.00  0.00     0.258 C 
HETATM   12  O2  UNL     1      21.977   0.924  49.539  1.00  0.00    -0.316 OA
HETATM   13  C10 UNL     1      20.891   0.691  50.341  1.00  0.00     0.146 C 
HETATM   14  C11 UNL     1      21.002   0.532  51.630  1.00  0.00     0.061 C 
HETATM   15  N4  UNL     1      25.341   3.453  50.466  1.00  0.00    -0.349 N 
HETATM   16  C12 UNL     1      26.277   2.549  51.072  1.00  0.00     0.097 C 
HETATM   17  C13 UNL     1      26.328   2.150  52.337  1.00  0.00    -0.014 C 
HETATM   18  H8  UNL     1      23.688   3.001  54.216  1.00  0.00     0.159 HD
HETATM   19  H14 UNL     1      25.437   3.640  49.448  1.00  0.00     0.167 HD
ENDROOT
BRANCH   1  20
HETATM   20  O1  UNL     1      22.403   0.420  53.684  1.00  0.00    -0.356 OA
HETATM   21  C1  UNL     1      21.351  -0.035  54.512  1.00  0.00     0.210 C 
ENDBRANCH   1  20
BRANCH  17  22
HETATM   22  C14 UNL     1      27.703   1.712  52.768  1.00  0.00     0.260 C 
HETATM   23  F1  UNL     1      28.351   2.770  53.397  1.00  0.00    -0.251 F 
ENDBRANCH  17  22
TORSDOF 2
ENDMDL
MODEL 3
REMARK VINA RESULT:      -6.3      1.679      2.146
REMARK  2 active torsions:
REMARK  status: ('A' for Active; 'I' for Inactive)
REMARK    1  A    between atoms: O1_2  and  C2_3 
REMARK    2  A    between atoms: C13_19  and  C14_20 
ROOT
HETATM    1  C2  UNL     1      21.584   0.501  52.403  1.00  0.00     0.066 C 
HETATM    2  C3  UNL     1      22.708   0.913  51.872  1.00  0.00     0.012 C 
HETATM    3  C4  UNL     1      24.086   1.054  52.355  1.00  0.00     0.059 C 
HETATM    4  C5  UNL     1      24.498   2.524  52.236  1.00  0.00     0.117 C 
HETATM    5  N1  UNL     1      23.452   3.303  52.796  1.00  0.00    -0.387 N 
HETATM    6  C6  UNL     1      22.591   4.317  52.237  1.00  0.00     0.134 C 
HETATM    7  C7  UNL     1      22.291   4.460  50.954  1.00  0.00     0.143 C 
HETATM    8  N2  UNL     1      21.097   5.083  50.501  1.00  0.00    -0.223 NA
HETATM    9  C8  UNL     1      20.018   4.433  50.248  1.00  0.00     0.237 C 
HETATM   10  N3  UNL     1      20.163   3.045  50.474  1.00  0.00    -0.230 NA
HETATM   11  C9  UNL     1      19.832   2.201  49.531  1.00  0.00     0.258 C 
HETATM   12  O2  UNL     1      20.085   0.936  50.046  1.00  0.00    -0.316 OA
HETATM   13  C10 UNL     1      19.512   0.445  51.190  1.00  0.00     0.146 C 
HETATM   14  C11 UNL     1      20.199   0.243  52.278  1.00  0.00     0.061 C 
HETATM   15  N4  UNL     1      23.066   4.040  49.813  1.00  0.00    -0.349 N 
HETATM   16  C12 UNL     1      24.304   3.312  49.842  1.00  0.00     0.097 C 
HETATM   17  C13 UNL     1      24.964   2.865  50.903  1.00  0.00    -0.014 C 
HETATM   18  H8  UNL     1      23.314   3.062  53.811  1.00  0.00     0.159 HD
HETATM   19  H14 UNL     1      22.677   4.297  48.885  1.00  0.00     0.167 HD
ENDROOT
BRANCH   1  20
HETATM   20  O1  UNL     1      22.354   0.307  53.520  1.00  0.00    -0.356 OA
HETATM   21  C1  UNL     1      21.887  -0.463  54.611  1.00  0.00     0.210 C 
ENDBRANCH   1  20
BRANCH  17  22
HETATM   22  C14 UNL     1      26.440   2.691  50.654  1.00  0.00     0.260 C 
HETATM   23  F1  UNL     1      26.699   2.812  49.293  1.00  0.00    -0.251 F 
ENDBRANCH  17  22
TORSDOF 2
ENDMDL
MODEL 4
REMARK VINA RESULT:      -6.3      1.380      1.546
REMARK  2 active torsions:
REMARK  status: ('A' for Active; 'I' for Inactive)
REMARK    1  A    between atoms: O1_2  and  C2_3 
REMARK    2  A    between atoms: C13_19  and  C14_20 
ROOT
HETATM    1  C2  UNL     1      23.066   0.826  52.016  1.00  0.00     0.066 C 
HETATM    2  C3  UNL     1      23.845   1.570  51.272  1.00  0.00     0.012 C 
HETATM    3  C4  UNL     1      25.228   2.046  51.381  1.00  0.00     0.059 C 
HETATM    4  C5  UNL     1      25.220   3.577  51.382  1.00  0.00     0.117 C 
HETATM    5  N1  UNL     1      24.236   3.994  52.316  1.00  0.00    -0.387 N 
HETATM    6  C6  UNL     1      23.030   4.773  52.172  1.00  0.00     0.134 C 
HETATM    7  C7  UNL     1      22.332   4.927  51.056  1.00  0.00     0.143 C 
HETATM    8  N2  UNL     1      20.945   5.231  51.043  1.00  0.00    -0.223 NA
HETATM    9  C8  UNL     1      20.029   4.332  50.994  1.00  0.00     0.237 C 
HETATM   10  N3  UNL     1      20.564   3.024  50.956  1.00  0.00    -0.230 NA
HETATM   11  C9  UNL     1      20.178   2.196  50.020  1.00  0.00     0.258 C 
HETATM   12  O2  UNL     1      20.869   1.014  50.246  1.00  0.00    -0.316 OA
HETATM   13  C10 UNL     1      20.801   0.298  51.413  1.00  0.00     0.146 C 
HETATM   14  C11 UNL     1      21.811   0.209  52.231  1.00  0.00     0.061 C 
HETATM   15  N4  UNL     1      22.806   4.824  49.698  1.00  0.00    -0.349 N 
HETATM   16  C12 UNL     1      24.132   4.464  49.280  1.00  0.00     0.097 C 
HETATM   17  C13 UNL     1      25.168   4.135  50.041  1.00  0.00    -0.014 C 
HETATM   18  H8  UNL     1      24.471   3.647  53.281  1.00  0.00     0.159 HD
HETATM   19  H14 UNL     1      22.106   5.036  48.960  1.00  0.00     0.167 HD
ENDROOT
BRANCH   1  20
HETATM   20  O1  UNL     1      24.159   0.765  52.841  1.00  0.00    -0.356 OA
HETATM   21  C1  UNL     1      24.343  -0.311  53.741  1.00  0.00     0.210 C 
ENDBRANCH   1  20
BRANCH  17  22
HETATM   22  C14 UNL     1      26.497   4.392  49.380  1.00  0.00     0.260 C 
HETATM   23  F1  UNL     1      27.056   3.184  48.976  1.00  0.00    -0.251 F 
ENDBRANCH  17  22
TORSDOF 2
ENDMDL
MODEL 5
REMARK VINA RESULT:      -6.1      2.134      4.457
REMARK  2 active torsions:
REMARK  status: ('A' for Active; 'I' for Inactive)
REMARK    1  A    between atoms: O1_2  and  C2_3 
REMARK    2  A    between atoms: C13_19  and  C14_20 
ROOT
HETATM    1  C2  UNL     1      22.190   1.693  52.234  1.00  0.00     0.066 C 
HETATM    2  C3  UNL     1      22.119   2.991  52.076  1.00  0.00     0.012 C 
HETATM    3  C4  UNL     1      21.137   3.905  51.481  1.00  0.00     0.059 C 
HETATM    4  C5  UNL     1      21.814   4.676  50.345  1.00  0.00     0.117 C 
HETATM    5  N1  UNL     1      22.501   3.729  49.541  1.00  0.00    -0.387 N 
HETATM    6  C6  UNL     1      23.894   3.570  49.206  1.00  0.00     0.134 C 
HETATM    7  C7  UNL     1      24.921   4.022  49.912  1.00  0.00     0.143 C 
HETATM    8  N2  UNL     1      26.214   3.437  49.865  1.00  0.00    -0.223 NA
HETATM    9  C8  UNL     1      26.600   2.520  50.677  1.00  0.00     0.237 C 
HETATM   10  N3  UNL     1      25.595   2.170  51.608  1.00  0.00    -0.230 NA
HETATM   11  C9  UNL     1      25.871   2.172  52.886  1.00  0.00     0.258 C 
HETATM   12  O2  UNL     1      24.700   1.793  53.530  1.00  0.00    -0.316 OA
HETATM   13  C10 UNL     1      24.049   0.609  53.301  1.00  0.00     0.146 C 
HETATM   14  C11 UNL     1      22.892   0.558  52.705  1.00  0.00     0.061 C 
HETATM   15  N4  UNL     1      24.941   5.138  50.825  1.00  0.00    -0.349 N 
HETATM   16  C12 UNL     1      23.820   5.952  51.205  1.00  0.00     0.097 C 
HETATM   17  C13 UNL     1      22.555   5.832  50.821  1.00  0.00    -0.014 C 
HETATM   18  H8  UNL     1      21.826   3.031  49.135  1.00  0.00     0.159 HD
HETATM   19  H14 UNL     1      25.866   5.364  51.240  1.00  0.00     0.167 HD
ENDROOT
BRANCH   1  20
HETATM   20  O1  UNL     1      20.974   1.697  51.602  1.00  0.00    -0.356 OA
HETATM   21  C1  UNL     1      20.379   0.498  51.142  1.00  0.00     0.210 C 
ENDBRANCH   1  20
BRANCH  17  22
HETATM   22  C14 UNL     1      21.784   7.124  50.902  1.00  0.00     0.260 C 
HETATM   23  F1  UNL     1      22.644   8.193  50.672  1.00  0.00    -0.251 F 
ENDBRANCH  17  22
TORSDOF 2
ENDMDL
MODEL 6
REMARK VINA RESULT:      -6.0     10.656     12.776
REMARK  2 active torsions:
REMARK  status: ('A' for Active; 'I' for Inactive)
REMARK    1  A    between atoms: O1_2  and  C2_3 
REMARK    2  A    between atoms: C13_19  and  C14_20 
ROOT
HETATM    1  C2  UNL     1      33.402   6.992  44.729  1.00  0.00     0.066 C 
HETATM    2  C3  UNL     1      32.753   7.360  45.805  1.00  0.00     0.012 C 
HETATM    3  C4  UNL     1      32.508   8.643  46.473  1.00  0.00     0.059 C 
HETATM    4  C5  UNL     1      33.077   8.572  47.893  1.00  0.00     0.117 C 
HETATM    5  N1  UNL     1      34.391   8.045  47.796  1.00  0.00    -0.387 N 
HETATM    6  C6  UNL     1      35.003   6.857  48.338  1.00  0.00     0.134 C 
HETATM    7  C7  UNL     1      34.367   5.753  48.705  1.00  0.00     0.143 C 
HETATM    8  N2  UNL     1      34.983   4.474  48.730  1.00  0.00    -0.223 NA
HETATM    9  C8  UNL     1      34.950   3.659  47.738  1.00  0.00     0.237 C 
HETATM   10  N3  UNL     1      34.237   4.185  46.636  1.00  0.00    -0.230 NA
HETATM   11  C9  UNL     1      33.277   3.481  46.094  1.00  0.00     0.258 C 
HETATM   12  O2  UNL     1      32.778   4.254  45.054  1.00  0.00    -0.316 OA
HETATM   13  C10 UNL     1      33.534   4.706  44.004  1.00  0.00     0.146 C 
HETATM   14  C11 UNL     1      33.824   5.966  43.850  1.00  0.00     0.061 C 
HETATM   15  N4  UNL     1      32.996   5.626  49.133  1.00  0.00    -0.349 N 
HETATM   16  C12 UNL     1      32.015   6.674  49.182  1.00  0.00     0.097 C 
HETATM   17  C13 UNL     1      32.158   7.945  48.829  1.00  0.00    -0.014 C 
HETATM   18  H8  UNL     1      34.999   8.674  47.209  1.00  0.00     0.159 HD
HETATM   19  H14 UNL     1      32.704   4.675  49.433  1.00  0.00     0.167 HD
ENDROOT
BRANCH   1  20
HETATM   20  O1  UNL     1      33.678   8.330  44.615  1.00  0.00    -0.356 OA
HETATM   21  C1  UNL     1      34.629   8.809  43.684  1.00  0.00     0.210 C 
ENDBRANCH   1  20
BRANCH  17  22
HETATM   22  C14 UNL     1      31.197   8.869  49.530  1.00  0.00     0.260 C 
HETATM   23  F1  UNL     1      31.296  10.144  48.982  1.00  0.00    -0.251 F 
ENDBRANCH  17  22
TORSDOF 2
ENDMDL
MODEL 7
REMARK VINA RESULT:      -6.0      2.864      3.758
REMARK  2 active torsions:
REMARK  status: ('A' for Active; 'I' for Inactive)
REMARK    1  A    between atoms: O1_2  and  C2_3 
REMARK    2  A    between atoms: C13_19  and  C14_20 
ROOT
HETATM    1  C2  UNL     1      22.878   2.539  49.985  1.00  0.00     0.066 C 
HETATM    2  C3  UNL     1      23.872   3.236  49.496  1.00  0.00     0.012 C 
HETATM    3  C4  UNL     1      25.320   3.270  49.729  1.00  0.00     0.059 C 
HETATM    4  C5  UNL     1      25.706   4.675  50.200  1.00  0.00     0.117 C 
HETATM    5  N1  UNL     1      24.798   5.041  51.228  1.00  0.00    -0.387 N 
HETATM    6  C6  UNL     1      23.847   6.118  51.345  1.00  0.00     0.134 C 
HETATM    7  C7  UNL     1      23.293   6.779  50.338  1.00  0.00     0.143 C 
HETATM    8  N2  UNL     1      22.035   7.431  50.435  1.00  0.00    -0.223 NA
HETATM    9  C8  UNL     1      20.924   6.866  50.124  1.00  0.00     0.237 C 
HETATM   10  N3  UNL     1      21.106   5.536  49.680  1.00  0.00    -0.230 NA
HETATM   11  C9  UNL     1      20.588   5.160  48.539  1.00  0.00     0.258 C 
HETATM   12  O2  UNL     1      20.934   3.825  48.384  1.00  0.00    -0.316 OA
HETATM   13  C10 UNL     1      20.602   2.838  49.276  1.00  0.00     0.146 C 
HETATM   14  C11 UNL     1      21.494   2.243  50.015  1.00  0.00     0.061 C 
HETATM   15  N4  UNL     1      23.819   6.964  49.009  1.00  0.00    -0.349 N 
HETATM   16  C12 UNL     1      25.034   6.406  48.484  1.00  0.00     0.097 C 
HETATM   17  C13 UNL     1      25.894   5.601  49.095  1.00  0.00    -0.014 C 
HETATM   18  H8  UNL     1      24.867   4.371  52.037  1.00  0.00     0.159 HD
HETATM   19  H14 UNL     1      23.251   7.565  48.379  1.00  0.00     0.167 HD
ENDROOT
BRANCH   1  20
HETATM   20  O1  UNL     1      23.857   1.945  50.738  1.00  0.00    -0.356 OA
HETATM   21  C1  UNL     1      23.544   1.219  51.911  1.00  0.00     0.210 C 
ENDBRANCH   1  20
BRANCH  17  22
HETATM   22  C14 UNL     1      27.288   5.680  48.530  1.00  0.00     0.260 C 
HETATM   23  F1  UNL     1      27.814   4.397  48.411  1.00  0.00    -0.251 F 
ENDBRANCH  17  22
TORSDOF 2
ENDMDL
MODEL 8
REMARK VINA RESULT:      -6.0      2.977      4.957
REMARK  2 active torsions:
REMARK  status: ('A' for Active; 'I' for Inactive)
REMARK    1  A    between atoms: O1_2  and  C2_3 
REMARK    2  A    between atoms: C13_19  and  C14_20 
ROOT
HETATM    1  C2  UNL     1      24.322   3.040  51.622  1.00  0.00     0.066 C 
HETATM    2  C3  UNL     1      23.659   2.309  52.482  1.00  0.00     0.012 C 
HETATM    3  C4  UNL     1      23.862   0.986  53.082  1.00  0.00     0.059 C 
HETATM    4  C5  UNL     1      22.667   0.098  52.723  1.00  0.00     0.117 C 
HETATM    5  N1  UNL     1      22.445   0.233  51.327  1.00  0.00    -0.387 N 
HETATM    6  C6  UNL     1      21.315   0.707  50.566  1.00  0.00     0.134 C 
HETATM    7  C7  UNL     1      20.372   1.528  51.004  1.00  0.00     0.143 C 
HETATM    8  N2  UNL     1      19.610   2.364  50.145  1.00  0.00    -0.223 NA
HETATM    9  C8  UNL     1      19.942   3.572  49.864  1.00  0.00     0.237 C 
HETATM   10  N3  UNL     1      21.142   3.961  50.504  1.00  0.00    -0.230 NA
HETATM   11  C9  UNL     1      21.169   5.063  51.208  1.00  0.00     0.258 C 
HETATM   12  O2  UNL     1      22.463   5.168  51.702  1.00  0.00    -0.316 OA
HETATM   13  C10 UNL     1      23.583   5.213  50.913  1.00  0.00     0.146 C 
HETATM   14  C11 UNL     1      24.442   4.235  50.873  1.00  0.00     0.061 C 
HETATM   15  N4  UNL     1      19.944   1.735  52.365  1.00  0.00    -0.349 N 
HETATM   16  C12 UNL     1      20.510   1.132  53.540  1.00  0.00     0.097 C 
HETATM   17  C13 UNL     1      21.538   0.296  53.615  1.00  0.00    -0.014 C 
HETATM   18  H8  UNL     1      23.290  -0.085  50.786  1.00  0.00     0.159 HD
HETATM   19  H14 UNL     1      19.146   2.387  52.493  1.00  0.00     0.167 HD
ENDROOT
BRANCH   1  20
HETATM   20  O1  UNL     1      25.195   1.983  51.618  1.00  0.00    -0.356 OA
HETATM   21  C1  UNL     1      26.540   2.140  51.211  1.00  0.00     0.210 C 
ENDBRANCH   1  20
BRANCH  17  22
HETATM   22  C14 UNL     1      21.501  -0.582  54.839  1.00  0.00     0.260 C 
HETATM   23  F1  UNL     1      21.581  -1.917  54.455  1.00  0.00    -0.251 F 
ENDBRANCH  17  22
TORSDOF 2
ENDMDL
MODEL 9
REMARK VINA RESULT:      -5.9      2.283      4.441
REMARK  2 active torsions:
REMARK  status: ('A' for Active; 'I' for Inactive)
REMARK    1  A    between atoms: O1_2  and  C2_3 
REMARK    2  A    between atoms: C13_19  and  C14_20 
ROOT
HETATM    1  C2  UNL     1      23.814  -0.087  53.579  1.00  0.00     0.066 C 
HETATM    2  C3  UNL     1      23.106   0.995  53.377  1.00  0.00     0.012 C 
HETATM    3  C4  UNL     1      21.756   1.264  52.868  1.00  0.00     0.059 C 
HETATM    4  C5  UNL     1      21.870   2.152  51.626  1.00  0.00     0.117 C 
HETATM    5  N1  UNL     1      22.859   1.579  50.785  1.00  0.00    -0.387 N 
HETATM    6  C6  UNL     1      24.119   2.077  50.288  1.00  0.00     0.134 C 
HETATM    7  C7  UNL     1      24.851   3.031  50.845  1.00  0.00     0.143 C 
HETATM    8  N2  UNL     1      26.256   3.137  50.665  1.00  0.00    -0.223 NA
HETATM    9  C8  UNL     1      27.109   2.601  51.461  1.00  0.00     0.237 C 
HETATM   10  N3  UNL     1      26.486   1.903  52.522  1.00  0.00    -0.230 NA
HETATM   11  C9  UNL     1      26.835   2.160  53.756  1.00  0.00     0.258 C 
HETATM   12  O2  UNL     1      26.059   1.330  54.553  1.00  0.00    -0.316 OA
HETATM   13  C10 UNL     1      26.050  -0.037  54.456  1.00  0.00     0.146 C 
HETATM   14  C11 UNL     1      25.019  -0.694  54.008  1.00  0.00     0.061 C 
HETATM   15  N4  UNL     1      24.402   4.102  51.700  1.00  0.00    -0.349 N 
HETATM   16  C12 UNL     1      23.064   4.310  52.179  1.00  0.00     0.097 C 
HETATM   17  C13 UNL     1      21.991   3.562  51.958  1.00  0.00    -0.014 C 
HETATM   18  H8  UNL     1      22.578   0.607  50.494  1.00  0.00     0.159 HD
HETATM   19  H14 UNL     1      25.132   4.783  51.989  1.00  0.00     0.167 HD
ENDROOT
BRANCH   1  20
HETATM   20  O1  UNL     1      22.701  -0.728  53.101  1.00  0.00    -0.356 OA
HETATM   21  C1  UNL     1      22.032  -1.711  53.867  1.00  0.00     0.210 C 
ENDBRANCH   1  20
BRANCH  17  22
HETATM   22  C14 UNL     1      20.698   4.326  52.078  1.00  0.00     0.260 C 
HETATM   23  F1  UNL     1      19.635   3.431  52.142  1.00  0.00    -0.251 F 
ENDBRANCH  17  22
TORSDOF 2
ENDMDL
