MODEL 1
REMARK VINA RESULT:      -8.9      0.000      0.000
REMARK  6 active torsions:
REMARK  status: ('A' for Active; 'I' for Inactive)
REMARK       I    between atoms: C1_2  and  N1_3 
REMARK    1  A    between atoms: C1_2  and  C17_24 
REMARK    2  A    between atoms: N1_3  and  C2_4 
REMARK    3  A    between atoms: C6_8  and  N2_9 
REMARK    4  A    between atoms: N2_9  and  C7_10 
REMARK    5  A    between atoms: C7_10  and  S1_11 
REMARK    6  A    between atoms: C10_15  and  C11_16 
ROOT
HETATM    1  C2  UNL     1      25.567   3.543  49.924  1.00  0.00     0.037 A 
HETATM    2  C3  UNL     1      26.019   4.814  49.635  1.00  0.00     0.029 A 
HETATM    3  C4  UNL     1      25.183   5.672  48.952  1.00  0.00     0.004 A 
HETATM    4  C5  UNL     1      23.925   5.227  48.585  1.00  0.00     0.029 A 
HETATM    5  C6  UNL     1      23.432   3.969  48.853  1.00  0.00     0.030 A 
HETATM    6  C16 UNL     1      24.303   3.152  49.534  1.00  0.00     0.058 A 
ENDROOT
BRANCH   5   7
HETATM    7  N2  UNL     1      22.142   3.533  48.467  1.00  0.00    -0.379 N 
HETATM    8  H5  UNL     1      21.396   4.285  48.368  1.00  0.00     0.160 HD
BRANCH   7   9
HETATM    9  C7  UNL     1      21.792   2.153  48.207  1.00  0.00     0.231 C 
BRANCH   9  10
HETATM   10  S1  UNL     1      20.931   1.368  49.624  1.00  0.00     0.035 SA
HETATM   11  N3  UNL     1      19.327   1.229  49.704  1.00  0.00    -0.216 NA
HETATM   12  C8  UNL     1      18.835   0.583  50.896  1.00  0.00     0.129 A 
HETATM   13  C9  UNL     1      19.566   0.101  51.916  1.00  0.00     0.053 A 
HETATM   14  C10 UNL     1      21.020   0.161  51.972  1.00  0.00     0.079 A 
HETATM   15  N5  UNL     1      21.766   0.690  51.037  1.00  0.00    -0.204 NA
BRANCH  14  16
HETATM   16  C11 UNL     1      21.759  -0.379  53.107  1.00  0.00     0.011 A 
HETATM   17  C12 UNL     1      23.117  -0.186  53.220  1.00  0.00     0.017 A 
HETATM   18  C13 UNL     1      23.842  -0.688  54.286  1.00  0.00     0.020 A 
HETATM   19  C14 UNL     1      23.201  -1.403  55.271  1.00  0.00     0.116 A 
HETATM   20  N4  UNL     1      21.887  -1.597  55.175  1.00  0.00    -0.272 NA
HETATM   21  C15 UNL     1      21.198  -1.105  54.136  1.00  0.00     0.130 A 
ENDBRANCH  14  16
ENDBRANCH   9  10
ENDBRANCH   7   9
ENDBRANCH   5   7
BRANCH   1  22
HETATM   22  N1  UNL     1      26.427   2.658  50.627  1.00  0.00    -0.323 N 
HETATM   23  C1  UNL     1      26.251   2.247  51.967  1.00  0.00     0.256 C 
HETATM   24  O1  UNL     1      25.284   2.651  52.661  1.00  0.00    -0.267 OA
HETATM   25  H1  UNL     1      27.225   2.325  50.050  1.00  0.00     0.169 HD
BRANCH  23  26
HETATM   26  C17 UNL     1      27.179   1.333  52.622  1.00  0.00     0.035 A 
HETATM   27  C18 UNL     1      27.021  -0.028  52.456  1.00  0.00     0.036 A 
HETATM   28  C19 UNL     1      27.917  -0.869  53.090  1.00  0.00     0.117 A 
HETATM   29  N6  UNL     1      28.944  -0.462  53.866  1.00  0.00    -0.273 NA
HETATM   30  C20 UNL     1      29.102   0.866  54.032  1.00  0.00     0.117 A 
HETATM   31  C21 UNL     1      28.234   1.724  53.420  1.00  0.00     0.036 A 
ENDBRANCH  23  26
ENDBRANCH   1  22
TORSDOF 6
ENDMDL
MODEL 2
REMARK VINA RESULT:      -8.7      4.584      6.040
REMARK  6 active torsions:
REMARK  status: ('A' for Active; 'I' for Inactive)
REMARK       I    between atoms: C1_2  and  N1_3 
REMARK    1  A    between atoms: C1_2  and  C17_24 
REMARK    2  A    between atoms: N1_3  and  C2_4 
REMARK    3  A    between atoms: C6_8  and  N2_9 
REMARK    4  A    between atoms: N2_9  and  C7_10 
REMARK    5  A    between atoms: C7_10  and  S1_11 
REMARK    6  A    between atoms: C10_15  and  C11_16 
ROOT
HETATM    1  C2  UNL     1      28.868   5.685  48.159  1.00  0.00     0.037 A 
HETATM    2  C3  UNL     1      28.611   7.041  48.160  1.00  0.00     0.029 A 
HETATM    3  C4  UNL     1      27.373   7.477  48.581  1.00  0.00     0.004 A 
HETATM    4  C5  UNL     1      26.438   6.540  48.986  1.00  0.00     0.029 A 
HETATM    5  C6  UNL     1      26.651   5.179  49.002  1.00  0.00     0.030 A 
HETATM    6  C16 UNL     1      27.899   4.796  48.574  1.00  0.00     0.058 A 
ENDROOT
BRANCH   5   7
HETATM    7  N2  UNL     1      25.680   4.238  49.420  1.00  0.00    -0.379 N 
HETATM    8  H5  UNL     1      25.563   3.374  48.810  1.00  0.00     0.160 HD
BRANCH   7   9
HETATM    9  C7  UNL     1      24.856   4.385  50.601  1.00  0.00     0.231 C 
BRANCH   9  10
HETATM   10  S1  UNL     1      24.682   2.816  51.536  1.00  0.00     0.035 SA
HETATM   11  N3  UNL     1      23.271   2.297  52.116  1.00  0.00    -0.216 NA
HETATM   12  C8  UNL     1      23.333   1.042  52.824  1.00  0.00     0.129 A 
HETATM   13  C9  UNL     1      24.425   0.288  53.040  1.00  0.00     0.053 A 
HETATM   14  C10 UNL     1      25.759   0.640  52.574  1.00  0.00     0.079 A 
HETATM   15  N5  UNL     1      26.034   1.724  51.896  1.00  0.00    -0.204 NA
BRANCH  14  16
HETATM   16  C11 UNL     1      26.907  -0.220  52.840  1.00  0.00     0.011 A 
HETATM   17  C12 UNL     1      28.109   0.316  53.241  1.00  0.00     0.017 A 
HETATM   18  C13 UNL     1      29.214  -0.476  53.501  1.00  0.00     0.020 A 
HETATM   19  C14 UNL     1      29.123  -1.842  53.358  1.00  0.00     0.116 A 
HETATM   20  N4  UNL     1      27.965  -2.373  52.971  1.00  0.00    -0.272 NA
HETATM   21  C15 UNL     1      26.904  -1.593  52.723  1.00  0.00     0.130 A 
ENDBRANCH  14  16
ENDBRANCH   9  10
ENDBRANCH   7   9
ENDBRANCH   5   7
BRANCH   1  22
HETATM   22  N1  UNL     1      30.144   5.234  47.726  1.00  0.00    -0.323 N 
HETATM   23  C1  UNL     1      31.304   5.180  48.531  1.00  0.00     0.256 C 
HETATM   24  O1  UNL     1      31.290   5.541  49.735  1.00  0.00    -0.267 OA
HETATM   25  H1  UNL     1      30.151   4.936  46.730  1.00  0.00     0.169 HD
BRANCH  23  26
HETATM   26  C17 UNL     1      32.581   4.703  48.014  1.00  0.00     0.035 A 
HETATM   27  C18 UNL     1      32.609   3.589  47.201  1.00  0.00     0.036 A 
HETATM   28  C19 UNL     1      33.836   3.161  46.727  1.00  0.00     0.117 A 
HETATM   29  N6  UNL     1      35.019   3.752  46.998  1.00  0.00    -0.273 NA
HETATM   30  C20 UNL     1      34.997   4.840  47.792  1.00  0.00     0.117 A 
HETATM   31  C21 UNL     1      33.802   5.288  48.278  1.00  0.00     0.036 A 
ENDBRANCH  23  26
ENDBRANCH   1  22
TORSDOF 6
ENDMDL
MODEL 3
REMARK VINA RESULT:      -8.7      1.973      2.432
REMARK  6 active torsions:
REMARK  status: ('A' for Active; 'I' for Inactive)
REMARK       I    between atoms: C1_2  and  N1_3 
REMARK    1  A    between atoms: C1_2  and  C17_24 
REMARK    2  A    between atoms: N1_3  and  C2_4 
REMARK    3  A    between atoms: C6_8  and  N2_9 
REMARK    4  A    between atoms: N2_9  and  C7_10 
REMARK    5  A    between atoms: C7_10  and  S1_11 
REMARK    6  A    between atoms: C10_15  and  C11_16 
ROOT
HETATM    1  C2  UNL     1      25.842   3.027  50.770  1.00  0.00     0.037 A 
HETATM    2  C3  UNL     1      26.453   3.635  49.694  1.00  0.00     0.029 A 
HETATM    3  C4  UNL     1      26.020   4.887  49.311  1.00  0.00     0.004 A 
HETATM    4  C5  UNL     1      24.993   5.484  50.020  1.00  0.00     0.029 A 
HETATM    5  C6  UNL     1      24.355   4.916  51.100  1.00  0.00     0.030 A 
HETATM    6  C16 UNL     1      24.821   3.669  51.442  1.00  0.00     0.058 A 
ENDROOT
BRANCH   5   7
HETATM    7  N2  UNL     1      23.305   5.544  51.811  1.00  0.00    -0.379 N 
HETATM    8  H5  UNL     1      23.539   5.903  52.785  1.00  0.00     0.160 HD
BRANCH   7   9
HETATM    9  C7  UNL     1      21.963   5.718  51.298  1.00  0.00     0.231 C 
BRANCH   9  10
HETATM   10  S1  UNL     1      20.927   4.220  51.518  1.00  0.00     0.035 SA
HETATM   11  N3  UNL     1      19.426   4.104  50.942  1.00  0.00    -0.216 NA
HETATM   12  C8  UNL     1      18.769   2.850  51.214  1.00  0.00     0.129 A 
HETATM   13  C9  UNL     1      19.275   1.799  51.884  1.00  0.00     0.053 A 
HETATM   14  C10 UNL     1      20.614   1.771  52.456  1.00  0.00     0.079 A 
HETATM   15  N5  UNL     1      21.463   2.763  52.378  1.00  0.00    -0.204 NA
BRANCH  14  16
HETATM   16  C11 UNL     1      21.108   0.601  53.173  1.00  0.00     0.011 A 
HETATM   17  C12 UNL     1      20.250  -0.403  53.558  1.00  0.00     0.017 A 
HETATM   18  C13 UNL     1      20.692  -1.523  54.239  1.00  0.00     0.020 A 
HETATM   19  C14 UNL     1      22.027  -1.651  54.549  1.00  0.00     0.116 A 
HETATM   20  N4  UNL     1      22.868  -0.686  54.182  1.00  0.00    -0.272 NA
HETATM   21  C15 UNL     1      22.425   0.393  53.523  1.00  0.00     0.130 A 
ENDBRANCH  14  16
ENDBRANCH   9  10
ENDBRANCH   7   9
ENDBRANCH   5   7
BRANCH   1  22
HETATM   22  N1  UNL     1      26.286   1.737  51.167  1.00  0.00    -0.323 N 
HETATM   23  C1  UNL     1      27.138   1.472  52.262  1.00  0.00     0.256 C 
HETATM   24  O1  UNL     1      27.583   2.393  52.992  1.00  0.00    -0.267 OA
HETATM   25  H1  UNL     1      25.916   0.978  50.560  1.00  0.00     0.169 HD
BRANCH  23  26
HETATM   26  C17 UNL     1      27.551   0.117  52.607  1.00  0.00     0.035 A 
HETATM   27  C18 UNL     1      28.766  -0.085  53.228  1.00  0.00     0.036 A 
HETATM   28  C19 UNL     1      29.130  -1.382  53.541  1.00  0.00     0.117 A 
HETATM   29  N6  UNL     1      28.383  -2.477  53.288  1.00  0.00    -0.273 NA
HETATM   30  C20 UNL     1      27.195  -2.286  52.682  1.00  0.00     0.117 A 
HETATM   31  C21 UNL     1      26.806  -1.018  52.357  1.00  0.00     0.036 A 
ENDBRANCH  23  26
ENDBRANCH   1  22
TORSDOF 6
ENDMDL
MODEL 4
REMARK VINA RESULT:      -8.5      2.602      5.084
REMARK  6 active torsions:
REMARK  status: ('A' for Active; 'I' for Inactive)
REMARK       I    between atoms: C1_2  and  N1_3 
REMARK    1  A    between atoms: C1_2  and  C17_24 
REMARK    2  A    between atoms: N1_3  and  C2_4 
REMARK    3  A    between atoms: C6_8  and  N2_9 
REMARK    4  A    between atoms: N2_9  and  C7_10 
REMARK    5  A    between atoms: C7_10  and  S1_11 
REMARK    6  A    between atoms: C10_15  and  C11_16 
ROOT
HETATM    1  C2  UNL     1      23.998   4.400  50.952  1.00  0.00     0.037 A 
HETATM    2  C3  UNL     1      23.335   5.119  51.925  1.00  0.00     0.029 A 
HETATM    3  C4  UNL     1      22.106   4.667  52.356  1.00  0.00     0.004 A 
HETATM    4  C5  UNL     1      21.587   3.511  51.800  1.00  0.00     0.029 A 
HETATM    5  C6  UNL     1      22.213   2.761  50.829  1.00  0.00     0.030 A 
HETATM    6  C16 UNL     1      23.434   3.254  50.432  1.00  0.00     0.058 A 
ENDROOT
BRANCH   5   7
HETATM    7  N2  UNL     1      21.664   1.582  50.272  1.00  0.00    -0.379 N 
HETATM    8  H5  UNL     1      21.838   1.420  49.235  1.00  0.00     0.160 HD
BRANCH   7   9
HETATM    9  C7  UNL     1      20.894   0.609  51.018  1.00  0.00     0.231 C 
BRANCH   9  10
HETATM   10  S1  UNL     1      21.786  -0.007  52.498  1.00  0.00     0.035 SA
HETATM   11  N3  UNL     1      21.028  -0.618  53.783  1.00  0.00    -0.216 NA
HETATM   12  C8  UNL     1      21.898  -1.049  54.849  1.00  0.00     0.129 A 
HETATM   13  C9  UNL     1      23.241  -0.991  54.872  1.00  0.00     0.053 A 
HETATM   14  C10 UNL     1      24.049  -0.463  53.781  1.00  0.00     0.079 A 
HETATM   15  N5  UNL     1      23.553   0.009  52.667  1.00  0.00    -0.204 NA
BRANCH  14  16
HETATM   16  C11 UNL     1      25.504  -0.425  53.864  1.00  0.00     0.011 A 
HETATM   17  C12 UNL     1      26.280  -0.750  52.776  1.00  0.00     0.017 A 
HETATM   18  C13 UNL     1      27.663  -0.723  52.827  1.00  0.00     0.020 A 
HETATM   19  C14 UNL     1      28.295  -0.363  53.995  1.00  0.00     0.116 A 
HETATM   20  N4  UNL     1      27.556  -0.046  55.056  1.00  0.00    -0.272 NA
HETATM   21  C15 UNL     1      26.217  -0.077  54.991  1.00  0.00     0.130 A 
ENDBRANCH  14  16
ENDBRANCH   9  10
ENDBRANCH   7   9
ENDBRANCH   5   7
BRANCH   1  22
HETATM   22  N1  UNL     1      25.264   4.864  50.506  1.00  0.00    -0.323 N 
HETATM   23  C1  UNL     1      25.502   5.529  49.283  1.00  0.00     0.256 C 
HETATM   24  O1  UNL     1      24.574   5.768  48.469  1.00  0.00    -0.267 OA
HETATM   25  H1  UNL     1      26.029   4.666  51.182  1.00  0.00     0.169 HD
BRANCH  23  26
HETATM   26  C17 UNL     1      26.833   5.978  48.894  1.00  0.00     0.035 A 
HETATM   27  C18 UNL     1      27.116   7.328  48.873  1.00  0.00     0.036 A 
HETATM   28  C19 UNL     1      28.387   7.721  48.499  1.00  0.00     0.117 A 
HETATM   29  N6  UNL     1      29.385   6.882  48.150  1.00  0.00    -0.273 NA
HETATM   30  C20 UNL     1      29.115   5.562  48.169  1.00  0.00     0.117 A 
HETATM   31  C21 UNL     1      27.868   5.140  48.533  1.00  0.00     0.036 A 
ENDBRANCH  23  26
ENDBRANCH   1  22
TORSDOF 6
ENDMDL
MODEL 5
REMARK VINA RESULT:      -8.5      2.128      6.054
REMARK  6 active torsions:
REMARK  status: ('A' for Active; 'I' for Inactive)
REMARK       I    between atoms: C1_2  and  N1_3 
REMARK    1  A    between atoms: C1_2  and  C17_24 
REMARK    2  A    between atoms: N1_3  and  C2_4 
REMARK    3  A    between atoms: C6_8  and  N2_9 
REMARK    4  A    between atoms: N2_9  and  C7_10 
REMARK    5  A    between atoms: C7_10  and  S1_11 
REMARK    6  A    between atoms: C10_15  and  C11_16 
ROOT
HETATM    1  C2  UNL     1      23.640  -0.204  53.470  1.00  0.00     0.037 A 
HETATM    2  C3  UNL     1      22.871  -0.837  54.425  1.00  0.00     0.029 A 
HETATM    3  C4  UNL     1      21.541  -0.490  54.536  1.00  0.00     0.004 A 
HETATM    4  C5  UNL     1      21.030   0.476  53.687  1.00  0.00     0.029 A 
HETATM    5  C6  UNL     1      21.759   1.131  52.719  1.00  0.00     0.030 A 
HETATM    6  C16 UNL     1      23.078   0.751  52.649  1.00  0.00     0.058 A 
ENDROOT
BRANCH   5   7
HETATM    7  N2  UNL     1      21.216   2.117  51.861  1.00  0.00    -0.379 N 
HETATM    8  H5  UNL     1      21.076   1.837  50.844  1.00  0.00     0.160 HD
BRANCH   7   9
HETATM    9  C7  UNL     1      20.851   3.453  52.282  1.00  0.00     0.231 C 
BRANCH   9  10
HETATM   10  S1  UNL     1      21.795   4.752  51.394  1.00  0.00     0.035 SA
HETATM   11  N3  UNL     1      21.211   6.231  51.133  1.00  0.00    -0.216 NA
HETATM   12  C8  UNL     1      22.099   7.114  50.417  1.00  0.00     0.129 A 
HETATM   13  C9  UNL     1      23.331   6.827  49.962  1.00  0.00     0.053 A 
HETATM   14  C10 UNL     1      23.978   5.533  50.129  1.00  0.00     0.079 A 
HETATM   15  N5  UNL     1      23.428   4.515  50.739  1.00  0.00    -0.204 NA
BRANCH  14  16
HETATM   16  C11 UNL     1      25.317   5.281  49.611  1.00  0.00     0.011 A 
HETATM   17  C12 UNL     1      26.020   6.272  48.966  1.00  0.00     0.017 A 
HETATM   18  C13 UNL     1      27.293   6.061  48.464  1.00  0.00     0.020 A 
HETATM   19  C14 UNL     1      27.886   4.828  48.608  1.00  0.00     0.116 A 
HETATM   20  N4  UNL     1      27.216   3.859  49.230  1.00  0.00    -0.272 NA
HETATM   21  C15 UNL     1      25.985   4.079  49.710  1.00  0.00     0.130 A 
ENDBRANCH  14  16
ENDBRANCH   9  10
ENDBRANCH   7   9
ENDBRANCH   5   7
BRANCH   1  22
HETATM   22  N1  UNL     1      25.010  -0.560  53.353  1.00  0.00    -0.323 N 
HETATM   23  C1  UNL     1      26.095   0.223  53.807  1.00  0.00     0.256 C 
HETATM   24  O1  UNL     1      25.919   1.334  54.367  1.00  0.00    -0.267 OA
HETATM   25  H1  UNL     1      25.151  -1.480  52.890  1.00  0.00     0.169 HD
BRANCH  23  26
HETATM   26  C17 UNL     1      27.478  -0.211  53.652  1.00  0.00     0.035 A 
HETATM   27  C18 UNL     1      27.742  -1.492  53.212  1.00  0.00     0.036 A 
HETATM   28  C19 UNL     1      29.064  -1.874  53.076  1.00  0.00     0.117 A 
HETATM   29  N6  UNL     1      30.128  -1.086  53.341  1.00  0.00    -0.273 NA
HETATM   30  C20 UNL     1      29.876   0.166  53.770  1.00  0.00     0.117 A 
HETATM   31  C21 UNL     1      28.581   0.574  53.916  1.00  0.00     0.036 A 
ENDBRANCH  23  26
ENDBRANCH   1  22
TORSDOF 6
ENDMDL
MODEL 6
REMARK VINA RESULT:      -8.4      4.573      5.798
REMARK  6 active torsions:
REMARK  status: ('A' for Active; 'I' for Inactive)
REMARK       I    between atoms: C1_2  and  N1_3 
REMARK    1  A    between atoms: C1_2  and  C17_24 
REMARK    2  A    between atoms: N1_3  and  C2_4 
REMARK    3  A    between atoms: C6_8  and  N2_9 
REMARK    4  A    between atoms: N2_9  and  C7_10 
REMARK    5  A    between atoms: C7_10  and  S1_11 
REMARK    6  A    between atoms: C10_15  and  C11_16 
ROOT
HETATM    1  C2  UNL     1      28.875   5.906  48.171  1.00  0.00     0.037 A 
HETATM    2  C3  UNL     1      28.640   7.260  48.293  1.00  0.00     0.029 A 
HETATM    3  C4  UNL     1      27.412   7.676  48.763  1.00  0.00     0.004 A 
HETATM    4  C5  UNL     1      26.467   6.723  49.096  1.00  0.00     0.029 A 
HETATM    5  C6  UNL     1      26.658   5.363  48.992  1.00  0.00     0.030 A 
HETATM    6  C16 UNL     1      27.896   4.998  48.518  1.00  0.00     0.058 A 
ENDROOT
BRANCH   5   7
HETATM    7  N2  UNL     1      25.676   4.403  49.337  1.00  0.00    -0.379 N 
HETATM    8  H5  UNL     1      25.394   3.717  48.575  1.00  0.00     0.160 HD
BRANCH   7   9
HETATM    9  C7  UNL     1      25.049   4.310  50.638  1.00  0.00     0.231 C 
BRANCH   9  10
HETATM   10  S1  UNL     1      25.290   2.668  51.419  1.00  0.00     0.035 SA
HETATM   11  N3  UNL     1      26.714   1.913  51.442  1.00  0.00    -0.216 NA
HETATM   12  C8  UNL     1      26.707   0.630  52.101  1.00  0.00     0.129 A 
HETATM   13  C9  UNL     1      25.656   0.023  52.680  1.00  0.00     0.053 A 
HETATM   14  C10 UNL     1      24.316   0.592  52.729  1.00  0.00     0.079 A 
HETATM   15  N5  UNL     1      23.996   1.751  52.217  1.00  0.00    -0.204 NA
BRANCH  14  16
HETATM   16  C11 UNL     1      23.215  -0.116  53.371  1.00  0.00     0.011 A 
HETATM   17  C12 UNL     1      21.933  -0.014  52.883  1.00  0.00     0.017 A 
HETATM   18  C13 UNL     1      20.869  -0.674  53.473  1.00  0.00     0.020 A 
HETATM   19  C14 UNL     1      21.084  -1.460  54.582  1.00  0.00     0.116 A 
HETATM   20  N4  UNL     1      22.321  -1.568  55.064  1.00  0.00    -0.272 NA
HETATM   21  C15 UNL     1      23.340  -0.922  54.482  1.00  0.00     0.130 A 
ENDBRANCH  14  16
ENDBRANCH   9  10
ENDBRANCH   7   9
ENDBRANCH   5   7
BRANCH   1  22
HETATM   22  N1  UNL     1      30.139   5.475  47.687  1.00  0.00    -0.323 N 
HETATM   23  C1  UNL     1      31.287   5.265  48.483  1.00  0.00     0.256 C 
HETATM   24  O1  UNL     1      31.272   5.452  49.726  1.00  0.00    -0.267 OA
HETATM   25  H1  UNL     1      30.147   5.321  46.659  1.00  0.00     0.169 HD
BRANCH  23  26
HETATM   26  C17 UNL     1      32.552   4.820  47.911  1.00  0.00     0.035 A 
HETATM   27  C18 UNL     1      32.546   3.888  46.895  1.00  0.00     0.036 A 
HETATM   28  C19 UNL     1      33.762   3.485  46.374  1.00  0.00     0.117 A 
HETATM   29  N6  UNL     1      34.967   3.937  46.783  1.00  0.00    -0.273 NA
HETATM   30  C20 UNL     1      34.978   4.848  47.776  1.00  0.00     0.117 A 
HETATM   31  C21 UNL     1      33.794   5.266  48.313  1.00  0.00     0.036 A 
ENDBRANCH  23  26
ENDBRANCH   1  22
TORSDOF 6
ENDMDL
MODEL 7
REMARK VINA RESULT:      -8.1      4.280      8.141
REMARK  6 active torsions:
REMARK  status: ('A' for Active; 'I' for Inactive)
REMARK       I    between atoms: C1_2  and  N1_3 
REMARK    1  A    between atoms: C1_2  and  C17_24 
REMARK    2  A    between atoms: N1_3  and  C2_4 
REMARK    3  A    between atoms: C6_8  and  N2_9 
REMARK    4  A    between atoms: N2_9  and  C7_10 
REMARK    5  A    between atoms: C7_10  and  S1_11 
REMARK    6  A    between atoms: C10_15  and  C11_16 
ROOT
HETATM    1  C2  UNL     1      24.996   2.345  51.868  1.00  0.00     0.037 A 
HETATM    2  C3  UNL     1      23.798   2.444  52.545  1.00  0.00     0.029 A 
HETATM    3  C4  UNL     1      23.044   3.587  52.386  1.00  0.00     0.004 A 
HETATM    4  C5  UNL     1      23.516   4.588  51.557  1.00  0.00     0.029 A 
HETATM    5  C6  UNL     1      24.704   4.533  50.862  1.00  0.00     0.030 A 
HETATM    6  C16 UNL     1      25.419   3.374  51.053  1.00  0.00     0.058 A 
ENDROOT
BRANCH   5   7
HETATM    7  N2  UNL     1      25.169   5.570  50.018  1.00  0.00    -0.379 N 
HETATM    8  H5  UNL     1      25.028   6.565  50.367  1.00  0.00     0.160 HD
BRANCH   7   9
HETATM    9  C7  UNL     1      25.810   5.354  48.739  1.00  0.00     0.231 C 
BRANCH   9  10
HETATM   10  S1  UNL     1      27.443   6.183  48.621  1.00  0.00     0.035 SA
HETATM   11  N3  UNL     1      27.629   7.774  48.797  1.00  0.00    -0.216 NA
HETATM   12  C8  UNL     1      28.988   8.241  48.671  1.00  0.00     0.129 A 
HETATM   13  C9  UNL     1      30.080   7.497  48.427  1.00  0.00     0.053 A 
HETATM   14  C10 UNL     1      30.054   6.051  48.247  1.00  0.00     0.079 A 
HETATM   15  N5  UNL     1      28.966   5.328  48.304  1.00  0.00    -0.204 NA
BRANCH  14  16
HETATM   16  C11 UNL     1      31.274   5.297  47.984  1.00  0.00     0.011 A 
HETATM   17  C12 UNL     1      31.259   4.201  47.154  1.00  0.00     0.017 A 
HETATM   18  C13 UNL     1      32.401   3.467  46.887  1.00  0.00     0.020 A 
HETATM   19  C14 UNL     1      33.596   3.832  47.463  1.00  0.00     0.116 A 
HETATM   20  N4  UNL     1      33.625   4.892  48.270  1.00  0.00    -0.272 NA
HETATM   21  C15 UNL     1      32.510   5.592  48.519  1.00  0.00     0.130 A 
ENDBRANCH  14  16
ENDBRANCH   9  10
ENDBRANCH   7   9
ENDBRANCH   5   7
BRANCH   1  22
HETATM   22  N1  UNL     1      25.775   1.168  52.030  1.00  0.00    -0.323 N 
HETATM   23  C1  UNL     1      26.812   1.002  52.976  1.00  0.00     0.256 C 
HETATM   24  O1  UNL     1      27.133   1.920  53.772  1.00  0.00    -0.267 OA
HETATM   25  H1  UNL     1      25.506   0.411  51.371  1.00  0.00     0.169 HD
BRANCH  23  26
HETATM   26  C17 UNL     1      27.568  -0.240  53.082  1.00  0.00     0.035 A 
HETATM   27  C18 UNL     1      26.978  -1.428  52.703  1.00  0.00     0.036 A 
HETATM   28  C19 UNL     1      27.720  -2.588  52.817  1.00  0.00     0.117 A 
HETATM   29  N6  UNL     1      28.989  -2.654  53.273  1.00  0.00    -0.273 NA
HETATM   30  C20 UNL     1      29.571  -1.496  53.644  1.00  0.00     0.117 A 
HETATM   31  C21 UNL     1      28.864  -0.332  53.546  1.00  0.00     0.036 A 
ENDBRANCH  23  26
ENDBRANCH   1  22
TORSDOF 6
ENDMDL
MODEL 8
REMARK VINA RESULT:      -8.1      3.835      8.088
REMARK  6 active torsions:
REMARK  status: ('A' for Active; 'I' for Inactive)
REMARK       I    between atoms: C1_2  and  N1_3 
REMARK    1  A    between atoms: C1_2  and  C17_24 
REMARK    2  A    between atoms: N1_3  and  C2_4 
REMARK    3  A    between atoms: C6_8  and  N2_9 
REMARK    4  A    between atoms: N2_9  and  C7_10 
REMARK    5  A    between atoms: C7_10  and  S1_11 
REMARK    6  A    between atoms: C10_15  and  C11_16 
ROOT
HETATM    1  C2  UNL     1      24.198   1.902  52.313  1.00  0.00     0.037 A 
HETATM    2  C3  UNL     1      22.870   1.553  52.446  1.00  0.00     0.029 A 
HETATM    3  C4  UNL     1      21.919   2.551  52.399  1.00  0.00     0.004 A 
HETATM    4  C5  UNL     1      22.332   3.859  52.221  1.00  0.00     0.029 A 
HETATM    5  C6  UNL     1      23.645   4.253  52.083  1.00  0.00     0.030 A 
HETATM    6  C16 UNL     1      24.554   3.223  52.137  1.00  0.00     0.058 A 
ENDROOT
BRANCH   5   7
HETATM    7  N2  UNL     1      24.047   5.598  51.902  1.00  0.00    -0.379 N 
HETATM    8  H5  UNL     1      24.368   6.119  52.772  1.00  0.00     0.160 HD
BRANCH   7   9
HETATM    9  C7  UNL     1      24.042   6.286  50.629  1.00  0.00     0.231 C 
BRANCH   9  10
HETATM   10  S1  UNL     1      25.648   6.154  49.752  1.00  0.00     0.035 SA
HETATM   11  N3  UNL     1      26.283   4.743  49.302  1.00  0.00    -0.216 NA
HETATM   12  C8  UNL     1      27.553   4.841  48.624  1.00  0.00     0.129 A 
HETATM   13  C9  UNL     1      28.235   5.964  48.342  1.00  0.00     0.053 A 
HETATM   14  C10 UNL     1      27.777   7.301  48.692  1.00  0.00     0.079 A 
HETATM   15  N5  UNL     1      26.655   7.549  49.316  1.00  0.00    -0.204 NA
BRANCH  14  16
HETATM   16  C11 UNL     1      28.563   8.484  48.359  1.00  0.00     0.011 A 
HETATM   17  C12 UNL     1      28.610   8.957  47.068  1.00  0.00     0.017 A 
HETATM   18  C13 UNL     1      29.348  10.076  46.724  1.00  0.00     0.020 A 
HETATM   19  C14 UNL     1      30.061  10.746  47.692  1.00  0.00     0.116 A 
HETATM   20  N4  UNL     1      30.023  10.299  48.946  1.00  0.00    -0.272 NA
HETATM   21  C15 UNL     1      29.305   9.213  49.263  1.00  0.00     0.130 A 
ENDBRANCH  14  16
ENDBRANCH   9  10
ENDBRANCH   7   9
ENDBRANCH   5   7
BRANCH   1  22
HETATM   22  N1  UNL     1      25.180   0.876  52.361  1.00  0.00    -0.323 N 
HETATM   23  C1  UNL     1      26.222   0.791  53.312  1.00  0.00     0.256 C 
HETATM   24  O1  UNL     1      26.361   1.650  54.219  1.00  0.00    -0.267 OA
HETATM   25  H1  UNL     1      25.061   0.167  51.610  1.00  0.00     0.169 HD
BRANCH  23  26
HETATM   26  C17 UNL     1      27.193  -0.296  53.296  1.00  0.00     0.035 A 
HETATM   27  C18 UNL     1      26.820  -1.533  52.813  1.00  0.00     0.036 A 
HETATM   28  C19 UNL     1      27.763  -2.544  52.812  1.00  0.00     0.117 A 
HETATM   29  N6  UNL     1      29.034  -2.416  53.250  1.00  0.00    -0.273 NA
HETATM   30  C20 UNL     1      29.404  -1.210  53.724  1.00  0.00     0.117 A 
HETATM   31  C21 UNL     1      28.495  -0.190  53.739  1.00  0.00     0.036 A 
ENDBRANCH  23  26
ENDBRANCH   1  22
TORSDOF 6
ENDMDL
MODEL 9
REMARK VINA RESULT:      -8.0      3.222      5.455
REMARK  6 active torsions:
REMARK  status: ('A' for Active; 'I' for Inactive)
REMARK       I    between atoms: C1_2  and  N1_3 
REMARK    1  A    between atoms: C1_2  and  C17_24 
REMARK    2  A    between atoms: N1_3  and  C2_4 
REMARK    3  A    between atoms: C6_8  and  N2_9 
REMARK    4  A    between atoms: N2_9  and  C7_10 
REMARK    5  A    between atoms: C7_10  and  S1_11 
REMARK    6  A    between atoms: C10_15  and  C11_16 
ROOT
HETATM    1  C2  UNL     1      25.616   6.045  49.802  1.00  0.00     0.037 A 
HETATM    2  C3  UNL     1      25.249   7.086  50.630  1.00  0.00     0.029 A 
HETATM    3  C4  UNL     1      23.952   7.133  51.095  1.00  0.00     0.004 A 
HETATM    4  C5  UNL     1      23.070   6.136  50.715  1.00  0.00     0.029 A 
HETATM    5  C6  UNL     1      23.392   5.079  49.893  1.00  0.00     0.030 A 
HETATM    6  C16 UNL     1      24.696   5.078  49.455  1.00  0.00     0.058 A 
ENDROOT
BRANCH   5   7
HETATM    7  N2  UNL     1      22.474   4.070  49.516  1.00  0.00    -0.379 N 
HETATM    8  H5  UNL     1      21.460   4.370  49.400  1.00  0.00     0.160 HD
BRANCH   7   9
HETATM    9  C7  UNL     1      22.832   2.686  49.287  1.00  0.00     0.231 C 
BRANCH   9  10
HETATM   10  S1  UNL     1      23.134   1.771  50.848  1.00  0.00     0.035 SA
HETATM   11  N3  UNL     1      21.966   1.005  51.651  1.00  0.00    -0.216 NA
HETATM   12  C8  UNL     1      22.396   0.342  52.857  1.00  0.00     0.129 A 
HETATM   13  C9  UNL     1      23.643   0.304  53.360  1.00  0.00     0.053 A 
HETATM   14  C10 UNL     1      24.788   0.953  52.737  1.00  0.00     0.079 A 
HETATM   15  N5  UNL     1      24.725   1.638  51.625  1.00  0.00    -0.204 NA
BRANCH  14  16
HETATM   16  C11 UNL     1      26.118   0.877  53.330  1.00  0.00     0.011 A 
HETATM   17  C12 UNL     1      27.119   1.731  52.927  1.00  0.00     0.017 A 
HETATM   18  C13 UNL     1      28.389   1.681  53.473  1.00  0.00     0.020 A 
HETATM   19  C14 UNL     1      28.676   0.755  54.449  1.00  0.00     0.116 A 
HETATM   20  N4  UNL     1      27.717  -0.078  54.849  1.00  0.00    -0.272 NA
HETATM   21  C15 UNL     1      26.491  -0.017  54.310  1.00  0.00     0.130 A 
ENDBRANCH  14  16
ENDBRANCH   9  10
ENDBRANCH   7   9
ENDBRANCH   5   7
BRANCH   1  22
HETATM   22  N1  UNL     1      26.952   5.995  49.322  1.00  0.00    -0.323 N 
HETATM   23  C1  UNL     1      27.437   6.690  48.191  1.00  0.00     0.256 C 
HETATM   24  O1  UNL     1      26.692   7.431  47.502  1.00  0.00    -0.267 OA
HETATM   25  H1  UNL     1      27.565   5.381  49.895  1.00  0.00     0.169 HD
BRANCH  23  26
HETATM   26  C17 UNL     1      28.826   6.588  47.760  1.00  0.00     0.035 A 
HETATM   27  C18 UNL     1      29.358   7.568  46.948  1.00  0.00     0.036 A 
HETATM   28  C19 UNL     1      30.677   7.442  46.555  1.00  0.00     0.117 A 
HETATM   29  N6  UNL     1      31.496   6.428  46.907  1.00  0.00    -0.273 NA
HETATM   30  C20 UNL     1      30.981   5.468  47.700  1.00  0.00     0.117 A 
HETATM   31  C21 UNL     1      29.680   5.561  48.105  1.00  0.00     0.036 A 
ENDBRANCH  23  26
ENDBRANCH   1  22
TORSDOF 6
ENDMDL
