MODEL 1
REMARK VINA RESULT:      -8.3      0.000      0.000
REMARK  0 active torsions:
REMARK  status: ('A' for Active; 'I' for Inactive)
ROOT
HETATM    1  C1  UNL     1      28.260   5.259  48.308  1.00  0.00     0.013 C 
HETATM    2  C2  UNL     1      29.448   5.561  48.202  1.00  0.00    -0.105 C 
HETATM    3  C3  UNL     1      30.850   5.920  48.071  1.00  0.00     0.050 C 
HETATM    4  C4  UNL     1      31.519   4.769  47.862  1.00  0.00     0.041 C 
HETATM    5  C5  UNL     1      32.563   3.802  47.635  1.00  0.00    -0.000 C 
HETATM    6  C6  UNL     1      33.853   3.392  47.465  1.00  0.00     0.113 C 
HETATM    7  N1  UNL     1      34.453   4.674  47.613  1.00  0.00    -0.262 N 
HETATM    8  N2  UNL     1      35.109   4.448  48.830  1.00  0.00    -0.288 N 
HETATM    9  C7  UNL     1      35.718   5.546  49.552  1.00  0.00     0.224 A 
HETATM   10  N3  UNL     1      35.564   6.669  48.945  1.00  0.00    -0.240 NA
HETATM   11  C8  UNL     1      34.893   6.754  47.737  1.00  0.00     0.092 A 
HETATM   12  C9  UNL     1      34.624   8.055  47.245  1.00  0.00     0.074 A 
HETATM   13  C10 UNL     1      33.861   8.219  46.114  1.00  0.00     0.107 A 
HETATM   14  C11 UNL     1      33.299   7.257  45.341  1.00  0.00     0.138 A 
HETATM   15  C12 UNL     1      33.540   5.986  45.799  1.00  0.00     0.136 A 
HETATM   16  C13 UNL     1      34.280   5.878  46.918  1.00  0.00     0.120 A 
HETATM   17  O1  UNL     1      32.999   4.962  45.058  1.00  0.00    -0.344 OA
HETATM   18  C14 UNL     1      32.946   4.962  43.643  1.00  0.00     0.202 C 
HETATM   19  C15 UNL     1      32.785   6.353  43.118  1.00  0.00     0.202 C 
HETATM   20  O2  UNL     1      32.542   7.266  44.200  1.00  0.00    -0.344 OA
HETATM   21  O3  UNL     1      33.785   9.590  45.969  1.00  0.00    -0.348 OA
HETATM   22  C16 UNL     1      32.543  10.175  46.294  1.00  0.00     0.176 C 
HETATM   23  C17 UNL     1      32.125   9.850  47.705  1.00  0.00     0.032 C 
HETATM   24  C18 UNL     1      31.701   8.467  47.827  1.00  0.00     0.023 C 
HETATM   25  C19 UNL     1      30.935   7.400  48.057  1.00  0.00    -0.001 C 
HETATM   26  H5  UNL     1      35.306   3.594  49.438  1.00  0.00     0.188 HD
ENDROOT
TORSDOF 0
ENDMDL
MODEL 2
REMARK VINA RESULT:      -7.3      2.442      4.921
REMARK  0 active torsions:
REMARK  status: ('A' for Active; 'I' for Inactive)
ROOT
HETATM    1  C1  UNL     1      28.697   6.815  48.573  1.00  0.00     0.013 C 
HETATM    2  C2  UNL     1      29.626   6.501  47.829  1.00  0.00    -0.105 C 
HETATM    3  C3  UNL     1      30.726   6.134  46.955  1.00  0.00     0.050 C 
HETATM    4  C4  UNL     1      31.034   7.237  46.245  1.00  0.00     0.041 C 
HETATM    5  C5  UNL     1      31.645   8.154  45.316  1.00  0.00    -0.000 C 
HETATM    6  C6  UNL     1      32.511   8.519  44.328  1.00  0.00     0.113 C 
HETATM    7  N1  UNL     1      33.113   7.240  44.158  1.00  0.00    -0.262 N 
HETATM    8  N2  UNL     1      32.619   6.956  42.878  1.00  0.00    -0.288 N 
HETATM    9  C7  UNL     1      32.772   5.634  42.307  1.00  0.00     0.224 A 
HETATM   10  N3  UNL     1      33.379   4.829  43.107  1.00  0.00    -0.240 NA
HETATM   11  C8  UNL     1      33.822   5.241  44.352  1.00  0.00     0.092 A 
HETATM   12  C9  UNL     1      34.315   4.236  45.220  1.00  0.00     0.074 A 
HETATM   13  C10 UNL     1      34.662   4.552  46.512  1.00  0.00     0.107 A 
HETATM   14  C11 UNL     1      34.610   5.765  47.116  1.00  0.00     0.138 A 
HETATM   15  C12 UNL     1      34.130   6.757  46.298  1.00  0.00     0.136 A 
HETATM   16  C13 UNL     1      33.790   6.395  45.047  1.00  0.00     0.120 A 
HETATM   17  O1  UNL     1      34.054   8.014  46.849  1.00  0.00    -0.344 OA
HETATM   18  C14 UNL     1      35.029   8.544  47.727  1.00  0.00     0.202 C 
HETATM   19  C15 UNL     1      35.638   7.462  48.561  1.00  0.00     0.202 C 
HETATM   20  O2  UNL     1      34.930   6.227  48.365  1.00  0.00    -0.344 OA
HETATM   21  O3  UNL     1      35.050   3.341  47.049  1.00  0.00    -0.348 OA
HETATM   22  C16 UNL     1      34.147   2.754  47.960  1.00  0.00     0.176 C 
HETATM   23  C17 UNL     1      32.785   2.554  47.344  1.00  0.00     0.032 C 
HETATM   24  C18 UNL     1      32.082   3.814  47.192  1.00  0.00     0.023 C 
HETATM   25  C19 UNL     1      31.154   4.764  47.325  1.00  0.00    -0.001 C 
HETATM   26  H5  UNL     1      32.106   7.509  42.124  1.00  0.00     0.188 HD
ENDROOT
TORSDOF 0
ENDMDL
MODEL 3
REMARK VINA RESULT:      -7.3      1.840      4.973
REMARK  0 active torsions:
REMARK  status: ('A' for Active; 'I' for Inactive)
ROOT
HETATM    1  C1  UNL     1      32.402   6.971  42.013  1.00  0.00     0.013 C 
HETATM    2  C2  UNL     1      32.772   6.811  43.176  1.00  0.00    -0.105 C 
HETATM    3  C3  UNL     1      33.203   6.621  44.550  1.00  0.00     0.050 C 
HETATM    4  C4  UNL     1      32.988   7.792  45.182  1.00  0.00     0.041 C 
HETATM    5  C5  UNL     1      32.923   8.828  46.181  1.00  0.00    -0.000 C 
HETATM    6  C6  UNL     1      33.115   9.365  47.420  1.00  0.00     0.113 C 
HETATM    7  N1  UNL     1      33.731   8.221  48.001  1.00  0.00    -0.262 N 
HETATM    8  N2  UNL     1      35.018   8.749  48.164  1.00  0.00    -0.288 N 
HETATM    9  C7  UNL     1      36.123   7.890  48.537  1.00  0.00     0.224 A 
HETATM   10  N3  UNL     1      35.758   6.664  48.676  1.00  0.00    -0.240 NA
HETATM   11  C8  UNL     1      34.444   6.274  48.486  1.00  0.00     0.092 A 
HETATM   12  C9  UNL     1      34.184   4.881  48.486  1.00  0.00     0.074 A 
HETATM   13  C10 UNL     1      32.926   4.415  48.189  1.00  0.00     0.107 A 
HETATM   14  C11 UNL     1      31.819   5.138  47.886  1.00  0.00     0.138 A 
HETATM   15  C12 UNL     1      32.045   6.492  47.874  1.00  0.00     0.136 A 
HETATM   16  C13 UNL     1      33.296   6.898  48.157  1.00  0.00     0.120 A 
HETATM   17  O1  UNL     1      30.962   7.285  47.575  1.00  0.00    -0.344 OA
HETATM   18  C14 UNL     1      29.648   7.019  48.031  1.00  0.00     0.202 C 
HETATM   19  C15 UNL     1      29.413   5.547  48.149  1.00  0.00     0.202 C 
HETATM   20  O2  UNL     1      30.520   4.822  47.588  1.00  0.00    -0.344 OA
HETATM   21  O3  UNL     1      33.065   3.043  48.249  1.00  0.00    -0.348 OA
HETATM   22  C16 UNL     1      33.069   2.370  47.009  1.00  0.00     0.176 C 
HETATM   23  C17 UNL     1      34.150   2.890  46.096  1.00  0.00     0.032 C 
HETATM   24  C18 UNL     1      33.820   4.205  45.578  1.00  0.00     0.023 C 
HETATM   25  C19 UNL     1      33.540   5.187  44.720  1.00  0.00    -0.001 C 
HETATM   26  H5  UNL     1      35.456   9.718  48.081  1.00  0.00     0.188 HD
ENDROOT
TORSDOF 0
ENDMDL
MODEL 4
REMARK VINA RESULT:      -6.9      9.804     12.615
REMARK  0 active torsions:
REMARK  status: ('A' for Active; 'I' for Inactive)
ROOT
HETATM    1  C1  UNL     1      22.098   3.283  45.441  1.00  0.00     0.013 C 
HETATM    2  C2  UNL     1      22.109   3.119  46.661  1.00  0.00    -0.105 C 
HETATM    3  C3  UNL     1      22.121   2.930  48.101  1.00  0.00     0.050 C 
HETATM    4  C4  UNL     1      23.366   3.236  48.515  1.00  0.00     0.041 C 
HETATM    5  C5  UNL     1      24.533   3.457  49.331  1.00  0.00    -0.000 C 
HETATM    6  C6  UNL     1      25.243   3.473  50.496  1.00  0.00     0.113 C 
HETATM    7  N1  UNL     1      24.199   2.979  51.329  1.00  0.00    -0.262 N 
HETATM    8  N2  UNL     1      24.761   1.732  51.634  1.00  0.00    -0.288 N 
HETATM    9  C7  UNL     1      23.977   0.718  52.307  1.00  0.00     0.224 A 
HETATM   10  N3  UNL     1      22.779   1.116  52.554  1.00  0.00    -0.240 NA
HETATM   11  C8  UNL     1      22.349   2.384  52.200  1.00  0.00     0.092 A 
HETATM   12  C9  UNL     1      20.968   2.657  52.353  1.00  0.00     0.074 A 
HETATM   13  C10 UNL     1      20.450   3.852  51.915  1.00  0.00     0.107 A 
HETATM   14  C11 UNL     1      21.109   4.881  51.328  1.00  0.00     0.138 A 
HETATM   15  C12 UNL     1      22.450   4.640  51.163  1.00  0.00     0.136 A 
HETATM   16  C13 UNL     1      22.907   3.450  51.595  1.00  0.00     0.120 A 
HETATM   17  O1  UNL     1      23.179   5.646  50.575  1.00  0.00    -0.344 OA
HETATM   18  C14 UNL     1      22.965   7.022  50.833  1.00  0.00     0.202 C 
HETATM   19  C15 UNL     1      21.521   7.291  51.116  1.00  0.00     0.202 C 
HETATM   20  O2  UNL     1      20.738   6.114  50.861  1.00  0.00    -0.344 OA
HETATM   21  O3  UNL     1      19.101   3.742  52.191  1.00  0.00    -0.348 OA
HETATM   22  C16 UNL     1      18.260   3.535  51.077  1.00  0.00     0.176 C 
HETATM   23  C17 UNL     1      18.658   2.307  50.298  1.00  0.00     0.032 C 
HETATM   24  C18 UNL     1      19.882   2.528  49.550  1.00  0.00     0.023 C 
HETATM   25  C19 UNL     1      20.730   2.645  48.527  1.00  0.00    -0.001 C 
HETATM   26  H5  UNL     1      25.714   1.275  51.490  1.00  0.00     0.188 HD
ENDROOT
TORSDOF 0
ENDMDL
MODEL 5
REMARK VINA RESULT:      -6.9      8.160     10.787
REMARK  0 active torsions:
REMARK  status: ('A' for Active; 'I' for Inactive)
ROOT
HETATM    1  C1  UNL     1      21.661   3.969  44.968  1.00  0.00     0.013 C 
HETATM    2  C2  UNL     1      21.825   4.150  46.174  1.00  0.00    -0.105 C 
HETATM    3  C3  UNL     1      22.026   4.365  47.597  1.00  0.00     0.050 C 
HETATM    4  C4  UNL     1      22.250   3.151  48.137  1.00  0.00     0.041 C 
HETATM    5  C5  UNL     1      22.512   2.083  49.069  1.00  0.00    -0.000 C 
HETATM    6  C6  UNL     1      22.735   1.544  50.301  1.00  0.00     0.113 C 
HETATM    7  N1  UNL     1      22.632   2.761  51.033  1.00  0.00    -0.262 N 
HETATM    8  N2  UNL     1      21.444   2.481  51.720  1.00  0.00    -0.288 N 
HETATM    9  C7  UNL     1      20.766   3.519  52.468  1.00  0.00     0.224 A 
HETATM   10  N3  UNL     1      21.381   4.647  52.399  1.00  0.00    -0.240 NA
HETATM   11  C8  UNL     1      22.557   4.788  51.683  1.00  0.00     0.092 A 
HETATM   12  C9  UNL     1      23.054   6.105  51.522  1.00  0.00     0.074 A 
HETATM   13  C10 UNL     1      24.151   6.334  50.726  1.00  0.00     0.107 A 
HETATM   14  C11 UNL     1      24.884   5.427  50.035  1.00  0.00     0.138 A 
HETATM   15  C12 UNL     1      24.421   4.142  50.170  1.00  0.00     0.136 A 
HETATM   16  C13 UNL     1      23.335   3.970  50.947  1.00  0.00     0.120 A 
HETATM   17  O1  UNL     1      25.121   3.170  49.496  1.00  0.00    -0.344 OA
HETATM   18  C14 UNL     1      26.532   3.163  49.376  1.00  0.00     0.202 C 
HETATM   19  C15 UNL     1      27.068   4.559  49.329  1.00  0.00     0.202 C 
HETATM   20  O2  UNL     1      25.989   5.502  49.229  1.00  0.00    -0.344 OA
HETATM   21  O3  UNL     1      24.310   7.705  50.780  1.00  0.00    -0.348 OA
HETATM   22  C16 UNL     1      23.937   8.414  49.619  1.00  0.00     0.176 C 
HETATM   23  C17 UNL     1      22.504   8.145  49.238  1.00  0.00     0.032 C 
HETATM   24  C18 UNL     1      22.343   6.813  48.685  1.00  0.00     0.023 C 
HETATM   25  C19 UNL     1      22.064   5.829  47.828  1.00  0.00    -0.001 C 
HETATM   26  H5  UNL     1      20.834   1.617  51.859  1.00  0.00     0.188 HD
ENDROOT
TORSDOF 0
ENDMDL
MODEL 6
REMARK VINA RESULT:      -6.8     22.378     25.037
REMARK  0 active torsions:
REMARK  status: ('A' for Active; 'I' for Inactive)
ROOT
HETATM    1  C1  UNL     1      39.219  -1.575  73.757  1.00  0.00     0.013 C 
HETATM    2  C2  UNL     1      39.674  -1.372  72.632  1.00  0.00    -0.105 C 
HETATM    3  C3  UNL     1      40.210  -1.138  71.302  1.00  0.00     0.050 C 
HETATM    4  C4  UNL     1      41.492  -1.552  71.330  1.00  0.00     0.041 C 
HETATM    5  C5  UNL     1      42.850  -1.860  70.960  1.00  0.00    -0.000 C 
HETATM    6  C6  UNL     1      43.922  -1.908  70.118  1.00  0.00     0.113 C 
HETATM    7  N1  UNL     1      43.285  -1.286  69.007  1.00  0.00    -0.262 N 
HETATM    8  N2  UNL     1      44.017  -0.091  69.001  1.00  0.00    -0.288 N 
HETATM    9  C7  UNL     1      43.607   1.017  68.164  1.00  0.00     0.224 A 
HETATM   10  N3  UNL     1      42.545   0.748  67.489  1.00  0.00    -0.240 NA
HETATM   11  C8  UNL     1      41.918  -0.482  67.586  1.00  0.00     0.092 A 
HETATM   12  C9  UNL     1      40.662  -0.612  66.943  1.00  0.00     0.074 A 
HETATM   13  C10 UNL     1      39.927  -1.764  67.093  1.00  0.00     0.107 A 
HETATM   14  C11 UNL     1      40.251  -2.872  67.804  1.00  0.00     0.138 A 
HETATM   15  C12 UNL     1      41.461  -2.770  68.443  1.00  0.00     0.136 A 
HETATM   16  C13 UNL     1      42.136  -1.618  68.277  1.00  0.00     0.120 A 
HETATM   17  O1  UNL     1      41.851  -3.863  69.181  1.00  0.00    -0.344 OA
HETATM   18  C14 UNL     1      41.632  -5.201  68.774  1.00  0.00     0.202 C 
HETATM   19  C15 UNL     1      40.365  -5.317  67.988  1.00  0.00     0.202 C 
HETATM   20  O2  UNL     1      39.640  -4.077  68.030  1.00  0.00    -0.344 OA
HETATM   21  O3  UNL     1      38.777  -1.512  66.371  1.00  0.00    -0.348 OA
HETATM   22  C16 UNL     1      37.616  -1.259  67.132  1.00  0.00     0.176 C 
HETATM   23  C17 UNL     1      37.811  -0.103  68.080  1.00  0.00     0.032 C 
HETATM   24  C18 UNL     1      38.669  -0.469  69.192  1.00  0.00     0.023 C 
HETATM   25  C19 UNL     1      39.087  -0.703  70.437  1.00  0.00    -0.001 C 
HETATM   26  H5  UNL     1      44.891   0.265  69.498  1.00  0.00     0.188 HD
ENDROOT
TORSDOF 0
ENDMDL
MODEL 7
REMARK VINA RESULT:      -6.7      4.409      6.452
REMARK  0 active torsions:
REMARK  status: ('A' for Active; 'I' for Inactive)
ROOT
HETATM    1  C1  UNL     1      26.742   9.109  43.124  1.00  0.00     0.013 C 
HETATM    2  C2  UNL     1      27.399   9.135  44.164  1.00  0.00    -0.105 C 
HETATM    3  C3  UNL     1      28.173   9.159  45.394  1.00  0.00     0.050 C 
HETATM    4  C4  UNL     1      27.362   9.663  46.344  1.00  0.00     0.041 C 
HETATM    5  C5  UNL     1      26.840  10.148  47.597  1.00  0.00    -0.000 C 
HETATM    6  C6  UNL     1      26.904  10.474  48.920  1.00  0.00     0.113 C 
HETATM    7  N1  UNL     1      28.272  10.130  49.107  1.00  0.00    -0.262 N 
HETATM    8  N2  UNL     1      28.775  11.421  49.318  1.00  0.00    -0.288 N 
HETATM    9  C7  UNL     1      30.203  11.657  49.352  1.00  0.00     0.224 A 
HETATM   10  N3  UNL     1      30.877  10.577  49.165  1.00  0.00    -0.240 NA
HETATM   11  C8  UNL     1      30.252   9.358  48.970  1.00  0.00     0.092 A 
HETATM   12  C9  UNL     1      31.078   8.269  48.596  1.00  0.00     0.074 A 
HETATM   13  C10 UNL     1      30.514   7.057  48.273  1.00  0.00     0.107 A 
HETATM   14  C11 UNL     1      29.200   6.724  48.268  1.00  0.00     0.138 A 
HETATM   15  C12 UNL     1      28.377   7.764  48.621  1.00  0.00     0.136 A 
HETATM   16  C13 UNL     1      28.975   8.933  48.915  1.00  0.00     0.120 A 
HETATM   17  O1  UNL     1      27.030   7.492  48.639  1.00  0.00    -0.344 OA
HETATM   18  C14 UNL     1      26.484   6.268  49.096  1.00  0.00     0.202 C 
HETATM   19  C15 UNL     1      27.413   5.132  48.810  1.00  0.00     0.202 C 
HETATM   20  O2  UNL     1      28.504   5.578  47.988  1.00  0.00    -0.344 OA
HETATM   21  O3  UNL     1      31.600   6.275  47.932  1.00  0.00    -0.348 OA
HETATM   22  C16 UNL     1      31.760   6.010  46.556  1.00  0.00     0.176 C 
HETATM   23  C17 UNL     1      31.855   7.280  45.750  1.00  0.00     0.032 C 
HETATM   24  C18 UNL     1      30.566   7.941  45.650  1.00  0.00     0.023 C 
HETATM   25  C19 UNL     1      29.460   8.472  45.127  1.00  0.00    -0.001 C 
HETATM   26  H5  UNL     1      28.347  12.384  49.480  1.00  0.00     0.188 HD
ENDROOT
TORSDOF 0
ENDMDL
MODEL 8
REMARK VINA RESULT:      -6.7      2.081      4.320
REMARK  0 active torsions:
REMARK  status: ('A' for Active; 'I' for Inactive)
ROOT
HETATM    1  C1  UNL     1      34.450   5.315  42.368  1.00  0.00     0.013 C 
HETATM    2  C2  UNL     1      33.847   5.763  43.343  1.00  0.00    -0.105 C 
HETATM    3  C3  UNL     1      33.141   6.294  44.496  1.00  0.00     0.050 C 
HETATM    4  C4  UNL     1      33.086   5.297  45.401  1.00  0.00     0.041 C 
HETATM    5  C5  UNL     1      32.816   4.524  46.587  1.00  0.00    -0.000 C 
HETATM    6  C6  UNL     1      32.297   4.305  47.829  1.00  0.00     0.113 C 
HETATM    7  N1  UNL     1      31.689   5.584  47.979  1.00  0.00    -0.262 N 
HETATM    8  N2  UNL     1      30.350   5.174  47.937  1.00  0.00    -0.288 N 
HETATM    9  C7  UNL     1      29.286   6.151  47.835  1.00  0.00     0.224 A 
HETATM   10  N3  UNL     1      29.736   7.355  47.787  1.00  0.00    -0.240 NA
HETATM   11  C8  UNL     1      31.093   7.624  47.841  1.00  0.00     0.092 A 
HETATM   12  C9  UNL     1      31.490   8.962  47.601  1.00  0.00     0.074 A 
HETATM   13  C10 UNL     1      32.824   9.281  47.523  1.00  0.00     0.107 A 
HETATM   14  C11 UNL     1      33.889   8.453  47.662  1.00  0.00     0.138 A 
HETATM   15  C12 UNL     1      33.532   7.148  47.891  1.00  0.00     0.136 A 
HETATM   16  C13 UNL     1      32.213   6.883  47.944  1.00  0.00     0.120 A 
HETATM   17  O1  UNL     1      34.565   6.254  48.044  1.00  0.00    -0.344 OA
HETATM   18  C14 UNL     1      35.764   6.554  48.736  1.00  0.00     0.202 C 
HETATM   19  C15 UNL     1      36.118   7.999  48.583  1.00  0.00     0.202 C 
HETATM   20  O2  UNL     1      35.247   8.624  47.626  1.00  0.00    -0.344 OA
HETATM   21  O3  UNL     1      32.820  10.634  47.246  1.00  0.00    -0.348 OA
HETATM   22  C16 UNL     1      33.164  10.994  45.927  1.00  0.00     0.176 C 
HETATM   23  C17 UNL     1      32.267  10.327  44.915  1.00  0.00     0.032 C 
HETATM   24  C18 UNL     1      32.566   8.912  44.792  1.00  0.00     0.023 C 
HETATM   25  C19 UNL     1      32.927   7.742  44.263  1.00  0.00    -0.001 C 
HETATM   26  H5  UNL     1      29.843   4.236  47.964  1.00  0.00     0.188 HD
ENDROOT
TORSDOF 0
ENDMDL
MODEL 9
REMARK VINA RESULT:      -6.7      2.113      4.556
REMARK  0 active torsions:
REMARK  status: ('A' for Active; 'I' for Inactive)
ROOT
HETATM    1  C1  UNL     1      35.801   6.248  41.985  1.00  0.00     0.013 C 
HETATM    2  C2  UNL     1      35.053   5.986  42.927  1.00  0.00    -0.105 C 
HETATM    3  C3  UNL     1      34.173   5.682  44.042  1.00  0.00     0.050 C 
HETATM    4  C4  UNL     1      34.817   4.771  44.798  1.00  0.00     0.041 C 
HETATM    5  C5  UNL     1      35.151   3.825  45.832  1.00  0.00    -0.000 C 
HETATM    6  C6  UNL     1      34.922   3.096  46.962  1.00  0.00     0.113 C 
HETATM    7  N1  UNL     1      33.601   3.571  47.198  1.00  0.00    -0.262 N 
HETATM    8  N2  UNL     1      32.911   2.379  46.938  1.00  0.00    -0.288 N 
HETATM    9  C7  UNL     1      31.467   2.375  46.830  1.00  0.00     0.224 A 
HETATM   10  N3  UNL     1      30.965   3.549  46.993  1.00  0.00    -0.240 NA
HETATM   11  C8  UNL     1      31.765   4.649  47.249  1.00  0.00     0.092 A 
HETATM   12  C9  UNL     1      31.132   5.917  47.234  1.00  0.00     0.074 A 
HETATM   13  C10 UNL     1      31.882   7.061  47.364  1.00  0.00     0.107 A 
HETATM   14  C11 UNL     1      33.224   7.165  47.527  1.00  0.00     0.138 A 
HETATM   15  C12 UNL     1      33.862   5.950  47.540  1.00  0.00     0.136 A 
HETATM   16  C13 UNL     1      33.087   4.859  47.395  1.00  0.00     0.120 A 
HETATM   17  O1  UNL     1      35.227   5.984  47.705  1.00  0.00    -0.344 OA
HETATM   18  C14 UNL     1      35.889   6.886  48.573  1.00  0.00     0.202 C 
HETATM   19  C15 UNL     1      35.153   8.185  48.651  1.00  0.00     0.202 C 
HETATM   20  O2  UNL     1      34.092   8.213  47.682  1.00  0.00    -0.344 OA
HETATM   21  O3  UNL     1      30.948   8.074  47.264  1.00  0.00    -0.348 OA
HETATM   22  C16 UNL     1      30.953   8.799  46.054  1.00  0.00     0.176 C 
HETATM   23  C17 UNL     1      30.763   7.897  44.862  1.00  0.00     0.032 C 
HETATM   24  C18 UNL     1      31.954   7.110  44.597  1.00  0.00     0.023 C 
HETATM   25  C19 UNL     1      33.022   6.613  43.971  1.00  0.00    -0.001 C 
HETATM   26  H5  UNL     1      33.188   1.362  46.781  1.00  0.00     0.188 HD
ENDROOT
TORSDOF 0
ENDMDL
