MODEL 1
REMARK VINA RESULT:      -7.9      0.000      0.000
REMARK  5 active torsions:
REMARK  status: ('A' for Active; 'I' for Inactive)
REMARK    1  A    between atoms: C2_2  and  C3_3 
REMARK       I    between atoms: C3_3  and  N1_5 
REMARK    2  A    between atoms: N2_12  and  C9_13 
REMARK    3  A    between atoms: C9_13  and  C10_14 
REMARK    4  A    between atoms: C9_13  and  C11_16 
REMARK    5  A    between atoms: C10_14  and  O2_15 
ROOT
HETATM    1  C3  UNL     1      28.106   0.633  53.129  1.00  0.00     0.242 C 
HETATM    2  O1  UNL     1      28.902   1.603  53.069  1.00  0.00    -0.268 OA
HETATM    3  N1  UNL     1      26.794   0.678  52.617  1.00  0.00    -0.344 N 
HETATM    4  C4  UNL     1      25.854  -0.425  52.675  1.00  0.00     0.136 C 
HETATM    5  C5  UNL     1      24.920  -0.138  53.833  1.00  0.00     0.093 C 
HETATM    6  S1  UNL     1      23.939   1.294  53.362  1.00  0.00    -0.148 SA
HETATM    7  C6  UNL     1      24.877   2.190  52.387  1.00  0.00    -0.002 C 
HETATM    8  C7  UNL     1      26.281   1.854  51.983  1.00  0.00     0.168 C 
HETATM    9  C8  UNL     1      24.547   3.484  51.724  1.00  0.00     0.318 C 
HETATM   10  N2  UNL     1      24.711   3.267  50.276  1.00  0.00     0.123 N 
HETATM   11  C17 UNL     1      23.686   2.292  49.936  1.00  0.00     0.423 C 
HETATM   12  N3  UNL     1      22.367   2.816  50.219  1.00  0.00    -0.253 NA
HETATM   13  C18 UNL     1      21.578   2.107  50.949  1.00  0.00     0.228 C 
HETATM   14  N4  UNL     1      21.567   0.862  51.637  1.00  0.00    -0.248 NA
HETATM   15  C19 UNL     1      22.503   0.696  52.505  1.00  0.00     0.157 C 
ENDROOT
BRANCH  10  16
HETATM   16  C9  UNL     1      24.414   4.560  49.684  1.00  0.00     0.281 C 
BRANCH  16  17
HETATM   17  C10 UNL     1      23.445   4.473  48.527  1.00  0.00     0.204 C 
BRANCH  17  18
HETATM   18  O2  UNL     1      22.402   5.375  48.830  1.00  0.00    -0.398 OA
HETATM   19  H15 UNL     1      21.740   5.413  48.098  1.00  0.00     0.209 HD
ENDBRANCH  17  18
ENDBRANCH  16  17
BRANCH  16  20
HETATM   20  C11 UNL     1      25.703   5.093  49.167  1.00  0.00    -0.023 A 
HETATM   21  C12 UNL     1      26.891   4.379  49.061  1.00  0.00     0.009 A 
HETATM   22  C13 UNL     1      28.021   4.990  48.563  1.00  0.00     0.001 A 
HETATM   23  C14 UNL     1      28.030   6.306  48.157  1.00  0.00     0.000 A 
HETATM   24  C15 UNL     1      26.844   7.034  48.259  1.00  0.00     0.001 A 
HETATM   25  C16 UNL     1      25.703   6.431  48.757  1.00  0.00     0.009 A 
ENDBRANCH  16  20
ENDBRANCH  10  16
BRANCH   1  26
HETATM   26  C2  UNL     1      28.688  -0.519  53.780  1.00  0.00     0.064 C 
HETATM   27  C1  UNL     1      29.979  -0.475  53.469  1.00  0.00     0.017 C 
ENDBRANCH   1  26
TORSDOF 5
ENDMDL
MODEL 2
REMARK VINA RESULT:      -7.9      2.793      6.215
REMARK  5 active torsions:
REMARK  status: ('A' for Active; 'I' for Inactive)
REMARK    1  A    between atoms: C2_2  and  C3_3 
REMARK       I    between atoms: C3_3  and  N1_5 
REMARK    2  A    between atoms: N2_12  and  C9_13 
REMARK    3  A    between atoms: C9_13  and  C10_14 
REMARK    4  A    between atoms: C9_13  and  C11_16 
REMARK    5  A    between atoms: C10_14  and  O2_15 
ROOT
HETATM    1  C3  UNL     1      19.923  -0.068  52.714  1.00  0.00     0.242 C 
HETATM    2  O1  UNL     1      20.605  -0.697  53.561  1.00  0.00    -0.268 OA
HETATM    3  N1  UNL     1      20.439   0.991  51.940  1.00  0.00    -0.344 N 
HETATM    4  C4  UNL     1      19.674   1.735  50.957  1.00  0.00     0.136 C 
HETATM    5  C5  UNL     1      19.260   3.031  51.623  1.00  0.00     0.093 C 
HETATM    6  S1  UNL     1      20.763   3.987  51.872  1.00  0.00    -0.148 SA
HETATM    7  C6  UNL     1      21.958   2.910  52.087  1.00  0.00    -0.002 C 
HETATM    8  C7  UNL     1      21.797   1.419  52.073  1.00  0.00     0.168 C 
HETATM    9  C8  UNL     1      23.403   3.175  52.338  1.00  0.00     0.318 C 
HETATM   10  N2  UNL     1      24.146   2.508  51.254  1.00  0.00     0.123 N 
HETATM   11  C17 UNL     1      23.744   3.217  50.048  1.00  0.00     0.423 C 
HETATM   12  N3  UNL     1      24.114   4.613  50.127  1.00  0.00    -0.253 NA
HETATM   13  C18 UNL     1      23.201   5.494  49.912  1.00  0.00     0.228 C 
HETATM   14  N4  UNL     1      21.816   5.563  49.593  1.00  0.00    -0.248 NA
HETATM   15  C19 UNL     1      21.026   4.957  50.408  1.00  0.00     0.157 C 
ENDROOT
BRANCH  10  16
HETATM   16  C9  UNL     1      25.542   2.765  51.565  1.00  0.00     0.281 C 
BRANCH  16  17
HETATM   17  C10 UNL     1      26.431   2.765  50.342  1.00  0.00     0.204 C 
BRANCH  17  18
HETATM   18  O2  UNL     1      27.190   3.953  50.419  1.00  0.00    -0.398 OA
HETATM   19  H15 UNL     1      28.020   3.879  49.889  1.00  0.00     0.209 HD
ENDBRANCH  17  18
ENDBRANCH  16  17
BRANCH  16  20
HETATM   20  C11 UNL     1      25.985   1.662  52.458  1.00  0.00    -0.023 A 
HETATM   21  C12 UNL     1      26.080   1.728  53.843  1.00  0.00     0.009 A 
HETATM   22  C13 UNL     1      26.505   0.630  54.558  1.00  0.00     0.001 A 
HETATM   23  C14 UNL     1      26.849  -0.557  53.952  1.00  0.00     0.000 A 
HETATM   24  C15 UNL     1      26.758  -0.638  52.562  1.00  0.00     0.001 A 
HETATM   25  C16 UNL     1      26.332   0.458  51.833  1.00  0.00     0.009 A 
ENDBRANCH  16  20
ENDBRANCH  10  16
BRANCH   1  26
HETATM   26  C2  UNL     1      18.564  -0.552  52.631  1.00  0.00     0.064 C 
HETATM   27  C1  UNL     1      18.516  -1.590  53.459  1.00  0.00     0.017 C 
ENDBRANCH   1  26
TORSDOF 5
ENDMDL
MODEL 3
REMARK VINA RESULT:      -7.9      6.259      9.719
REMARK  5 active torsions:
REMARK  status: ('A' for Active; 'I' for Inactive)
REMARK    1  A    between atoms: C2_2  and  C3_3 
REMARK       I    between atoms: C3_3  and  N1_5 
REMARK    2  A    between atoms: N2_12  and  C9_13 
REMARK    3  A    between atoms: C9_13  and  C10_14 
REMARK    4  A    between atoms: C9_13  and  C11_16 
REMARK    5  A    between atoms: C10_14  and  O2_15 
ROOT
HETATM    1  C3  UNL     1      27.485   5.534  48.578  1.00  0.00     0.242 C 
HETATM    2  O1  UNL     1      27.903   4.358  48.723  1.00  0.00    -0.268 OA
HETATM    3  N1  UNL     1      28.294   6.589  48.113  1.00  0.00    -0.344 N 
HETATM    4  C4  UNL     1      27.839   7.956  47.938  1.00  0.00     0.136 C 
HETATM    5  C5  UNL     1      28.321   8.730  49.148  1.00  0.00     0.093 C 
HETATM    6  S1  UNL     1      30.114   8.812  49.029  1.00  0.00    -0.148 SA
HETATM    7  C6  UNL     1      30.583   7.460  48.262  1.00  0.00    -0.002 C 
HETATM    8  C7  UNL     1      29.667   6.380  47.768  1.00  0.00     0.168 C 
HETATM    9  C8  UNL     1      31.966   7.031  47.914  1.00  0.00     0.318 C 
HETATM   10  N2  UNL     1      31.994   6.854  46.451  1.00  0.00     0.123 N 
HETATM   11  C17 UNL     1      31.770   8.190  45.919  1.00  0.00     0.423 C 
HETATM   12  N3  UNL     1      32.823   9.091  46.336  1.00  0.00    -0.253 NA
HETATM   13  C18 UNL     1      32.484  10.196  46.902  1.00  0.00     0.228 C 
HETATM   14  N4  UNL     1      31.309  10.897  47.294  1.00  0.00    -0.248 NA
HETATM   15  C19 UNL     1      30.519  10.261  48.085  1.00  0.00     0.157 C 
ENDROOT
BRANCH  10  16
HETATM   16  C9  UNL     1      33.347   6.404  46.170  1.00  0.00     0.281 C 
BRANCH  16  17
HETATM   17  C10 UNL     1      33.679   6.413  44.695  1.00  0.00     0.204 C 
BRANCH  17  18
HETATM   18  O2  UNL     1      34.745   7.328  44.547  1.00  0.00    -0.398 OA
HETATM   19  H15 UNL     1      35.239   7.166  43.707  1.00  0.00     0.209 HD
ENDBRANCH  17  18
ENDBRANCH  16  17
BRANCH  16  20
HETATM   20  C11 UNL     1      33.433   5.000  46.654  1.00  0.00    -0.023 A 
HETATM   21  C12 UNL     1      34.447   4.477  47.447  1.00  0.00     0.009 A 
HETATM   22  C13 UNL     1      34.409   3.154  47.830  1.00  0.00     0.001 A 
HETATM   23  C14 UNL     1      33.392   2.306  47.456  1.00  0.00     0.000 A 
HETATM   24  C15 UNL     1      32.366   2.819  46.659  1.00  0.00     0.001 A 
HETATM   25  C16 UNL     1      32.393   4.145  46.269  1.00  0.00     0.009 A 
ENDBRANCH  16  20
ENDBRANCH  10  16
BRANCH   1  26
HETATM   26  C2  UNL     1      26.093   5.674  48.943  1.00  0.00     0.064 C 
HETATM   27  C1  UNL     1      25.736   4.481  49.405  1.00  0.00     0.017 C 
ENDBRANCH   1  26
TORSDOF 5
ENDMDL
MODEL 4
REMARK VINA RESULT:      -7.9      2.021      6.114
REMARK  5 active torsions:
REMARK  status: ('A' for Active; 'I' for Inactive)
REMARK    1  A    between atoms: C2_2  and  C3_3 
REMARK       I    between atoms: C3_3  and  N1_5 
REMARK    2  A    between atoms: N2_12  and  C9_13 
REMARK    3  A    between atoms: C9_13  and  C10_14 
REMARK    4  A    between atoms: C9_13  and  C11_16 
REMARK    5  A    between atoms: C10_14  and  O2_15 
ROOT
HETATM    1  C3  UNL     1      26.145   4.422  49.869  1.00  0.00     0.242 C 
HETATM    2  O1  UNL     1      27.316   3.985  49.741  1.00  0.00    -0.268 OA
HETATM    3  N1  UNL     1      25.169   3.794  50.668  1.00  0.00    -0.344 N 
HETATM    4  C4  UNL     1      23.810   4.275  50.831  1.00  0.00     0.136 C 
HETATM    5  C5  UNL     1      22.941   3.437  49.916  1.00  0.00     0.093 C 
HETATM    6  S1  UNL     1      22.935   1.770  50.593  1.00  0.00    -0.148 SA
HETATM    7  C6  UNL     1      24.371   1.569  51.324  1.00  0.00    -0.002 C 
HETATM    8  C7  UNL     1      25.460   2.598  51.397  1.00  0.00     0.168 C 
HETATM    9  C8  UNL     1      24.880   0.365  52.038  1.00  0.00     0.318 C 
HETATM   10  N2  UNL     1      25.198   0.796  53.412  1.00  0.00     0.123 N 
HETATM   11  C17 UNL     1      23.912   1.168  53.982  1.00  0.00     0.423 C 
HETATM   12  N3  UNL     1      23.013   0.034  54.006  1.00  0.00    -0.253 NA
HETATM   13  C18 UNL     1      21.847   0.175  53.479  1.00  0.00     0.228 C 
HETATM   14  N4  UNL     1      21.071   1.167  52.816  1.00  0.00    -0.248 NA
HETATM   15  C19 UNL     1      21.599   1.674  51.758  1.00  0.00     0.157 C 
ENDROOT
BRANCH  10  16
HETATM   16  C9  UNL     1      25.721  -0.400  54.051  1.00  0.00     0.281 C 
BRANCH  16  17
HETATM   17  C10 UNL     1      25.476  -0.429  55.542  1.00  0.00     0.204 C 
BRANCH  17  18
HETATM   18  O2  UNL     1      24.872  -1.677  55.808  1.00  0.00    -0.398 OA
HETATM   19  H15 UNL     1      24.652  -2.152  54.970  1.00  0.00     0.209 HD
ENDBRANCH  17  18
ENDBRANCH  16  17
BRANCH  16  20
HETATM   20  C11 UNL     1      27.190  -0.390  53.824  1.00  0.00    -0.023 A 
HETATM   21  C12 UNL     1      27.932  -1.425  53.266  1.00  0.00     0.009 A 
HETATM   22  C13 UNL     1      29.294  -1.290  53.108  1.00  0.00     0.001 A 
HETATM   23  C14 UNL     1      29.971  -0.153  53.486  1.00  0.00     0.000 A 
HETATM   24  C15 UNL     1      29.239   0.895  54.047  1.00  0.00     0.001 A 
HETATM   25  C16 UNL     1      27.871   0.771  54.210  1.00  0.00     0.009 A 
ENDBRANCH  16  20
ENDBRANCH  10  16
BRANCH   1  26
HETATM   26  C2  UNL     1      25.921   5.630  49.107  1.00  0.00     0.064 C 
HETATM   27  C1  UNL     1      27.104   5.933  48.584  1.00  0.00     0.017 C 
ENDBRANCH   1  26
TORSDOF 5
ENDMDL
MODEL 5
REMARK VINA RESULT:      -7.6      2.334      5.808
REMARK  5 active torsions:
REMARK  status: ('A' for Active; 'I' for Inactive)
REMARK    1  A    between atoms: C2_2  and  C3_3 
REMARK       I    between atoms: C3_3  and  N1_5 
REMARK    2  A    between atoms: N2_12  and  C9_13 
REMARK    3  A    between atoms: C9_13  and  C10_14 
REMARK    4  A    between atoms: C9_13  and  C11_16 
REMARK    5  A    between atoms: C10_14  and  O2_15 
ROOT
HETATM    1  C3  UNL     1      26.663   0.107  54.391  1.00  0.00     0.242 C 
HETATM    2  O1  UNL     1      26.008  -0.937  54.635  1.00  0.00    -0.268 OA
HETATM    3  N1  UNL     1      26.133   1.203  53.683  1.00  0.00    -0.344 N 
HETATM    4  C4  UNL     1      26.867   2.419  53.385  1.00  0.00     0.136 C 
HETATM    5  C5  UNL     1      27.332   2.303  51.948  1.00  0.00     0.093 C 
HETATM    6  S1  UNL     1      25.858   2.379  50.920  1.00  0.00    -0.148 SA
HETATM    7  C6  UNL     1      24.655   1.735  51.799  1.00  0.00    -0.002 C 
HETATM    8  C7  UNL     1      24.789   1.194  53.192  1.00  0.00     0.168 C 
HETATM    9  C8  UNL     1      23.227   1.553  51.413  1.00  0.00     0.318 C 
HETATM   10  N2  UNL     1      22.426   2.282  52.412  1.00  0.00     0.123 N 
HETATM   11  C17 UNL     1      22.787   3.678  52.220  1.00  0.00     0.423 C 
HETATM   12  N3  UNL     1      22.445   4.116  50.884  1.00  0.00    -0.253 NA
HETATM   13  C18 UNL     1      23.363   4.677  50.177  1.00  0.00     0.228 C 
HETATM   14  N4  UNL     1      24.734   5.046  50.278  1.00  0.00    -0.248 NA
HETATM   15  C19 UNL     1      25.548   4.090  50.560  1.00  0.00     0.157 C 
ENDROOT
BRANCH  10  16
HETATM   16  C9  UNL     1      21.050   2.043  52.012  1.00  0.00     0.281 C 
BRANCH  16  17
HETATM   17  C10 UNL     1      20.110   3.149  52.434  1.00  0.00     0.204 C 
BRANCH  17  18
HETATM   18  O2  UNL     1      19.479   3.590  51.250  1.00  0.00    -0.398 OA
HETATM   19  H15 UNL     1      18.520   3.770  51.404  1.00  0.00     0.209 HD
ENDBRANCH  17  18
ENDBRANCH  16  17
BRANCH  16  20
HETATM   20  C11 UNL     1      20.625   0.791  52.693  1.00  0.00    -0.023 A 
HETATM   21  C12 UNL     1      21.353   0.106  53.658  1.00  0.00     0.009 A 
HETATM   22  C13 UNL     1      20.845  -1.048  54.215  1.00  0.00     0.001 A 
HETATM   23  C14 UNL     1      19.623  -1.567  53.852  1.00  0.00     0.000 A 
HETATM   24  C15 UNL     1      18.881  -0.889  52.884  1.00  0.00     0.001 A 
HETATM   25  C16 UNL     1      19.380   0.270  52.318  1.00  0.00     0.009 A 
ENDBRANCH  16  20
ENDBRANCH  10  16
BRANCH   1  26
HETATM   26  C2  UNL     1      28.009   0.048  54.915  1.00  0.00     0.064 C 
HETATM   27  C1  UNL     1      28.714  -0.586  53.985  1.00  0.00     0.017 C 
ENDBRANCH   1  26
TORSDOF 5
ENDMDL
MODEL 6
REMARK VINA RESULT:      -7.5      1.914      2.653
REMARK  5 active torsions:
REMARK  status: ('A' for Active; 'I' for Inactive)
REMARK    1  A    between atoms: C2_2  and  C3_3 
REMARK       I    between atoms: C3_3  and  N1_5 
REMARK    2  A    between atoms: N2_12  and  C9_13 
REMARK    3  A    between atoms: C9_13  and  C10_14 
REMARK    4  A    between atoms: C9_13  and  C11_16 
REMARK    5  A    between atoms: C10_14  and  O2_15 
ROOT
HETATM    1  C3  UNL     1      25.557   0.742  53.833  1.00  0.00     0.242 C 
HETATM    2  O1  UNL     1      26.329   1.712  53.630  1.00  0.00    -0.268 OA
HETATM    3  N1  UNL     1      24.354   0.551  53.124  1.00  0.00    -0.344 N 
HETATM    4  C4  UNL     1      23.443  -0.558  53.339  1.00  0.00     0.136 C 
HETATM    5  C5  UNL     1      22.316  -0.030  54.203  1.00  0.00     0.093 C 
HETATM    6  S1  UNL     1      21.399   1.144  53.195  1.00  0.00    -0.148 SA
HETATM    7  C6  UNL     1      22.473   1.801  52.170  1.00  0.00    -0.002 C 
HETATM    8  C7  UNL     1      23.933   1.467  52.110  1.00  0.00     0.168 C 
HETATM    9  C8  UNL     1      22.234   2.836  51.125  1.00  0.00     0.318 C 
HETATM   10  N2  UNL     1      22.654   2.242  49.843  1.00  0.00     0.123 N 
HETATM   11  C17 UNL     1      21.726   1.141  49.631  1.00  0.00     0.423 C 
HETATM   12  N3  UNL     1      20.366   1.627  49.539  1.00  0.00    -0.253 NA
HETATM   13  C18 UNL     1      19.479   1.092  50.302  1.00  0.00     0.228 C 
HETATM   14  N4  UNL     1      19.376   0.087  51.304  1.00  0.00    -0.248 NA
HETATM   15  C19 UNL     1      20.149   0.233  52.322  1.00  0.00     0.157 C 
ENDROOT
BRANCH  10  16
HETATM   16  C9  UNL     1      22.435   3.298  48.869  1.00  0.00     0.281 C 
BRANCH  16  17
HETATM   17  C10 UNL     1      22.292   2.781  47.456  1.00  0.00     0.204 C 
BRANCH  17  18
HETATM   18  O2  UNL     1      21.062   3.289  46.984  1.00  0.00    -0.398 OA
HETATM   19  H15 UNL     1      20.861   4.167  47.389  1.00  0.00     0.209 HD
ENDBRANCH  17  18
ENDBRANCH  16  17
BRANCH  16  20
HETATM   20  C11 UNL     1      23.637   4.173  48.921  1.00  0.00    -0.023 A 
HETATM   21  C12 UNL     1      23.664   5.531  48.625  1.00  0.00     0.009 A 
HETATM   22  C13 UNL     1      24.847   6.232  48.712  1.00  0.00     0.001 A 
HETATM   23  C14 UNL     1      26.031   5.637  49.086  1.00  0.00     0.000 A 
HETATM   24  C15 UNL     1      26.018   4.274  49.386  1.00  0.00     0.001 A 
HETATM   25  C16 UNL     1      24.836   3.560  49.302  1.00  0.00     0.009 A 
ENDBRANCH  16  20
ENDBRANCH  10  16
BRANCH   1  26
HETATM   26  C2  UNL     1      26.042  -0.143  54.868  1.00  0.00     0.064 C 
HETATM   27  C1  UNL     1      27.355   0.057  54.904  1.00  0.00     0.017 C 
ENDBRANCH   1  26
TORSDOF 5
ENDMDL
MODEL 7
REMARK VINA RESULT:      -7.1      1.943      2.739
REMARK  5 active torsions:
REMARK  status: ('A' for Active; 'I' for Inactive)
REMARK    1  A    between atoms: C2_2  and  C3_3 
REMARK       I    between atoms: C3_3  and  N1_5 
REMARK    2  A    between atoms: N2_12  and  C9_13 
REMARK    3  A    between atoms: C9_13  and  C10_14 
REMARK    4  A    between atoms: C9_13  and  C11_16 
REMARK    5  A    between atoms: C10_14  and  O2_15 
ROOT
HETATM    1  C3  UNL     1      25.942   1.110  52.048  1.00  0.00     0.242 C 
HETATM    2  O1  UNL     1      27.096   1.607  52.028  1.00  0.00    -0.268 OA
HETATM    3  N1  UNL     1      24.808   1.770  51.534  1.00  0.00    -0.344 N 
HETATM    4  C4  UNL     1      23.465   1.221  51.545  1.00  0.00     0.136 C 
HETATM    5  C5  UNL     1      22.744   1.864  52.712  1.00  0.00     0.093 C 
HETATM    6  S1  UNL     1      22.539   3.603  52.298  1.00  0.00    -0.148 SA
HETATM    7  C6  UNL     1      23.804   4.001  51.362  1.00  0.00    -0.002 C 
HETATM    8  C7  UNL     1      24.905   3.072  50.948  1.00  0.00     0.168 C 
HETATM    9  C8  UNL     1      24.118   5.324  50.753  1.00  0.00     0.318 C 
HETATM   10  N2  UNL     1      24.195   5.108  49.297  1.00  0.00     0.123 N 
HETATM   11  C17 UNL     1      22.844   4.726  48.915  1.00  0.00     0.423 C 
HETATM   12  N3  UNL     1      21.907   5.787  49.217  1.00  0.00    -0.253 NA
HETATM   13  C18 UNL     1      20.866   5.494  49.915  1.00  0.00     0.228 C 
HETATM   14  N4  UNL     1      20.270   4.369  50.552  1.00  0.00    -0.248 NA
HETATM   15  C19 UNL     1      21.007   3.762  51.414  1.00  0.00     0.157 C 
ENDROOT
BRANCH  10  16
HETATM   16  C9  UNL     1      24.537   6.413  48.757  1.00  0.00     0.281 C 
BRANCH  16  17
HETATM   17  C10 UNL     1      23.835   6.716  47.453  1.00  0.00     0.204 C 
BRANCH  17  18
HETATM   18  O2  UNL     1      23.264   7.998  47.614  1.00  0.00    -0.398 OA
HETATM   19  H15 UNL     1      23.831   8.694  47.201  1.00  0.00     0.209 HD
ENDBRANCH  17  18
ENDBRANCH  16  17
BRANCH  16  20
HETATM   20  C11 UNL     1      26.001   6.391  48.500  1.00  0.00    -0.023 A 
HETATM   21  C12 UNL     1      26.760   7.462  48.044  1.00  0.00     0.009 A 
HETATM   22  C13 UNL     1      28.116   7.312  47.845  1.00  0.00     0.001 A 
HETATM   23  C14 UNL     1      28.769   6.124  48.082  1.00  0.00     0.000 A 
HETATM   24  C15 UNL     1      28.019   5.040  48.541  1.00  0.00     0.001 A 
HETATM   25  C16 UNL     1      26.658   5.179  48.744  1.00  0.00     0.009 A 
ENDBRANCH  16  20
ENDBRANCH  10  16
BRANCH   1  26
HETATM   26  C2  UNL     1      25.917  -0.203  52.652  1.00  0.00     0.064 C 
HETATM   27  C1  UNL     1      25.990   0.018  53.960  1.00  0.00     0.017 C 
ENDBRANCH   1  26
TORSDOF 5
ENDMDL
MODEL 8
REMARK VINA RESULT:      -7.1      2.950      3.832
REMARK  5 active torsions:
REMARK  status: ('A' for Active; 'I' for Inactive)
REMARK    1  A    between atoms: C2_2  and  C3_3 
REMARK       I    between atoms: C3_3  and  N1_5 
REMARK    2  A    between atoms: N2_12  and  C9_13 
REMARK    3  A    between atoms: C9_13  and  C10_14 
REMARK    4  A    between atoms: C9_13  and  C11_16 
REMARK    5  A    between atoms: C10_14  and  O2_15 
ROOT
HETATM    1  C3  UNL     1      23.074   0.090  52.664  1.00  0.00     0.242 C 
HETATM    2  O1  UNL     1      24.301   0.333  52.777  1.00  0.00    -0.268 OA
HETATM    3  N1  UNL     1      22.180   0.937  51.980  1.00  0.00    -0.344 N 
HETATM    4  C4  UNL     1      20.758   0.682  51.834  1.00  0.00     0.136 C 
HETATM    5  C5  UNL     1      20.058   1.538  52.870  1.00  0.00     0.093 C 
HETATM    6  S1  UNL     1      20.283   3.249  52.364  1.00  0.00    -0.148 SA
HETATM    7  C6  UNL     1      21.708   3.312  51.588  1.00  0.00    -0.002 C 
HETATM    8  C7  UNL     1      22.625   2.147  51.360  1.00  0.00     0.168 C 
HETATM    9  C8  UNL     1      22.371   4.497  50.974  1.00  0.00     0.318 C 
HETATM   10  N2  UNL     1      22.574   4.172  49.551  1.00  0.00     0.123 N 
HETATM   11  C17 UNL     1      21.229   4.056  49.009  1.00  0.00     0.423 C 
HETATM   12  N3  UNL     1      20.513   5.307  49.142  1.00  0.00    -0.253 NA
HETATM   13  C18 UNL     1      19.357   5.285  49.708  1.00  0.00     0.228 C 
HETATM   14  N4  UNL     1      18.461   4.354  50.305  1.00  0.00    -0.248 NA
HETATM   15  C19 UNL     1      18.940   3.665  51.280  1.00  0.00     0.157 C 
ENDROOT
BRANCH  10  16
HETATM   16  C9  UNL     1      23.252   5.338  49.011  1.00  0.00     0.281 C 
BRANCH  16  17
HETATM   17  C10 UNL     1      22.854   5.646  47.585  1.00  0.00     0.204 C 
BRANCH  17  18
HETATM   18  O2  UNL     1      22.375   6.974  47.598  1.00  0.00    -0.398 OA
HETATM   19  H15 UNL     1      23.118   7.620  47.678  1.00  0.00     0.209 HD
ENDBRANCH  17  18
ENDBRANCH  16  17
BRANCH  16  20
HETATM   20  C11 UNL     1      24.706   5.026  49.027  1.00  0.00    -0.023 A 
HETATM   21  C12 UNL     1      25.268   3.805  49.379  1.00  0.00     0.009 A 
HETATM   22  C13 UNL     1      26.637   3.642  49.353  1.00  0.00     0.001 A 
HETATM   23  C14 UNL     1      27.492   4.656  48.987  1.00  0.00     0.000 A 
HETATM   24  C15 UNL     1      26.941   5.888  48.630  1.00  0.00     0.001 A 
HETATM   25  C16 UNL     1      25.569   6.062  48.653  1.00  0.00     0.009 A 
ENDBRANCH  16  20
ENDBRANCH  10  16
BRANCH   1  26
HETATM   26  C2  UNL     1      22.694  -1.145  53.311  1.00  0.00     0.064 C 
HETATM   27  C1  UNL     1      22.565  -0.836  54.596  1.00  0.00     0.017 C 
ENDBRANCH   1  26
TORSDOF 5
ENDMDL
MODEL 9
REMARK VINA RESULT:      -6.9      7.234     11.039
REMARK  5 active torsions:
REMARK  status: ('A' for Active; 'I' for Inactive)
REMARK    1  A    between atoms: C2_2  and  C3_3 
REMARK       I    between atoms: C3_3  and  N1_5 
REMARK    2  A    between atoms: N2_12  and  C9_13 
REMARK    3  A    between atoms: C9_13  and  C10_14 
REMARK    4  A    between atoms: C9_13  and  C11_16 
REMARK    5  A    between atoms: C10_14  and  O2_15 
ROOT
HETATM    1  C3  UNL     1      28.310   7.317  48.049  1.00  0.00     0.242 C 
HETATM    2  O1  UNL     1      28.327   6.107  48.386  1.00  0.00    -0.268 OA
HETATM    3  N1  UNL     1      29.380   7.949  47.385  1.00  0.00    -0.344 N 
HETATM    4  C4  UNL     1      29.388   9.344  46.986  1.00  0.00     0.136 C 
HETATM    5  C5  UNL     1      30.197  10.087  48.030  1.00  0.00     0.093 C 
HETATM    6  S1  UNL     1      31.900   9.536  47.851  1.00  0.00    -0.148 SA
HETATM    7  C6  UNL     1      31.831   8.004  47.321  1.00  0.00    -0.002 C 
HETATM    8  C7  UNL     1      30.573   7.235  47.047  1.00  0.00     0.168 C 
HETATM    9  C8  UNL     1      32.962   7.082  47.016  1.00  0.00     0.318 C 
HETATM   10  N2  UNL     1      32.808   6.681  45.606  1.00  0.00     0.123 N 
HETATM   11  C17 UNL     1      32.993   7.913  44.856  1.00  0.00     0.423 C 
HETATM   12  N3  UNL     1      34.315   8.457  45.082  1.00  0.00    -0.253 NA
HETATM   13  C18 UNL     1      34.408   9.686  45.454  1.00  0.00     0.228 C 
HETATM   14  N4  UNL     1      33.567  10.795  45.748  1.00  0.00    -0.248 NA
HETATM   15  C19 UNL     1      32.680  10.596  46.659  1.00  0.00     0.157 C 
ENDROOT
BRANCH  10  16
HETATM   16  C9  UNL     1      33.908   5.761  45.373  1.00  0.00     0.281 C 
BRANCH  16  17
HETATM   17  C10 UNL     1      34.083   5.406  43.915  1.00  0.00     0.204 C 
BRANCH  17  18
HETATM   18  O2  UNL     1      35.408   5.770  43.587  1.00  0.00    -0.398 OA
HETATM   19  H15 UNL     1      35.422   6.507  42.930  1.00  0.00     0.209 HD
ENDBRANCH  17  18
ENDBRANCH  16  17
BRANCH  16  20
HETATM   20  C11 UNL     1      33.579   4.515  46.116  1.00  0.00    -0.023 A 
HETATM   21  C12 UNL     1      32.422   3.762  45.962  1.00  0.00     0.009 A 
HETATM   22  C13 UNL     1      32.236   2.621  46.714  1.00  0.00     0.001 A 
HETATM   23  C14 UNL     1      33.165   2.183  47.630  1.00  0.00     0.000 A 
HETATM   24  C15 UNL     1      34.333   2.930  47.794  1.00  0.00     0.001 A 
HETATM   25  C16 UNL     1      34.529   4.076  47.045  1.00  0.00     0.009 A 
ENDBRANCH  16  20
ENDBRANCH  10  16
BRANCH   1  26
HETATM   26  C2  UNL     1      27.077   7.975  48.420  1.00  0.00     0.064 C 
HETATM   27  C1  UNL     1      26.233   7.710  47.430  1.00  0.00     0.017 C 
ENDBRANCH   1  26
TORSDOF 5
ENDMDL
