MODEL 1
REMARK VINA RESULT:      -8.1      0.000      0.000
REMARK  4 active torsions:
REMARK  status: ('A' for Active; 'I' for Inactive)
REMARK    1  A    between atoms: C2_2  and  C3_3 
REMARK    2  A    between atoms: C5_7  and  N3_8 
REMARK    3  A    between atoms: N3_8  and  C6_9 
REMARK    4  A    between atoms: C8_11  and  C9_12 
ROOT
HETATM    1  C6  UNL     1      21.798   0.700  53.288  1.00  0.00     0.099 A 
HETATM    2  C7  UNL     1      22.442  -0.032  52.191  1.00  0.00     0.028 A 
HETATM    3  C8  UNL     1      23.366   0.630  53.015  1.00  0.00     0.074 A 
ENDROOT
BRANCH   1   4
HETATM    4  N3  UNL     1      20.485   0.257  52.890  1.00  0.00    -0.368 N 
HETATM    5  H7  UNL     1      20.876  -0.532  52.248  1.00  0.00     0.161 HD
BRANCH   4   6
HETATM    6  C5  UNL     1      19.167  -0.198  52.482  1.00  0.00     0.133 A 
HETATM    7  N2  UNL     1      18.508  -0.995  53.362  1.00  0.00    -0.224 NA
HETATM    8  C4  UNL     1      17.256  -1.405  53.046  1.00  0.00     0.235 A 
HETATM    9  N1  UNL     1      16.761  -0.977  51.880  1.00  0.00    -0.246 NA
HETATM   10  C3  UNL     1      17.357  -0.204  50.996  1.00  0.00     0.045 A 
HETATM   11  C18 UNL     1      18.618   0.225  51.260  1.00  0.00     0.008 A 
HETATM   12  C19 UNL     1      19.311   1.013  50.233  1.00  0.00     0.054 C 
BRANCH  10  13
HETATM   13  C2  UNL     1      16.749   0.282  49.707  1.00  0.00     0.055 C 
HETATM   14  C1  UNL     1      16.044  -0.969  49.112  1.00  0.00     0.011 C 
ENDBRANCH  10  13
ENDBRANCH   4   6
ENDBRANCH   1   4
BRANCH   3  15
HETATM   15  C9  UNL     1      24.605   0.930  53.351  1.00  0.00     0.074 C 
HETATM   16  O1  UNL     1      25.515   2.038  53.302  1.00  0.00    -0.349 OA
HETATM   17  C10 UNL     1      26.721   2.024  52.523  1.00  0.00     0.210 C 
HETATM   18  C11 UNL     1      27.666   0.985  52.931  1.00  0.00    -0.045 A 
HETATM   19  C12 UNL     1      28.849   1.282  53.423  1.00  0.00     0.006 A 
HETATM   20  C15 UNL     1      27.539  -0.471  52.863  1.00  0.00     0.063 A 
HETATM   21  C13 UNL     1      29.617   0.132  53.757  1.00  0.00    -0.003 A 
HETATM   22  C14 UNL     1      28.850  -0.906  53.434  1.00  0.00    -0.014 A 
HETATM   23  C16 UNL     1      26.432  -0.885  53.789  1.00  0.00     0.012 C 
HETATM   24  C17 UNL     1      25.219  -0.260  53.948  1.00  0.00     0.060 C 
HETATM   25 CL1  UNL     1      24.283  -1.167  55.133  1.00  0.00    -0.082 Cl
ENDBRANCH   3  15
TORSDOF 4
ENDMDL
MODEL 2
REMARK VINA RESULT:      -7.7      1.508      2.021
REMARK  4 active torsions:
REMARK  status: ('A' for Active; 'I' for Inactive)
REMARK    1  A    between atoms: C2_2  and  C3_3 
REMARK    2  A    between atoms: C5_7  and  N3_8 
REMARK    3  A    between atoms: N3_8  and  C6_9 
REMARK    4  A    between atoms: C8_11  and  C9_12 
ROOT
HETATM    1  C6  UNL     1      22.320   2.188  52.767  1.00  0.00     0.099 A 
HETATM    2  C7  UNL     1      22.741   1.090  51.889  1.00  0.00     0.028 A 
HETATM    3  C8  UNL     1      23.764   1.516  52.752  1.00  0.00     0.074 A 
ENDROOT
BRANCH   1   4
HETATM    4  N3  UNL     1      20.982   2.179  52.232  1.00  0.00    -0.368 N 
HETATM    5  H7  UNL     1      21.315   2.410  51.221  1.00  0.00     0.161 HD
BRANCH   4   6
HETATM    6  C5  UNL     1      19.636   2.172  51.683  1.00  0.00     0.133 A 
HETATM    7  N2  UNL     1      19.210   3.335  51.126  1.00  0.00    -0.224 NA
HETATM    8  C4  UNL     1      17.979   3.364  50.559  1.00  0.00     0.235 A 
HETATM    9  N1  UNL     1      17.280   2.224  50.587  1.00  0.00    -0.246 NA
HETATM   10  C3  UNL     1      17.649   1.074  51.110  1.00  0.00     0.045 A 
HETATM   11  C18 UNL     1      18.869   0.996  51.702  1.00  0.00     0.008 A 
HETATM   12  C19 UNL     1      19.240  -0.262  52.361  1.00  0.00     0.054 C 
BRANCH  10  13
HETATM   13  C2  UNL     1      16.840  -0.197  51.091  1.00  0.00     0.055 C 
HETATM   14  C1  UNL     1      16.558  -0.457  49.586  1.00  0.00     0.011 C 
ENDBRANCH  10  13
ENDBRANCH   4   6
ENDBRANCH   1   4
BRANCH   3  15
HETATM   15  C9  UNL     1      24.987   1.409  53.234  1.00  0.00     0.074 C 
HETATM   16  O1  UNL     1      26.138   2.226  53.489  1.00  0.00    -0.349 OA
HETATM   17  C10 UNL     1      27.393   2.040  52.815  1.00  0.00     0.210 C 
HETATM   18  C11 UNL     1      27.997   0.731  53.059  1.00  0.00    -0.045 A 
HETATM   19  C12 UNL     1      29.145   0.606  53.689  1.00  0.00     0.006 A 
HETATM   20  C15 UNL     1      27.528  -0.600  52.672  1.00  0.00     0.063 A 
HETATM   21  C13 UNL     1      29.561  -0.748  53.823  1.00  0.00    -0.003 A 
HETATM   22  C14 UNL     1      28.611  -1.465  53.230  1.00  0.00    -0.014 A 
HETATM   23  C16 UNL     1      26.246  -0.873  53.404  1.00  0.00     0.012 C 
HETATM   24  C17 UNL     1      25.212   0.008  53.604  1.00  0.00     0.060 C 
HETATM   25 CL1  UNL     1      23.942  -0.826  54.496  1.00  0.00    -0.082 Cl
ENDBRANCH   3  15
TORSDOF 4
ENDMDL
MODEL 3
REMARK VINA RESULT:      -7.6      1.273      1.923
REMARK  4 active torsions:
REMARK  status: ('A' for Active; 'I' for Inactive)
REMARK    1  A    between atoms: C2_2  and  C3_3 
REMARK    2  A    between atoms: C5_7  and  N3_8 
REMARK    3  A    between atoms: N3_8  and  C6_9 
REMARK    4  A    between atoms: C8_11  and  C9_12 
ROOT
HETATM    1  C6  UNL     1      21.183   1.182  52.494  1.00  0.00     0.099 A 
HETATM    2  C7  UNL     1      21.835   0.245  51.570  1.00  0.00     0.028 A 
HETATM    3  C8  UNL     1      22.751   0.922  52.394  1.00  0.00     0.074 A 
ENDROOT
BRANCH   1   4
HETATM    4  N3  UNL     1      19.869   0.819  52.024  1.00  0.00    -0.368 N 
HETATM    5  H7  UNL     1      20.243   0.442  51.073  1.00  0.00     0.161 HD
BRANCH   4   6
HETATM    6  C5  UNL     1      18.549   0.450  51.541  1.00  0.00     0.133 A 
HETATM    7  N2  UNL     1      18.099   1.125  50.452  1.00  0.00    -0.224 NA
HETATM    8  C4  UNL     1      16.893   0.783  49.936  1.00  0.00     0.235 A 
HETATM    9  N1  UNL     1      16.240  -0.211  50.547  1.00  0.00    -0.246 NA
HETATM   10  C3  UNL     1      16.634  -0.896  51.600  1.00  0.00     0.045 A 
HETATM   11  C18 UNL     1      17.830  -0.584  52.162  1.00  0.00     0.008 A 
HETATM   12  C19 UNL     1      18.225  -1.289  53.388  1.00  0.00     0.054 C 
BRANCH  10  13
HETATM   13  C2  UNL     1      15.879  -2.033  52.238  1.00  0.00     0.055 C 
HETATM   14  C1  UNL     1      14.394  -1.578  52.213  1.00  0.00     0.011 C 
ENDBRANCH  10  13
ENDBRANCH   4   6
ENDBRANCH   1   4
BRANCH   3  15
HETATM   15  C9  UNL     1      23.982   1.141  52.813  1.00  0.00     0.074 C 
HETATM   16  O1  UNL     1      24.963   2.187  52.826  1.00  0.00    -0.349 OA
HETATM   17  C10 UNL     1      26.216   2.091  52.131  1.00  0.00     0.210 C 
HETATM   18  C11 UNL     1      27.061   0.994  52.602  1.00  0.00    -0.045 A 
HETATM   19  C12 UNL     1      28.225   1.216  53.174  1.00  0.00     0.006 A 
HETATM   20  C15 UNL     1      26.843  -0.450  52.527  1.00  0.00     0.063 A 
HETATM   21  C13 UNL     1      28.891   0.019  53.559  1.00  0.00    -0.003 A 
HETATM   22  C14 UNL     1      28.082  -0.967  53.185  1.00  0.00    -0.014 A 
HETATM   23  C16 UNL     1      25.651  -0.787  53.375  1.00  0.00     0.012 C 
HETATM   24  C17 UNL     1      24.474  -0.084  53.450  1.00  0.00     0.060 C 
HETATM   25 CL1  UNL     1      23.402  -0.923  54.569  1.00  0.00    -0.082 Cl
ENDBRANCH   3  15
TORSDOF 4
ENDMDL
MODEL 4
REMARK VINA RESULT:      -7.5      5.232      8.952
REMARK  4 active torsions:
REMARK  status: ('A' for Active; 'I' for Inactive)
REMARK    1  A    between atoms: C2_2  and  C3_3 
REMARK    2  A    between atoms: C5_7  and  N3_8 
REMARK    3  A    between atoms: N3_8  and  C6_9 
REMARK    4  A    between atoms: C8_11  and  C9_12 
ROOT
HETATM    1  C6  UNL     1      24.428   4.125  50.957  1.00  0.00     0.099 A 
HETATM    2  C7  UNL     1      24.544   3.396  49.689  1.00  0.00     0.028 A 
HETATM    3  C8  UNL     1      23.851   2.668  50.671  1.00  0.00     0.074 A 
ENDROOT
BRANCH   1   4
HETATM    4  N3  UNL     1      25.107   5.278  50.422  1.00  0.00    -0.368 N 
HETATM    5  H7  UNL     1      25.718   4.684  49.744  1.00  0.00     0.161 HD
BRANCH   4   6
HETATM    6  C5  UNL     1      25.798   6.434  49.877  1.00  0.00     0.133 A 
HETATM    7  N2  UNL     1      25.309   7.649  50.235  1.00  0.00    -0.224 NA
HETATM    8  C4  UNL     1      25.949   8.758  49.789  1.00  0.00     0.235 A 
HETATM    9  N1  UNL     1      27.032   8.559  49.029  1.00  0.00    -0.246 NA
HETATM   10  C3  UNL     1      27.545   7.405  48.657  1.00  0.00     0.045 A 
HETATM   11  C18 UNL     1      26.933   6.265  49.067  1.00  0.00     0.008 A 
HETATM   12  C19 UNL     1      27.457   4.983  48.578  1.00  0.00     0.054 C 
BRANCH  10  13
HETATM   13  C2  UNL     1      28.788   7.228  47.824  1.00  0.00     0.055 C 
HETATM   14  C1  UNL     1      29.914   7.902  48.655  1.00  0.00     0.011 C 
ENDBRANCH  10  13
ENDBRANCH   4   6
ENDBRANCH   1   4
BRANCH   3  15
HETATM   15  C9  UNL     1      23.178   1.602  51.057  1.00  0.00     0.074 C 
HETATM   16  O1  UNL     1      21.961   0.907  50.752  1.00  0.00    -0.349 OA
HETATM   17  C10 UNL     1      20.881   0.775  51.690  1.00  0.00     0.210 C 
HETATM   18  C11 UNL     1      21.249   0.047  52.904  1.00  0.00    -0.045 A 
HETATM   19  C12 UNL     1      20.696  -1.105  53.213  1.00  0.00     0.006 A 
HETATM   20  C15 UNL     1      22.196   0.410  53.959  1.00  0.00     0.063 A 
HETATM   21  C13 UNL     1      21.189  -1.649  54.431  1.00  0.00    -0.003 A 
HETATM   22  C14 UNL     1      22.077  -0.765  54.875  1.00  0.00    -0.014 A 
HETATM   23  C16 UNL     1      23.573   0.436  53.360  1.00  0.00     0.012 C 
HETATM   24  C17 UNL     1      23.926   0.955  52.138  1.00  0.00     0.060 C 
HETATM   25 CL1  UNL     1      25.665   0.754  51.937  1.00  0.00    -0.082 Cl
ENDBRANCH   3  15
TORSDOF 4
ENDMDL
MODEL 5
REMARK VINA RESULT:      -7.5      3.052      3.770
REMARK  4 active torsions:
REMARK  status: ('A' for Active; 'I' for Inactive)
REMARK    1  A    between atoms: C2_2  and  C3_3 
REMARK    2  A    between atoms: C5_7  and  N3_8 
REMARK    3  A    between atoms: N3_8  and  C6_9 
REMARK    4  A    between atoms: C8_11  and  C9_12 
ROOT
HETATM    1  C6  UNL     1      23.488   3.443  52.846  1.00  0.00     0.099 A 
HETATM    2  C7  UNL     1      23.914   2.603  51.720  1.00  0.00     0.028 A 
HETATM    3  C8  UNL     1      24.785   2.518  52.819  1.00  0.00     0.074 A 
ENDROOT
BRANCH   1   4
HETATM    4  N3  UNL     1      22.306   3.881  52.147  1.00  0.00    -0.368 N 
HETATM    5  H7  UNL     1      22.130   2.903  51.701  1.00  0.00     0.161 HD
BRANCH   4   6
HETATM    6  C5  UNL     1      21.114   4.312  51.438  1.00  0.00     0.133 A 
HETATM    7  N2  UNL     1      21.231   5.446  50.701  1.00  0.00    -0.224 NA
HETATM    8  C4  UNL     1      20.159   5.862  49.984  1.00  0.00     0.235 A 
HETATM    9  N1  UNL     1      19.059   5.104  50.056  1.00  0.00    -0.246 NA
HETATM   10  C3  UNL     1      18.897   3.999  50.752  1.00  0.00     0.045 A 
HETATM   11  C18 UNL     1      19.938   3.546  51.497  1.00  0.00     0.008 A 
HETATM   12  C19 UNL     1      19.724   2.363  52.340  1.00  0.00     0.054 C 
BRANCH  10  13
HETATM   13  C2  UNL     1      17.648   3.157  50.779  1.00  0.00     0.055 C 
HETATM   14  C1  UNL     1      16.567   4.082  51.406  1.00  0.00     0.011 C 
ENDBRANCH  10  13
ENDBRANCH   4   6
ENDBRANCH   1   4
BRANCH   3  15
HETATM   15  C9  UNL     1      25.849   2.013  53.412  1.00  0.00     0.074 C 
HETATM   16  O1  UNL     1      27.064   2.450  54.037  1.00  0.00    -0.349 OA
HETATM   17  C10 UNL     1      28.366   2.143  53.513  1.00  0.00     0.210 C 
HETATM   18  C11 UNL     1      28.650   0.709  53.461  1.00  0.00    -0.045 A 
HETATM   19  C12 UNL     1      29.611   0.170  54.180  1.00  0.00     0.006 A 
HETATM   20  C15 UNL     1      28.019  -0.339  52.660  1.00  0.00     0.063 A 
HETATM   21  C13 UNL     1      29.727  -1.235  53.987  1.00  0.00    -0.003 A 
HETATM   22  C14 UNL     1      28.789  -1.543  53.096  1.00  0.00    -0.014 A 
HETATM   23  C16 UNL     1      26.592  -0.472  53.108  1.00  0.00     0.012 C 
HETATM   24  C17 UNL     1      25.727   0.552  53.405  1.00  0.00     0.060 C 
HETATM   25 CL1  UNL     1      24.174  -0.150  53.850  1.00  0.00    -0.082 Cl
ENDBRANCH   3  15
TORSDOF 4
ENDMDL
MODEL 6
REMARK VINA RESULT:      -7.1      5.792      9.352
REMARK  4 active torsions:
REMARK  status: ('A' for Active; 'I' for Inactive)
REMARK    1  A    between atoms: C2_2  and  C3_3 
REMARK    2  A    between atoms: C5_7  and  N3_8 
REMARK    3  A    between atoms: N3_8  and  C6_9 
REMARK    4  A    between atoms: C8_11  and  C9_12 
ROOT
HETATM    1  C6  UNL     1      25.422   3.740  51.143  1.00  0.00     0.099 A 
HETATM    2  C7  UNL     1      26.316   3.408  50.026  1.00  0.00     0.028 A 
HETATM    3  C8  UNL     1      25.648   4.631  49.842  1.00  0.00     0.074 A 
ENDROOT
BRANCH   1   4
HETATM    4  N3  UNL     1      25.795   2.552  51.869  1.00  0.00    -0.368 N 
HETATM    5  H7  UNL     1      24.776   2.167  51.891  1.00  0.00     0.161 HD
BRANCH   4   6
HETATM    6  C5  UNL     1      26.161   1.351  52.601  1.00  0.00     0.133 A 
HETATM    7  N2  UNL     1      25.255   0.339  52.585  1.00  0.00    -0.224 NA
HETATM    8  C4  UNL     1      25.572  -0.818  53.215  1.00  0.00     0.235 A 
HETATM    9  N1  UNL     1      26.773  -0.872  53.802  1.00  0.00    -0.246 NA
HETATM   10  C3  UNL     1      27.684   0.077  53.843  1.00  0.00     0.045 A 
HETATM   11  C18 UNL     1      27.410   1.262  53.237  1.00  0.00     0.008 A 
HETATM   12  C19 UNL     1      28.391   2.346  53.361  1.00  0.00     0.054 C 
BRANCH  10  13
HETATM   13  C2  UNL     1      29.040  -0.037  54.489  1.00  0.00     0.055 C 
HETATM   14  C1  UNL     1      29.803  -1.071  53.615  1.00  0.00     0.011 C 
ENDBRANCH  10  13
ENDBRANCH   4   6
ENDBRANCH   1   4
BRANCH   3  15
HETATM   15  C9  UNL     1      25.418   5.726  49.145  1.00  0.00     0.074 C 
HETATM   16  O1  UNL     1      26.133   6.832  48.576  1.00  0.00    -0.349 OA
HETATM   17  C10 UNL     1      25.943   8.189  49.008  1.00  0.00     0.210 C 
HETATM   18  C11 UNL     1      24.582   8.681  48.801  1.00  0.00    -0.045 A 
HETATM   19  C12 UNL     1      24.323   9.673  47.976  1.00  0.00     0.006 A 
HETATM   20  C15 UNL     1      23.330   8.250  49.422  1.00  0.00     0.063 A 
HETATM   21  C13 UNL     1      22.941  10.001  47.919  1.00  0.00    -0.003 A 
HETATM   22  C14 UNL     1      22.347   9.164  48.764  1.00  0.00    -0.014 A 
HETATM   23  C16 UNL     1      23.059   6.837  48.992  1.00  0.00     0.012 C 
HETATM   24  C17 UNL     1      23.976   5.818  48.900  1.00  0.00     0.060 C 
HETATM   25 CL1  UNL     1      23.131   4.363  48.376  1.00  0.00    -0.082 Cl
ENDBRANCH   3  15
TORSDOF 4
ENDMDL
MODEL 7
REMARK VINA RESULT:      -7.0      6.762     10.737
REMARK  4 active torsions:
REMARK  status: ('A' for Active; 'I' for Inactive)
REMARK    1  A    between atoms: C2_2  and  C3_3 
REMARK    2  A    between atoms: C5_7  and  N3_8 
REMARK    3  A    between atoms: N3_8  and  C6_9 
REMARK    4  A    between atoms: C8_11  and  C9_12 
ROOT
HETATM    1  C6  UNL     1      26.546   5.195  48.906  1.00  0.00     0.099 A 
HETATM    2  C7  UNL     1      25.634   5.756  49.910  1.00  0.00     0.028 A 
HETATM    3  C8  UNL     1      25.295   4.443  49.544  1.00  0.00     0.074 A 
ENDROOT
BRANCH   1   4
HETATM    4  N3  UNL     1      27.358   6.385  48.894  1.00  0.00    -0.368 N 
HETATM    5  H7  UNL     1      26.839   6.825  49.745  1.00  0.00     0.161 HD
BRANCH   4   6
HETATM    6  C5  UNL     1      28.170   7.590  48.890  1.00  0.00     0.133 A 
HETATM    7  N2  UNL     1      27.602   8.698  49.431  1.00  0.00    -0.224 NA
HETATM    8  C4  UNL     1      28.339   9.834  49.493  1.00  0.00     0.235 A 
HETATM    9  N1  UNL     1      29.587   9.766  49.015  1.00  0.00    -0.246 NA
HETATM   10  C3  UNL     1      30.182   8.718  48.485  1.00  0.00     0.045 A 
HETATM   11  C18 UNL     1      29.482   7.559  48.389  1.00  0.00     0.008 A 
HETATM   12  C19 UNL     1      30.119   6.419  47.717  1.00  0.00     0.054 C 
BRANCH  10  13
HETATM   13  C2  UNL     1      31.603   8.677  47.988  1.00  0.00     0.055 C 
HETATM   14  C1  UNL     1      31.897  10.131  47.524  1.00  0.00     0.011 C 
ENDBRANCH  10  13
ENDBRANCH   4   6
ENDBRANCH   1   4
BRANCH   3  15
HETATM   15  C9  UNL     1      24.541   3.368  49.669  1.00  0.00     0.074 C 
HETATM   16  O1  UNL     1      23.448   2.714  49.009  1.00  0.00    -0.349 OA
HETATM   17  C10 UNL     1      22.157   2.547  49.615  1.00  0.00     0.210 C 
HETATM   18  C11 UNL     1      22.187   1.742  50.836  1.00  0.00    -0.045 A 
HETATM   19  C12 UNL     1      21.569   0.583  50.914  1.00  0.00     0.006 A 
HETATM   20  C15 UNL     1      22.817   2.024  52.125  1.00  0.00     0.063 A 
HETATM   21  C13 UNL     1      21.717  -0.041  52.183  1.00  0.00    -0.003 A 
HETATM   22  C14 UNL     1      22.456   0.800  52.902  1.00  0.00    -0.014 A 
HETATM   23  C16 UNL     1      24.304   2.061  51.918  1.00  0.00     0.012 C 
HETATM   24  C17 UNL     1      24.972   2.644  50.869  1.00  0.00     0.060 C 
HETATM   25 CL1  UNL     1      26.701   2.424  51.127  1.00  0.00    -0.082 Cl
ENDBRANCH   3  15
TORSDOF 4
ENDMDL
MODEL 8
REMARK VINA RESULT:      -7.0      5.836      8.774
REMARK  4 active torsions:
REMARK  status: ('A' for Active; 'I' for Inactive)
REMARK    1  A    between atoms: C2_2  and  C3_3 
REMARK    2  A    between atoms: C5_7  and  N3_8 
REMARK    3  A    between atoms: N3_8  and  C6_9 
REMARK    4  A    between atoms: C8_11  and  C9_12 
ROOT
HETATM    1  C6  UNL     1      24.648   4.881  50.725  1.00  0.00     0.099 A 
HETATM    2  C7  UNL     1      24.268   3.753  49.866  1.00  0.00     0.028 A 
HETATM    3  C8  UNL     1      24.217   3.435  51.233  1.00  0.00     0.074 A 
ENDROOT
BRANCH   1   4
HETATM    4  N3  UNL     1      24.834   5.755  49.593  1.00  0.00    -0.368 N 
HETATM    5  H7  UNL     1      23.947   6.345  49.822  1.00  0.00     0.161 HD
BRANCH   4   6
HETATM    6  C5  UNL     1      25.011   6.640  48.455  1.00  0.00     0.133 A 
HETATM    7  N2  UNL     1      23.877   7.136  47.898  1.00  0.00    -0.224 NA
HETATM    8  C4  UNL     1      23.994   8.004  46.863  1.00  0.00     0.235 A 
HETATM    9  N1  UNL     1      25.237   8.311  46.477  1.00  0.00    -0.246 NA
HETATM   10  C3  UNL     1      26.365   7.861  46.985  1.00  0.00     0.045 A 
HETATM   11  C18 UNL     1      26.302   6.979  48.015  1.00  0.00     0.008 A 
HETATM   12  C19 UNL     1      27.559   6.412  48.520  1.00  0.00     0.054 C 
BRANCH  10  13
HETATM   13  C2  UNL     1      27.747   8.259  46.538  1.00  0.00     0.055 C 
HETATM   14  C1  UNL     1      27.619   8.461  45.003  1.00  0.00     0.011 C 
ENDBRANCH  10  13
ENDBRANCH   4   6
ENDBRANCH   1   4
BRANCH   3  15
HETATM   15  C9  UNL     1      23.955   2.591  52.212  1.00  0.00     0.074 C 
HETATM   16  O1  UNL     1      24.647   1.752  53.148  1.00  0.00    -0.349 OA
HETATM   17  C10 UNL     1      24.540   0.320  53.140  1.00  0.00     0.210 C 
HETATM   18  C11 UNL     1      23.181  -0.164  53.378  1.00  0.00    -0.045 A 
HETATM   19  C12 UNL     1      22.877  -0.872  54.444  1.00  0.00     0.006 A 
HETATM   20  C15 UNL     1      21.980  -0.014  52.557  1.00  0.00     0.063 A 
HETATM   21  C13 UNL     1      21.505  -1.247  54.489  1.00  0.00    -0.003 A 
HETATM   22  C14 UNL     1      20.969  -0.741  53.383  1.00  0.00    -0.014 A 
HETATM   23  C16 UNL     1      21.627   1.444  52.509  1.00  0.00     0.012 C 
HETATM   24  C17 UNL     1      22.500   2.494  52.357  1.00  0.00     0.060 C 
HETATM   25 CL1  UNL     1      21.566   3.988  52.340  1.00  0.00    -0.082 Cl
ENDBRANCH   3  15
TORSDOF 4
ENDMDL
MODEL 9
REMARK VINA RESULT:      -7.0      6.770     10.580
REMARK  4 active torsions:
REMARK  status: ('A' for Active; 'I' for Inactive)
REMARK    1  A    between atoms: C2_2  and  C3_3 
REMARK    2  A    between atoms: C5_7  and  N3_8 
REMARK    3  A    between atoms: N3_8  and  C6_9 
REMARK    4  A    between atoms: C8_11  and  C9_12 
ROOT
HETATM    1  C6  UNL     1      26.243   5.401  49.680  1.00  0.00     0.099 A 
HETATM    2  C7  UNL     1      26.537   3.964  49.607  1.00  0.00     0.028 A 
HETATM    3  C8  UNL     1      25.306   4.235  50.228  1.00  0.00     0.074 A 
ENDROOT
BRANCH   1   4
HETATM    4  N3  UNL     1      27.458   5.743  48.984  1.00  0.00    -0.368 N 
HETATM    5  H7  UNL     1      27.368   6.804  49.217  1.00  0.00     0.161 HD
BRANCH   4   6
HETATM    6  C5  UNL     1      28.681   6.099  48.285  1.00  0.00     0.133 A 
HETATM    7  N2  UNL     1      29.764   5.319  48.536  1.00  0.00    -0.224 NA
HETATM    8  C4  UNL     1      30.915   5.583  47.871  1.00  0.00     0.235 A 
HETATM    9  N1  UNL     1      30.885   6.600  47.003  1.00  0.00    -0.246 NA
HETATM   10  C3  UNL     1      29.863   7.382  46.723  1.00  0.00     0.045 A 
HETATM   11  C18 UNL     1      28.690   7.166  47.372  1.00  0.00     0.008 A 
HETATM   12  C19 UNL     1      27.580   8.095  47.122  1.00  0.00     0.054 C 
BRANCH  10  13
HETATM   13  C2  UNL     1      29.866   8.498  45.712  1.00  0.00     0.055 C 
HETATM   14  C1  UNL     1      30.962   8.095  44.687  1.00  0.00     0.011 C 
ENDBRANCH  10  13
ENDBRANCH   4   6
ENDBRANCH   1   4
BRANCH   3  15
HETATM   15  C9  UNL     1      24.185   3.830  50.793  1.00  0.00     0.074 C 
HETATM   16  O1  UNL     1      23.606   3.692  52.098  1.00  0.00    -0.349 OA
HETATM   17  C10 UNL     1      23.254   2.420  52.665  1.00  0.00     0.210 C 
HETATM   18  C11 UNL     1      22.237   1.701  51.898  1.00  0.00    -0.045 A 
HETATM   19  C12 UNL     1      21.051   1.437  52.401  1.00  0.00     0.006 A 
HETATM   20  C15 UNL     1      22.308   1.143  50.548  1.00  0.00     0.063 A 
HETATM   21  C13 UNL     1      20.209   0.730  51.498  1.00  0.00    -0.003 A 
HETATM   22  C14 UNL     1      20.941   0.557  50.402  1.00  0.00    -0.014 A 
HETATM   23  C16 UNL     1      22.468   2.280  49.581  1.00  0.00     0.012 C 
HETATM   24  C17 UNL     1      23.276   3.380  49.735  1.00  0.00     0.060 C 
HETATM   25 CL1  UNL     1      23.110   4.390  48.301  1.00  0.00    -0.082 Cl
ENDBRANCH   3  15
TORSDOF 4
ENDMDL
