MODEL 1
REMARK VINA RESULT:      -7.8      0.000      0.000
REMARK  6 active torsions:
REMARK  status: ('A' for Active; 'I' for Inactive)
REMARK    1  A    between atoms: C3_3  and  N1_5 
REMARK    2  A    between atoms: N1_5  and  C4_6 
REMARK    3  A    between atoms: C7_9  and  O2_10 
REMARK    4  A    between atoms: O2_10  and  C8_11 
REMARK    5  A    between atoms: C12_17  and  O3_18 
REMARK    6  A    between atoms: C14_20  and  O4_21 
ROOT
HETATM    1  C8  UNL     1      22.789   1.693  52.043  1.00  0.00     0.183 A 
HETATM    2  N2  UNL     1      22.423   2.962  51.985  1.00  0.00    -0.217 NA
HETATM    3  C9  UNL     1      23.128   3.981  52.483  1.00  0.00     0.236 A 
HETATM    4  N3  UNL     1      24.315   3.745  53.104  1.00  0.00    -0.241 NA
HETATM    5  C10 UNL     1      24.777   2.465  53.213  1.00  0.00     0.075 A 
HETATM    6  C11 UNL     1      25.986   2.333  53.856  1.00  0.00     0.072 A 
HETATM    7  C12 UNL     1      26.480   1.055  53.981  1.00  0.00     0.103 A 
HETATM    8  C14 UNL     1      25.772  -0.020  53.474  1.00  0.00     0.102 A 
HETATM    9  C16 UNL     1      24.567   0.195  52.843  1.00  0.00     0.057 A 
HETATM   10  C17 UNL     1      24.009   1.468  52.683  1.00  0.00     0.049 A 
ENDROOT
BRANCH   1  11
HETATM   11  O2  UNL     1      22.219   0.533  51.604  1.00  0.00    -0.291 OA
BRANCH  11  12
HETATM   12  C7  UNL     1      21.113   0.001  52.222  1.00  0.00     0.078 A 
HETATM   13  C6  UNL     1      19.981   0.241  51.441  1.00  0.00     0.039 A 
HETATM   14  C5  UNL     1      18.709  -0.196  51.836  1.00  0.00     0.032 A 
HETATM   15  C4  UNL     1      18.519  -0.879  53.006  1.00  0.00     0.030 A 
HETATM   16  C19 UNL     1      19.656  -1.087  53.729  1.00  0.00     0.032 A 
HETATM   17  C18 UNL     1      20.912  -0.687  53.399  1.00  0.00     0.039 A 
BRANCH  15  18
HETATM   18  N1  UNL     1      17.220  -1.300  53.338  1.00  0.00    -0.353 N 
HETATM   19  H4  UNL     1      16.536  -0.651  53.771  1.00  0.00     0.163 HD
BRANCH  18  20
HETATM   20  C3  UNL     1      16.644  -2.566  53.161  1.00  0.00     0.175 A 
HETATM   21  C2  UNL     1      17.046  -3.911  53.517  1.00  0.00     0.038 A 
HETATM   22  C1  UNL     1      15.875  -4.158  52.916  1.00  0.00     0.234 A 
HETATM   23  O1  UNL     1      15.547  -2.715  52.590  1.00  0.00    -0.349 OA
ENDBRANCH  18  20
ENDBRANCH  15  18
ENDBRANCH  11  12
ENDBRANCH   1  11
BRANCH   8  24
HETATM   24  O4  UNL     1      26.339  -1.265  53.642  1.00  0.00    -0.353 OA
HETATM   25  C15 UNL     1      26.918  -2.064  52.659  1.00  0.00     0.210 C 
ENDBRANCH   8  24
BRANCH   7  26
HETATM   26  O3  UNL     1      27.694   0.857  54.620  1.00  0.00    -0.353 OA
HETATM   27  C13 UNL     1      28.907   1.210  53.987  1.00  0.00     0.210 C 
ENDBRANCH   7  26
TORSDOF 6
ENDMDL
MODEL 2
REMARK VINA RESULT:      -7.5      2.525      3.260
REMARK  6 active torsions:
REMARK  status: ('A' for Active; 'I' for Inactive)
REMARK    1  A    between atoms: C3_3  and  N1_5 
REMARK    2  A    between atoms: N1_5  and  C4_6 
REMARK    3  A    between atoms: C7_9  and  O2_10 
REMARK    4  A    between atoms: O2_10  and  C8_11 
REMARK    5  A    between atoms: C12_17  and  O3_18 
REMARK    6  A    between atoms: C14_20  and  O4_21 
ROOT
HETATM    1  C8  UNL     1      23.166  -0.405  53.677  1.00  0.00     0.183 A 
HETATM    2  N2  UNL     1      22.881  -1.104  54.762  1.00  0.00    -0.217 NA
HETATM    3  C9  UNL     1      23.771  -1.467  55.690  1.00  0.00     0.236 A 
HETATM    4  N3  UNL     1      25.078  -1.116  55.550  1.00  0.00    -0.241 NA
HETATM    5  C10 UNL     1      25.469  -0.393  54.460  1.00  0.00     0.075 A 
HETATM    6  C11 UNL     1      26.810  -0.087  54.413  1.00  0.00     0.072 A 
HETATM    7  C12 UNL     1      27.236   0.642  53.327  1.00  0.00     0.103 A 
HETATM    8  C14 UNL     1      26.337   1.033  52.352  1.00  0.00     0.102 A 
HETATM    9  C16 UNL     1      25.010   0.688  52.472  1.00  0.00     0.057 A 
HETATM   10  C17 UNL     1      24.510  -0.053  53.549  1.00  0.00     0.049 A 
ENDROOT
BRANCH   1  11
HETATM   11  O2  UNL     1      22.414   0.053  52.635  1.00  0.00    -0.291 OA
BRANCH  11  12
HETATM   12  C7  UNL     1      21.051  -0.125  52.603  1.00  0.00     0.078 A 
HETATM   13  C6  UNL     1      20.540   0.405  51.417  1.00  0.00     0.039 A 
HETATM   14  C5  UNL     1      19.170   0.360  51.122  1.00  0.00     0.032 A 
HETATM   15  C4  UNL     1      18.272  -0.207  51.984  1.00  0.00     0.030 A 
HETATM   16  C19 UNL     1      18.824  -0.710  53.126  1.00  0.00     0.032 A 
HETATM   17  C18 UNL     1      20.139  -0.693  53.465  1.00  0.00     0.039 A 
BRANCH  15  18
HETATM   18  N1  UNL     1      16.914  -0.232  51.624  1.00  0.00    -0.353 N 
HETATM   19  H4  UNL     1      16.570  -0.844  50.859  1.00  0.00     0.163 HD
BRANCH  18  20
HETATM   20  C3  UNL     1      15.853   0.498  52.178  1.00  0.00     0.175 A 
HETATM   21  C2  UNL     1      15.180   1.727  51.812  1.00  0.00     0.038 A 
HETATM   22  C1  UNL     1      14.497   1.395  52.915  1.00  0.00     0.234 A 
HETATM   23  O1  UNL     1      15.265   0.123  53.210  1.00  0.00    -0.349 OA
ENDBRANCH  18  20
ENDBRANCH  15  18
ENDBRANCH  11  12
ENDBRANCH   1  11
BRANCH   8  24
HETATM   24  O4  UNL     1      26.849   1.762  51.299  1.00  0.00    -0.353 OA
HETATM   25  C15 UNL     1      26.346   2.951  50.778  1.00  0.00     0.210 C 
ENDBRANCH   8  24
BRANCH   7  26
HETATM   26  O3  UNL     1      28.577   0.982  53.223  1.00  0.00    -0.353 OA
HETATM   27  C13 UNL     1      29.582   0.085  53.647  1.00  0.00     0.210 C 
ENDBRANCH   7  26
TORSDOF 6
ENDMDL
MODEL 3
REMARK VINA RESULT:      -7.5      4.900      9.799
REMARK  6 active torsions:
REMARK  status: ('A' for Active; 'I' for Inactive)
REMARK    1  A    between atoms: C3_3  and  N1_5 
REMARK    2  A    between atoms: N1_5  and  C4_6 
REMARK    3  A    between atoms: C7_9  and  O2_10 
REMARK    4  A    between atoms: O2_10  and  C8_11 
REMARK    5  A    between atoms: C12_17  and  O3_18 
REMARK    6  A    between atoms: C14_20  and  O4_21 
ROOT
HETATM    1  C8  UNL     1      25.979   2.402  51.214  1.00  0.00     0.183 A 
HETATM    2  N2  UNL     1      27.187   2.326  51.747  1.00  0.00    -0.217 NA
HETATM    3  C9  UNL     1      27.518   1.538  52.773  1.00  0.00     0.236 A 
HETATM    4  N3  UNL     1      26.577   0.739  53.345  1.00  0.00    -0.241 NA
HETATM    5  C10 UNL     1      25.300   0.750  52.864  1.00  0.00     0.075 A 
HETATM    6  C11 UNL     1      24.425  -0.094  53.510  1.00  0.00     0.072 A 
HETATM    7  C12 UNL     1      23.130  -0.109  53.047  1.00  0.00     0.103 A 
HETATM    8  C14 UNL     1      22.759   0.696  51.984  1.00  0.00     0.102 A 
HETATM    9  C16 UNL     1      23.694   1.513  51.391  1.00  0.00     0.057 A 
HETATM   10  C17 UNL     1      25.027   1.577  51.812  1.00  0.00     0.049 A 
ENDROOT
BRANCH   1  11
HETATM   11  O2  UNL     1      25.455   3.130  50.185  1.00  0.00    -0.291 OA
BRANCH  11  12
HETATM   12  C7  UNL     1      26.122   4.212  49.661  1.00  0.00     0.078 A 
HETATM   13  C6  UNL     1      25.458   5.387  50.020  1.00  0.00     0.039 A 
HETATM   14  C5  UNL     1      25.924   6.646  49.619  1.00  0.00     0.032 A 
HETATM   15  C4  UNL     1      27.051   6.781  48.855  1.00  0.00     0.030 A 
HETATM   16  C19 UNL     1      27.660   5.604  48.534  1.00  0.00     0.032 A 
HETATM   17  C18 UNL     1      27.256   4.357  48.892  1.00  0.00     0.039 A 
BRANCH  15  18
HETATM   18  N1  UNL     1      27.472   8.073  48.496  1.00  0.00    -0.353 N 
HETATM   19  H4  UNL     1      26.890   8.681  47.890  1.00  0.00     0.163 HD
BRANCH  18  20
HETATM   20  C3  UNL     1      28.654   8.735  48.858  1.00  0.00     0.175 A 
HETATM   21  C2  UNL     1      30.030   8.649  48.412  1.00  0.00     0.038 A 
HETATM   22  C1  UNL     1      30.135   9.603  49.347  1.00  0.00     0.234 A 
HETATM   23  O1  UNL     1      28.672   9.614  49.740  1.00  0.00    -0.349 OA
ENDBRANCH  18  20
ENDBRANCH  15  18
ENDBRANCH  11  12
ENDBRANCH   1  11
BRANCH   8  24
HETATM   24  O4  UNL     1      21.442   0.619  51.584  1.00  0.00    -0.353 OA
HETATM   25  C15 UNL     1      20.480   1.623  51.663  1.00  0.00     0.210 C 
ENDBRANCH   8  24
BRANCH   7  26
HETATM   26  O3  UNL     1      22.201  -0.938  53.657  1.00  0.00    -0.353 OA
HETATM   27  C13 UNL     1      21.516  -0.521  54.819  1.00  0.00     0.210 C 
ENDBRANCH   7  26
TORSDOF 6
ENDMDL
MODEL 4
REMARK VINA RESULT:      -7.5      1.988      2.629
REMARK  6 active torsions:
REMARK  status: ('A' for Active; 'I' for Inactive)
REMARK    1  A    between atoms: C3_3  and  N1_5 
REMARK    2  A    between atoms: N1_5  and  C4_6 
REMARK    3  A    between atoms: C7_9  and  O2_10 
REMARK    4  A    between atoms: O2_10  and  C8_11 
REMARK    5  A    between atoms: C12_17  and  O3_18 
REMARK    6  A    between atoms: C14_20  and  O4_21 
ROOT
HETATM    1  C8  UNL     1      24.487   2.642  52.048  1.00  0.00     0.183 A 
HETATM    2  N2  UNL     1      24.959   3.409  51.080  1.00  0.00    -0.217 NA
HETATM    3  C9  UNL     1      26.219   3.388  50.638  1.00  0.00     0.236 A 
HETATM    4  N3  UNL     1      27.118   2.532  51.195  1.00  0.00    -0.241 NA
HETATM    5  C10 UNL     1      26.724   1.701  52.203  1.00  0.00     0.075 A 
HETATM    6  C11 UNL     1      27.707   0.875  52.697  1.00  0.00     0.072 A 
HETATM    7  C12 UNL     1      27.341   0.023  53.714  1.00  0.00     0.103 A 
HETATM    8  C14 UNL     1      26.043   0.022  54.190  1.00  0.00     0.102 A 
HETATM    9  C16 UNL     1      25.116   0.880  53.642  1.00  0.00     0.057 A 
HETATM   10  C17 UNL     1      25.421   1.771  52.608  1.00  0.00     0.049 A 
ENDROOT
BRANCH   1  11
HETATM   11  O2  UNL     1      23.258   2.520  52.629  1.00  0.00    -0.291 OA
BRANCH  11  12
HETATM   12  C7  UNL     1      22.231   1.858  51.999  1.00  0.00     0.078 A 
HETATM   13  C6  UNL     1      21.045   2.055  52.708  1.00  0.00     0.039 A 
HETATM   14  C5  UNL     1      19.834   1.491  52.286  1.00  0.00     0.032 A 
HETATM   15  C4  UNL     1      19.758   0.720  51.158  1.00  0.00     0.030 A 
HETATM   16  C19 UNL     1      20.944   0.560  50.504  1.00  0.00     0.032 A 
HETATM   17  C18 UNL     1      22.146   1.080  50.864  1.00  0.00     0.039 A 
BRANCH  15  18
HETATM   18  N1  UNL     1      18.511   0.193  50.783  1.00  0.00    -0.353 N 
HETATM   19  H4  UNL     1      18.191   0.215  49.796  1.00  0.00     0.163 HD
BRANCH  18  20
HETATM   20  C3  UNL     1      17.542  -0.414  51.595  1.00  0.00     0.175 A 
HETATM   21  C2  UNL     1      17.603  -1.285  52.751  1.00  0.00     0.038 A 
HETATM   22  C1  UNL     1      16.277  -1.165  52.604  1.00  0.00     0.234 A 
HETATM   23  O1  UNL     1      16.323  -0.254  51.395  1.00  0.00    -0.349 OA
ENDBRANCH  18  20
ENDBRANCH  15  18
ENDBRANCH  11  12
ENDBRANCH   1  11
BRANCH   8  24
HETATM   24  O4  UNL     1      25.761  -0.864  55.209  1.00  0.00    -0.353 OA
HETATM   25  C15 UNL     1      24.502  -1.247  55.665  1.00  0.00     0.210 C 
ENDBRANCH   8  24
BRANCH   7  26
HETATM   26  O3  UNL     1      28.287  -0.835  54.253  1.00  0.00    -0.353 OA
HETATM   27  C13 UNL     1      29.628  -0.799  53.810  1.00  0.00     0.210 C 
ENDBRANCH   7  26
TORSDOF 6
ENDMDL
MODEL 5
REMARK VINA RESULT:      -7.4      2.907      8.131
REMARK  6 active torsions:
REMARK  status: ('A' for Active; 'I' for Inactive)
REMARK    1  A    between atoms: C3_3  and  N1_5 
REMARK    2  A    between atoms: N1_5  and  C4_6 
REMARK    3  A    between atoms: C7_9  and  O2_10 
REMARK    4  A    between atoms: O2_10  and  C8_11 
REMARK    5  A    between atoms: C12_17  and  O3_18 
REMARK    6  A    between atoms: C14_20  and  O4_21 
ROOT
HETATM    1  C8  UNL     1      23.106   2.915  50.146  1.00  0.00     0.183 A 
HETATM    2  N2  UNL     1      23.314   2.995  48.843  1.00  0.00    -0.217 NA
HETATM    3  C9  UNL     1      22.574   2.384  47.914  1.00  0.00     0.236 A 
HETATM    4  N3  UNL     1      21.519   1.610  48.290  1.00  0.00    -0.241 NA
HETATM    5  C10 UNL     1      21.226   1.466  49.616  1.00  0.00     0.075 A 
HETATM    6  C11 UNL     1      20.141   0.665  49.890  1.00  0.00     0.072 A 
HETATM    7  C12 UNL     1      19.818   0.501  51.217  1.00  0.00     0.103 A 
HETATM    8  C14 UNL     1      20.566   1.123  52.200  1.00  0.00     0.102 A 
HETATM    9  C16 UNL     1      21.639   1.910  51.844  1.00  0.00     0.057 A 
HETATM   10  C17 UNL     1      22.021   2.118  50.514  1.00  0.00     0.049 A 
ENDROOT
BRANCH   1  11
HETATM   11  O2  UNL     1      23.738   3.453  51.229  1.00  0.00    -0.291 OA
BRANCH  11  12
HETATM   12  C7  UNL     1      24.878   2.886  51.747  1.00  0.00     0.078 A 
HETATM   13  C6  UNL     1      24.753   2.773  53.134  1.00  0.00     0.039 A 
HETATM   14  C5  UNL     1      25.775   2.224  53.921  1.00  0.00     0.032 A 
HETATM   15  C4  UNL     1      26.942   1.775  53.367  1.00  0.00     0.030 A 
HETATM   16  C19 UNL     1      27.011   1.908  52.011  1.00  0.00     0.032 A 
HETATM   17  C18 UNL     1      26.057   2.431  51.198  1.00  0.00     0.039 A 
BRANCH  15  18
HETATM   18  N1  UNL     1      27.922   1.225  54.210  1.00  0.00    -0.353 N 
HETATM   19  H4  UNL     1      28.132   1.642  55.137  1.00  0.00     0.163 HD
BRANCH  18  20
HETATM   20  C3  UNL     1      28.732   0.102  53.987  1.00  0.00     0.175 A 
HETATM   21  C2  UNL     1      30.092  -0.079  53.522  1.00  0.00     0.038 A 
HETATM   22  C1  UNL     1      29.730  -1.353  53.717  1.00  0.00     0.234 A 
HETATM   23  O1  UNL     1      28.322  -1.056  54.193  1.00  0.00    -0.349 OA
ENDBRANCH  18  20
ENDBRANCH  15  18
ENDBRANCH  11  12
ENDBRANCH   1  11
BRANCH   8  24
HETATM   24  O4  UNL     1      20.174   0.905  53.504  1.00  0.00    -0.353 OA
HETATM   25  C15 UNL     1      20.887   0.235  54.495  1.00  0.00     0.210 C 
ENDBRANCH   8  24
BRANCH   7  26
HETATM   26  O3  UNL     1      18.735  -0.294  51.558  1.00  0.00    -0.353 OA
HETATM   27  C13 UNL     1      17.447  -0.013  51.051  1.00  0.00     0.210 C 
ENDBRANCH   7  26
TORSDOF 6
ENDMDL
MODEL 6
REMARK VINA RESULT:      -7.3      3.258      4.153
REMARK  6 active torsions:
REMARK  status: ('A' for Active; 'I' for Inactive)
REMARK    1  A    between atoms: C3_3  and  N1_5 
REMARK    2  A    between atoms: N1_5  and  C4_6 
REMARK    3  A    between atoms: C7_9  and  O2_10 
REMARK    4  A    between atoms: O2_10  and  C8_11 
REMARK    5  A    between atoms: C12_17  and  O3_18 
REMARK    6  A    between atoms: C14_20  and  O4_21 
ROOT
HETATM    1  C8  UNL     1      22.472  -0.122  52.909  1.00  0.00     0.183 A 
HETATM    2  N2  UNL     1      21.782  -0.903  53.723  1.00  0.00    -0.217 NA
HETATM    3  C9  UNL     1      22.279  -1.497  54.812  1.00  0.00     0.236 A 
HETATM    4  N3  UNL     1      23.585  -1.314  55.146  1.00  0.00    -0.241 NA
HETATM    5  C10 UNL     1      24.378  -0.524  54.365  1.00  0.00     0.075 A 
HETATM    6  C11 UNL     1      25.681  -0.404  54.789  1.00  0.00     0.072 A 
HETATM    7  C12 UNL     1      26.507   0.388  54.024  1.00  0.00     0.103 A 
HETATM    8  C14 UNL     1      26.019   1.016  52.893  1.00  0.00     0.102 A 
HETATM    9  C16 UNL     1      24.701   0.845  52.534  1.00  0.00     0.057 A 
HETATM   10  C17 UNL     1      23.809   0.054  53.267  1.00  0.00     0.049 A 
ENDROOT
BRANCH   1  11
HETATM   11  O2  UNL     1      22.150   0.560  51.772  1.00  0.00    -0.291 OA
BRANCH  11  12
HETATM   12  C7  UNL     1      20.911   1.131  51.606  1.00  0.00     0.078 A 
HETATM   13  C6  UNL     1      20.984   2.495  51.897  1.00  0.00     0.039 A 
HETATM   14  C5  UNL     1      19.860   3.327  51.809  1.00  0.00     0.032 A 
HETATM   15  C4  UNL     1      18.638   2.840  51.434  1.00  0.00     0.030 A 
HETATM   16  C19 UNL     1      18.622   1.503  51.161  1.00  0.00     0.032 A 
HETATM   17  C18 UNL     1      19.677   0.649  51.229  1.00  0.00     0.039 A 
BRANCH  15  18
HETATM   18  N1  UNL     1      17.553   3.728  51.353  1.00  0.00    -0.353 N 
HETATM   19  H4  UNL     1      17.569   4.543  50.710  1.00  0.00     0.163 HD
BRANCH  18  20
HETATM   20  C3  UNL     1      16.342   3.692  52.061  1.00  0.00     0.175 A 
HETATM   21  C2  UNL     1      15.184   2.824  52.024  1.00  0.00     0.038 A 
HETATM   22  C1  UNL     1      14.816   3.680  52.985  1.00  0.00     0.234 A 
HETATM   23  O1  UNL     1      16.072   4.526  52.945  1.00  0.00    -0.349 OA
ENDBRANCH  18  20
ENDBRANCH  15  18
ENDBRANCH  11  12
ENDBRANCH   1  11
BRANCH   8  24
HETATM   24  O4  UNL     1      26.913   1.790  52.184  1.00  0.00    -0.353 OA
HETATM   25  C15 UNL     1      26.634   2.614  51.097  1.00  0.00     0.210 C 
ENDBRANCH   8  24
BRANCH   7  26
HETATM   26  O3  UNL     1      27.831   0.549  54.401  1.00  0.00    -0.353 OA
HETATM   27  C13 UNL     1      28.807  -0.402  54.029  1.00  0.00     0.210 C 
ENDBRANCH   7  26
TORSDOF 6
ENDMDL
MODEL 7
REMARK VINA RESULT:      -7.2      4.845      9.478
REMARK  6 active torsions:
REMARK  status: ('A' for Active; 'I' for Inactive)
REMARK    1  A    between atoms: C3_3  and  N1_5 
REMARK    2  A    between atoms: N1_5  and  C4_6 
REMARK    3  A    between atoms: C7_9  and  O2_10 
REMARK    4  A    between atoms: O2_10  and  C8_11 
REMARK    5  A    between atoms: C12_17  and  O3_18 
REMARK    6  A    between atoms: C14_20  and  O4_21 
ROOT
HETATM    1  C8  UNL     1      24.648   2.676  50.625  1.00  0.00     0.183 A 
HETATM    2  N2  UNL     1      23.395   3.068  50.468  1.00  0.00    -0.217 NA
HETATM    3  C9  UNL     1      22.366   2.641  51.204  1.00  0.00     0.236 A 
HETATM    4  N3  UNL     1      22.574   1.735  52.198  1.00  0.00    -0.241 NA
HETATM    5  C10 UNL     1      23.835   1.270  52.435  1.00  0.00     0.075 A 
HETATM    6  C11 UNL     1      23.939   0.359  53.461  1.00  0.00     0.072 A 
HETATM    7  C12 UNL     1      25.198  -0.127  53.727  1.00  0.00     0.103 A 
HETATM    8  C14 UNL     1      26.282   0.299  52.982  1.00  0.00     0.102 A 
HETATM    9  C16 UNL     1      26.096   1.214  51.971  1.00  0.00     0.057 A 
HETATM   10  C17 UNL     1      24.844   1.748  51.648  1.00  0.00     0.049 A 
ENDROOT
BRANCH   1  11
HETATM   11  O2  UNL     1      25.813   2.990  49.988  1.00  0.00    -0.291 OA
BRANCH  11  12
HETATM   12  C7  UNL     1      26.108   4.284  49.630  1.00  0.00     0.078 A 
HETATM   13  C6  UNL     1      27.319   4.312  48.935  1.00  0.00     0.039 A 
HETATM   14  C5  UNL     1      27.860   5.510  48.450  1.00  0.00     0.032 A 
HETATM   15  C4  UNL     1      27.227   6.709  48.636  1.00  0.00     0.030 A 
HETATM   16  C19 UNL     1      26.049   6.624  49.320  1.00  0.00     0.032 A 
HETATM   17  C18 UNL     1      25.477   5.496  49.814  1.00  0.00     0.039 A 
BRANCH  15  18
HETATM   18  N1  UNL     1      27.817   7.871  48.114  1.00  0.00    -0.353 N 
HETATM   19  H4  UNL     1      27.514   8.269  47.205  1.00  0.00     0.163 HD
BRANCH  18  20
HETATM   20  C3  UNL     1      28.838   8.655  48.672  1.00  0.00     0.175 A 
HETATM   21  C2  UNL     1      28.865   9.936  49.348  1.00  0.00     0.038 A 
HETATM   22  C1  UNL     1      30.167   9.621  49.370  1.00  0.00     0.234 A 
HETATM   23  O1  UNL     1      30.029   8.293  48.653  1.00  0.00    -0.349 OA
ENDBRANCH  18  20
ENDBRANCH  15  18
ENDBRANCH  11  12
ENDBRANCH   1  11
BRANCH   8  24
HETATM   24  O4  UNL     1      27.508  -0.239  53.315  1.00  0.00    -0.353 OA
HETATM   25  C15 UNL     1      28.695   0.453  53.542  1.00  0.00     0.210 C 
ENDBRANCH   8  24
BRANCH   7  26
HETATM   26  O3  UNL     1      25.367  -1.048  54.750  1.00  0.00    -0.353 OA
HETATM   27  C13 UNL     1      24.294  -1.376  55.609  1.00  0.00     0.210 C 
ENDBRANCH   7  26
TORSDOF 6
ENDMDL
MODEL 8
REMARK VINA RESULT:      -7.0      5.086      9.363
REMARK  6 active torsions:
REMARK  status: ('A' for Active; 'I' for Inactive)
REMARK    1  A    between atoms: C3_3  and  N1_5 
REMARK    2  A    between atoms: N1_5  and  C4_6 
REMARK    3  A    between atoms: C7_9  and  O2_10 
REMARK    4  A    between atoms: O2_10  and  C8_11 
REMARK    5  A    between atoms: C12_17  and  O3_18 
REMARK    6  A    between atoms: C14_20  and  O4_21 
ROOT
HETATM    1  C8  UNL     1      24.618   2.820  50.493  1.00  0.00     0.183 A 
HETATM    2  N2  UNL     1      23.356   3.211  50.430  1.00  0.00    -0.217 NA
HETATM    3  C9  UNL     1      22.385   2.786  51.243  1.00  0.00     0.236 A 
HETATM    4  N3  UNL     1      22.668   1.885  52.223  1.00  0.00    -0.241 NA
HETATM    5  C10 UNL     1      23.944   1.422  52.366  1.00  0.00     0.075 A 
HETATM    6  C11 UNL     1      24.126   0.515  53.385  1.00  0.00     0.072 A 
HETATM    7  C12 UNL     1      25.402   0.030  53.557  1.00  0.00     0.103 A 
HETATM    8  C14 UNL     1      26.427   0.453  52.730  1.00  0.00     0.102 A 
HETATM    9  C16 UNL     1      26.164   1.364  51.731  1.00  0.00     0.057 A 
HETATM   10  C17 UNL     1      24.890   1.896  51.502  1.00  0.00     0.049 A 
ENDROOT
BRANCH   1  11
HETATM   11  O2  UNL     1      25.731   3.132  49.768  1.00  0.00    -0.291 OA
BRANCH  11  12
HETATM   12  C7  UNL     1      26.078   4.437  49.515  1.00  0.00     0.078 A 
HETATM   13  C6  UNL     1      27.302   4.472  48.844  1.00  0.00     0.039 A 
HETATM   14  C5  UNL     1      27.896   5.682  48.460  1.00  0.00     0.032 A 
HETATM   15  C4  UNL     1      27.303   6.886  48.726  1.00  0.00     0.030 A 
HETATM   16  C19 UNL     1      26.110   6.794  49.382  1.00  0.00     0.032 A 
HETATM   17  C18 UNL     1      25.488   5.654  49.779  1.00  0.00     0.039 A 
BRANCH  15  18
HETATM   18  N1  UNL     1      27.944   8.062  48.304  1.00  0.00    -0.353 N 
HETATM   19  H4  UNL     1      28.764   8.443  48.814  1.00  0.00     0.163 HD
BRANCH  18  20
HETATM   20  C3  UNL     1      27.632   8.878  47.206  1.00  0.00     0.175 A 
HETATM   21  C2  UNL     1      26.907   8.665  45.971  1.00  0.00     0.038 A 
HETATM   22  C1  UNL     1      27.256   9.950  45.831  1.00  0.00     0.234 A 
HETATM   23  O1  UNL     1      27.993  10.068  47.149  1.00  0.00    -0.349 OA
ENDBRANCH  18  20
ENDBRANCH  15  18
ENDBRANCH  11  12
ENDBRANCH   1  11
BRANCH   8  24
HETATM   24  O4  UNL     1      27.674  -0.082  52.972  1.00  0.00    -0.353 OA
HETATM   25  C15 UNL     1      28.744   0.537  53.613  1.00  0.00     0.210 C 
ENDBRANCH   8  24
BRANCH   7  26
HETATM   26  O3  UNL     1      25.648  -0.886  54.568  1.00  0.00    -0.353 OA
HETATM   27  C13 UNL     1      24.651  -1.195  55.519  1.00  0.00     0.210 C 
ENDBRANCH   7  26
TORSDOF 6
ENDMDL
MODEL 9
REMARK VINA RESULT:      -7.0      4.923      9.554
REMARK  6 active torsions:
REMARK  status: ('A' for Active; 'I' for Inactive)
REMARK    1  A    between atoms: C3_3  and  N1_5 
REMARK    2  A    between atoms: N1_5  and  C4_6 
REMARK    3  A    between atoms: C7_9  and  O2_10 
REMARK    4  A    between atoms: O2_10  and  C8_11 
REMARK    5  A    between atoms: C12_17  and  O3_18 
REMARK    6  A    between atoms: C14_20  and  O4_21 
ROOT
HETATM    1  C8  UNL     1      24.023   3.212  50.922  1.00  0.00     0.183 A 
HETATM    2  N2  UNL     1      22.962   3.880  50.503  1.00  0.00    -0.217 NA
HETATM    3  C9  UNL     1      21.698   3.566  50.800  1.00  0.00     0.236 A 
HETATM    4  N3  UNL     1      21.436   2.488  51.588  1.00  0.00    -0.241 NA
HETATM    5  C10 UNL     1      22.468   1.735  52.069  1.00  0.00     0.075 A 
HETATM    6  C11 UNL     1      22.097   0.669  52.855  1.00  0.00     0.072 A 
HETATM    7  C12 UNL     1      23.114  -0.109  53.357  1.00  0.00     0.103 A 
HETATM    8  C14 UNL     1      24.432   0.194  53.067  1.00  0.00     0.102 A 
HETATM    9  C16 UNL     1      24.722   1.279  52.271  1.00  0.00     0.057 A 
HETATM   10  C17 UNL     1      23.736   2.110  51.728  1.00  0.00     0.049 A 
ENDROOT
BRANCH   1  11
HETATM   11  O2  UNL     1      25.365   3.372  50.730  1.00  0.00    -0.291 OA
BRANCH  11  12
HETATM   12  C7  UNL     1      25.867   4.458  50.053  1.00  0.00     0.078 A 
HETATM   13  C6  UNL     1      26.983   4.068  49.310  1.00  0.00     0.039 A 
HETATM   14  C5  UNL     1      27.695   4.981  48.520  1.00  0.00     0.032 A 
HETATM   15  C4  UNL     1      27.328   6.297  48.440  1.00  0.00     0.030 A 
HETATM   16  C19 UNL     1      26.232   6.622  49.184  1.00  0.00     0.032 A 
HETATM   17  C18 UNL     1      25.504   5.784  49.967  1.00  0.00     0.039 A 
BRANCH  15  18
HETATM   18  N1  UNL     1      28.076   7.157  47.620  1.00  0.00    -0.353 N 
HETATM   19  H4  UNL     1      28.058   7.069  46.586  1.00  0.00     0.163 HD
BRANCH  18  20
HETATM   20  C3  UNL     1      28.917   8.212  48.004  1.00  0.00     0.175 A 
HETATM   21  C2  UNL     1      30.009   8.334  48.947  1.00  0.00     0.038 A 
HETATM   22  C1  UNL     1      29.967   9.581  48.461  1.00  0.00     0.234 A 
HETATM   23  O1  UNL     1      28.816   9.349  47.504  1.00  0.00    -0.349 OA
ENDBRANCH  18  20
ENDBRANCH  15  18
ENDBRANCH  11  12
ENDBRANCH   1  11
BRANCH   8  24
HETATM   24  O4  UNL     1      25.389  -0.637  53.611  1.00  0.00    -0.353 OA
HETATM   25  C15 UNL     1      26.452  -1.243  52.945  1.00  0.00     0.210 C 
ENDBRANCH   8  24
BRANCH   7  26
HETATM   26  O3  UNL     1      22.804  -1.198  54.157  1.00  0.00    -0.353 OA
HETATM   27  C13 UNL     1      21.459  -1.522  54.443  1.00  0.00     0.210 C 
ENDBRANCH   7  26
TORSDOF 6
ENDMDL
