MODEL 1
REMARK VINA RESULT:      -9.5      0.000      0.000
REMARK  6 active torsions:
REMARK  status: ('A' for Active; 'I' for Inactive)
REMARK       I    between atoms: C1_2  and  N1_3 
REMARK    1  A    between atoms: C1_2  and  C17_24 
REMARK    2  A    between atoms: N1_3  and  C2_4 
REMARK    3  A    between atoms: C5_8  and  C6_9 
REMARK    4  A    between atoms: C6_9  and  N3_10 
REMARK    5  A    between atoms: N3_10  and  C7_11 
REMARK    6  A    between atoms: N5_20  and  C15_21 
ROOT
HETATM    1  C2  UNL     1      28.914   6.050  47.947  1.00  0.00     0.031 A 
HETATM    2  C3  UNL     1      28.599   7.304  47.694  1.00  0.00     0.113 A 
HETATM    3  N2  UNL     1      27.307   7.849  48.065  1.00  0.00    -0.373 N 
HETATM    4  C4  UNL     1      26.371   7.018  48.710  1.00  0.00     0.092 A 
HETATM    5  C5  UNL     1      26.722   5.780  48.932  1.00  0.00    -0.041 A 
HETATM    6  C16 UNL     1      27.989   5.108  48.599  1.00  0.00     0.096 A 
HETATM    7  H3  UNL     1      27.116   8.845  47.846  1.00  0.00     0.164 HD
ENDROOT
BRANCH   5   8
HETATM    8  C6  UNL     1      25.796   4.857  49.600  1.00  0.00     0.174 C 
BRANCH   8   9
HETATM    9  N3  UNL     1      26.462   3.916  50.469  1.00  0.00    -0.221 N 
HETATM   10  H7  UNL     1      27.513   3.957  50.512  1.00  0.00     0.178 HD
BRANCH   9  11
HETATM   11  C7  UNL     1      25.892   2.928  51.352  1.00  0.00     0.698 C 
HETATM   12  N4  UNL     1      26.789   1.920  51.136  1.00  0.00    -0.078 NA
HETATM   13  C8  UNL     1      26.622   0.649  51.851  1.00  0.00     0.132 C 
HETATM   14  C9  UNL     1      26.518  -0.554  52.447  1.00  0.00    -0.006 C 
HETATM   15  C10 UNL     1      25.659  -0.546  53.737  1.00  0.00     0.040 C 
HETATM   16  C11 UNL     1      24.218  -0.267  53.565  1.00  0.00    -0.008 A 
HETATM   17  C12 UNL     1      24.666   1.014  53.149  1.00  0.00     0.021 A 
HETATM   18  C15 UNL     1      23.200   0.690  53.052  1.00  0.00     0.076 A 
HETATM   19  C13 UNL     1      23.875   2.001  52.640  1.00  0.00     0.138 A 
HETATM   20  C14 UNL     1      23.218   3.018  52.139  1.00  0.00     0.162 A 
HETATM   21  N5  UNL     1      22.621   1.821  52.531  1.00  0.00    -0.270 N 
HETATM   22  N6  UNL     1      24.646   3.463  52.070  1.00  0.00    -0.197 N 
HETATM   23  H15 UNL     1      24.993   4.290  52.594  1.00  0.00     0.180 HD
ENDBRANCH   9  11
ENDBRANCH   8   9
ENDBRANCH   5   8
BRANCH   1  24
HETATM   24  N1  UNL     1      30.169   5.519  47.592  1.00  0.00    -0.325 N 
HETATM   25  C1  UNL     1      31.323   5.232  48.319  1.00  0.00     0.256 C 
HETATM   26  O1  UNL     1      31.273   5.509  49.583  1.00  0.00    -0.267 OA
HETATM   27  H1  UNL     1      30.406   5.234  46.597  1.00  0.00     0.169 HD
BRANCH  25  28
HETATM   28  C17 UNL     1      32.612   4.681  47.975  1.00  0.00     0.035 A 
HETATM   29  C18 UNL     1      32.590   3.517  47.217  1.00  0.00     0.036 A 
HETATM   30  C19 UNL     1      33.836   3.020  46.923  1.00  0.00     0.117 A 
HETATM   31  N7  UNL     1      35.025   3.552  47.292  1.00  0.00    -0.273 NA
HETATM   32  C20 UNL     1      35.018   4.688  48.031  1.00  0.00     0.117 A 
HETATM   33  C21 UNL     1      33.810   5.220  48.351  1.00  0.00     0.036 A 
ENDBRANCH  25  28
ENDBRANCH   1  24
TORSDOF 6
ENDMDL
MODEL 2
REMARK VINA RESULT:      -9.3      0.901      2.005
REMARK  6 active torsions:
REMARK  status: ('A' for Active; 'I' for Inactive)
REMARK       I    between atoms: C1_2  and  N1_3 
REMARK    1  A    between atoms: C1_2  and  C17_24 
REMARK    2  A    between atoms: N1_3  and  C2_4 
REMARK    3  A    between atoms: C5_8  and  C6_9 
REMARK    4  A    between atoms: C6_9  and  N3_10 
REMARK    5  A    between atoms: N3_10  and  C7_11 
REMARK    6  A    between atoms: N5_20  and  C15_21 
ROOT
HETATM    1  C2  UNL     1      28.839   5.937  48.173  1.00  0.00     0.031 A 
HETATM    2  C3  UNL     1      28.585   7.229  48.193  1.00  0.00     0.113 A 
HETATM    3  N2  UNL     1      27.303   7.742  48.641  1.00  0.00    -0.373 N 
HETATM    4  C4  UNL     1      26.312   6.836  49.062  1.00  0.00     0.092 A 
HETATM    5  C5  UNL     1      26.603   5.564  49.017  1.00  0.00    -0.041 A 
HETATM    6  C16 UNL     1      27.852   4.921  48.578  1.00  0.00     0.096 A 
HETATM    7  H3  UNL     1      27.161   8.770  48.640  1.00  0.00     0.164 HD
ENDROOT
BRANCH   5   8
HETATM    8  C6  UNL     1      25.616   4.563  49.441  1.00  0.00     0.174 C 
BRANCH   8   9
HETATM    9  N3  UNL     1      25.622   4.330  50.866  1.00  0.00    -0.221 N 
HETATM   10  H7  UNL     1      25.640   5.175  51.495  1.00  0.00     0.178 HD
BRANCH   9  11
HETATM   11  C7  UNL     1      25.560   3.083  51.587  1.00  0.00     0.698 C 
HETATM   12  N4  UNL     1      24.204   3.005  51.744  1.00  0.00    -0.078 NA
HETATM   13  C8  UNL     1      23.630   1.853  52.447  1.00  0.00     0.132 C 
HETATM   14  C9  UNL     1      23.033   0.841  53.105  1.00  0.00    -0.006 C 
HETATM   15  C10 UNL     1      23.898  -0.440  53.212  1.00  0.00     0.040 C 
HETATM   16  C11 UNL     1      25.121  -0.342  54.035  1.00  0.00    -0.008 A 
HETATM   17  C12 UNL     1      25.544   0.572  53.035  1.00  0.00     0.021 A 
HETATM   18  C15 UNL     1      26.409   0.374  54.249  1.00  0.00     0.076 A 
HETATM   19  C13 UNL     1      26.682   1.321  53.078  1.00  0.00     0.138 A 
HETATM   20  C14 UNL     1      27.742   2.089  53.010  1.00  0.00     0.162 A 
HETATM   21  N5  UNL     1      27.481   1.211  54.062  1.00  0.00    -0.270 N 
HETATM   22  N6  UNL     1      26.955   2.481  51.799  1.00  0.00    -0.197 N 
HETATM   23  H15 UNL     1      27.321   2.349  50.835  1.00  0.00     0.180 HD
ENDBRANCH   9  11
ENDBRANCH   8   9
ENDBRANCH   5   8
BRANCH   1  24
HETATM   24  N1  UNL     1      30.083   5.436  47.743  1.00  0.00    -0.325 N 
HETATM   25  C1  UNL     1      31.278   5.160  48.403  1.00  0.00     0.256 C 
HETATM   26  O1  UNL     1      31.290   5.414  49.673  1.00  0.00    -0.267 OA
HETATM   27  H1  UNL     1      30.272   5.173  46.732  1.00  0.00     0.169 HD
BRANCH  25  28
HETATM   28  C17 UNL     1      32.558   4.640  47.982  1.00  0.00     0.035 A 
HETATM   29  C18 UNL     1      32.529   3.408  47.341  1.00  0.00     0.036 A 
HETATM   30  C19 UNL     1      33.767   2.945  46.969  1.00  0.00     0.117 A 
HETATM   31  N7  UNL     1      34.954   3.565  47.166  1.00  0.00    -0.273 NA
HETATM   32  C20 UNL     1      34.953   4.767  47.793  1.00  0.00     0.117 A 
HETATM   33  C21 UNL     1      33.754   5.269  48.184  1.00  0.00     0.036 A 
ENDBRANCH  25  28
ENDBRANCH   1  24
TORSDOF 6
ENDMDL
MODEL 3
REMARK VINA RESULT:      -9.0      2.454      4.478
REMARK  6 active torsions:
REMARK  status: ('A' for Active; 'I' for Inactive)
REMARK       I    between atoms: C1_2  and  N1_3 
REMARK    1  A    between atoms: C1_2  and  C17_24 
REMARK    2  A    between atoms: N1_3  and  C2_4 
REMARK    3  A    between atoms: C5_8  and  C6_9 
REMARK    4  A    between atoms: C6_9  and  N3_10 
REMARK    5  A    between atoms: N3_10  and  C7_11 
REMARK    6  A    between atoms: N5_20  and  C15_21 
ROOT
HETATM    1  C2  UNL     1      24.852   5.184  49.377  1.00  0.00     0.031 A 
HETATM    2  C3  UNL     1      23.768   5.091  48.635  1.00  0.00     0.113 A 
HETATM    3  N2  UNL     1      22.581   4.405  49.111  1.00  0.00    -0.373 N 
HETATM    4  C4  UNL     1      22.592   3.828  50.395  1.00  0.00     0.092 A 
HETATM    5  C5  UNL     1      23.690   3.936  51.092  1.00  0.00    -0.041 A 
HETATM    6  C16 UNL     1      24.955   4.592  50.721  1.00  0.00     0.096 A 
HETATM    7  H3  UNL     1      21.754   4.368  48.485  1.00  0.00     0.164 HD
ENDROOT
BRANCH   5   8
HETATM    8  C6  UNL     1      23.772   3.357  52.439  1.00  0.00     0.174 C 
BRANCH   8   9
HETATM    9  N3  UNL     1      25.124   3.271  52.938  1.00  0.00    -0.221 N 
HETATM   10  H7  UNL     1      25.526   4.129  53.398  1.00  0.00     0.178 HD
BRANCH   9  11
HETATM   11  C7  UNL     1      26.023   2.143  52.947  1.00  0.00     0.698 C 
HETATM   12  N4  UNL     1      25.096   1.143  53.035  1.00  0.00    -0.078 NA
HETATM   13  C8  UNL     1      25.549  -0.252  53.072  1.00  0.00     0.132 C 
HETATM   14  C9  UNL     1      25.890  -1.553  53.139  1.00  0.00    -0.006 C 
HETATM   15  C10 UNL     1      27.312  -1.861  52.604  1.00  0.00     0.040 C 
HETATM   16  C11 UNL     1      28.441  -1.304  53.377  1.00  0.00    -0.008 A 
HETATM   17  C12 UNL     1      27.915  -0.052  52.963  1.00  0.00     0.021 A 
HETATM   18  C15 UNL     1      29.070  -0.072  53.927  1.00  0.00     0.076 A 
HETATM   19  C13 UNL     1      28.357   1.168  53.379  1.00  0.00     0.138 A 
HETATM   20  C14 UNL     1      28.694   2.391  53.708  1.00  0.00     0.162 A 
HETATM   21  N5  UNL     1      29.337   1.250  54.186  1.00  0.00    -0.270 N 
HETATM   22  N6  UNL     1      27.488   2.587  52.844  1.00  0.00    -0.197 N 
HETATM   23  H15 UNL     1      27.531   3.105  51.944  1.00  0.00     0.180 HD
ENDBRANCH   9  11
ENDBRANCH   8   9
ENDBRANCH   5   8
BRANCH   1  24
HETATM   24  N1  UNL     1      26.004   5.852  48.919  1.00  0.00    -0.325 N 
HETATM   25  C1  UNL     1      27.292   5.425  48.605  1.00  0.00     0.256 C 
HETATM   26  O1  UNL     1      27.520   4.160  48.767  1.00  0.00    -0.267 OA
HETATM   27  H1  UNL     1      26.019   6.897  48.731  1.00  0.00     0.169 HD
BRANCH  25  28
HETATM   28  C17 UNL     1      28.480   6.092  48.127  1.00  0.00     0.035 A 
HETATM   29  C18 UNL     1      28.270   7.268  47.418  1.00  0.00     0.036 A 
HETATM   30  C19 UNL     1      29.424   7.863  46.972  1.00  0.00     0.117 A 
HETATM   31  N7  UNL     1      30.689   7.417  47.162  1.00  0.00    -0.273 NA
HETATM   32  C20 UNL     1      30.865   6.268  47.859  1.00  0.00     0.117 A 
HETATM   33  C21 UNL     1      29.754   5.639  48.321  1.00  0.00     0.036 A 
ENDBRANCH  25  28
ENDBRANCH   1  24
TORSDOF 6
ENDMDL
MODEL 4
REMARK VINA RESULT:      -9.0      2.440      8.400
REMARK  6 active torsions:
REMARK  status: ('A' for Active; 'I' for Inactive)
REMARK       I    between atoms: C1_2  and  N1_3 
REMARK    1  A    between atoms: C1_2  and  C17_24 
REMARK    2  A    between atoms: N1_3  and  C2_4 
REMARK    3  A    between atoms: C5_8  and  C6_9 
REMARK    4  A    between atoms: C6_9  and  N3_10 
REMARK    5  A    between atoms: N3_10  and  C7_11 
REMARK    6  A    between atoms: N5_20  and  C15_21 
ROOT
HETATM    1  C2  UNL     1      25.746   3.052  50.999  1.00  0.00     0.031 A 
HETATM    2  C3  UNL     1      24.740   3.601  51.647  1.00  0.00     0.113 A 
HETATM    3  N2  UNL     1      24.261   4.931  51.316  1.00  0.00    -0.373 N 
HETATM    4  C4  UNL     1      24.888   5.646  50.278  1.00  0.00     0.092 A 
HETATM    5  C5  UNL     1      25.887   5.067  49.669  1.00  0.00    -0.041 A 
HETATM    6  C16 UNL     1      26.470   3.738  49.915  1.00  0.00     0.096 A 
HETATM    7  H3  UNL     1      23.461   5.310  51.857  1.00  0.00     0.164 HD
ENDROOT
BRANCH   5   8
HETATM    8  C6  UNL     1      26.587   5.756  48.578  1.00  0.00     0.174 C 
BRANCH   8   9
HETATM    9  N3  UNL     1      27.712   6.540  49.032  1.00  0.00    -0.221 N 
HETATM   10  H7  UNL     1      27.605   7.055  49.944  1.00  0.00     0.178 HD
BRANCH   9  11
HETATM   11  C7  UNL     1      29.016   6.695  48.437  1.00  0.00     0.698 C 
HETATM   12  N4  UNL     1      29.344   5.373  48.316  1.00  0.00    -0.078 NA
HETATM   13  C8  UNL     1      30.639   5.008  47.730  1.00  0.00     0.132 C 
HETATM   14  C9  UNL     1      31.820   4.597  47.230  1.00  0.00    -0.006 C 
HETATM   15  C10 UNL     1      32.536   5.654  46.353  1.00  0.00     0.040 C 
HETATM   16  C11 UNL     1      33.009   6.872  47.044  1.00  0.00    -0.008 A 
HETATM   17  C12 UNL     1      31.626   7.116  47.248  1.00  0.00     0.021 A 
HETATM   18  C15 UNL     1      32.628   8.037  47.888  1.00  0.00     0.076 A 
HETATM   19  C13 UNL     1      31.103   8.124  48.003  1.00  0.00     0.138 A 
HETATM   20  C14 UNL     1      30.489   9.048  48.700  1.00  0.00     0.162 A 
HETATM   21  N5  UNL     1      31.874   8.959  48.572  1.00  0.00    -0.270 N 
HETATM   22  N6  UNL     1      29.370   8.173  48.227  1.00  0.00    -0.197 N 
HETATM   23  H15 UNL     1      28.619   8.525  47.602  1.00  0.00     0.180 HD
ENDBRANCH   9  11
ENDBRANCH   8   9
ENDBRANCH   5   8
BRANCH   1  24
HETATM   24  N1  UNL     1      26.210   1.760  51.315  1.00  0.00    -0.325 N 
HETATM   25  C1  UNL     1      27.075   1.271  52.292  1.00  0.00     0.256 C 
HETATM   26  O1  UNL     1      27.587   2.159  53.084  1.00  0.00    -0.267 OA
HETATM   27  H1  UNL     1      25.907   0.898  50.774  1.00  0.00     0.169 HD
BRANCH  25  28
HETATM   28  C17 UNL     1      27.554  -0.047  52.636  1.00  0.00     0.035 A 
HETATM   29  C18 UNL     1      28.808  -0.097  53.231  1.00  0.00     0.036 A 
HETATM   30  C19 UNL     1      29.231  -1.369  53.531  1.00  0.00     0.117 A 
HETATM   31  N7  UNL     1      28.553  -2.520  53.306  1.00  0.00    -0.273 NA
HETATM   32  C20 UNL     1      27.331  -2.441  52.725  1.00  0.00     0.117 A 
HETATM   33  C21 UNL     1      26.867  -1.205  52.406  1.00  0.00     0.036 A 
ENDBRANCH  25  28
ENDBRANCH   1  24
TORSDOF 6
ENDMDL
MODEL 5
REMARK VINA RESULT:      -9.0      3.330      9.096
REMARK  6 active torsions:
REMARK  status: ('A' for Active; 'I' for Inactive)
REMARK       I    between atoms: C1_2  and  N1_3 
REMARK    1  A    between atoms: C1_2  and  C17_24 
REMARK    2  A    between atoms: N1_3  and  C2_4 
REMARK    3  A    between atoms: C5_8  and  C6_9 
REMARK    4  A    between atoms: C6_9  and  N3_10 
REMARK    5  A    between atoms: N3_10  and  C7_11 
REMARK    6  A    between atoms: N5_20  and  C15_21 
ROOT
HETATM    1  C2  UNL     1      25.991   3.483  50.011  1.00  0.00     0.031 A 
HETATM    2  C3  UNL     1      24.685   3.645  49.974  1.00  0.00     0.113 A 
HETATM    3  N2  UNL     1      24.086   4.832  49.391  1.00  0.00    -0.373 N 
HETATM    4  C4  UNL     1      24.922   5.828  48.852  1.00  0.00     0.092 A 
HETATM    5  C5  UNL     1      26.211   5.629  48.919  1.00  0.00    -0.041 A 
HETATM    6  C16 UNL     1      26.937   4.483  49.489  1.00  0.00     0.096 A 
HETATM    7  H3  UNL     1      23.051   4.903  49.384  1.00  0.00     0.164 HD
ENDROOT
BRANCH   5   8
HETATM    8  C6  UNL     1      27.142   6.627  48.377  1.00  0.00     0.174 C 
BRANCH   8   9
HETATM    9  N3  UNL     1      27.535   7.620  49.349  1.00  0.00    -0.221 N 
HETATM   10  H7  UNL     1      27.093   7.565  50.303  1.00  0.00     0.178 HD
BRANCH   9  11
HETATM   11  C7  UNL     1      28.504   8.682  49.228  1.00  0.00     0.698 C 
HETATM   12  N4  UNL     1      27.641   9.728  49.059  1.00  0.00    -0.078 NA
HETATM   13  C8  UNL     1      28.181  11.082  48.890  1.00  0.00     0.132 C 
HETATM   14  C9  UNL     1      28.604  12.346  48.701  1.00  0.00    -0.006 C 
HETATM   15  C10 UNL     1      30.050  12.609  49.191  1.00  0.00     0.040 C 
HETATM   16  C11 UNL     1      31.129  11.912  48.461  1.00  0.00    -0.008 A 
HETATM   17  C12 UNL     1      30.531  10.740  48.992  1.00  0.00     0.021 A 
HETATM   18  C15 UNL     1      31.669  10.597  48.019  1.00  0.00     0.076 A 
HETATM   19  C13 UNL     1      30.888   9.460  48.685  1.00  0.00     0.138 A 
HETATM   20  C14 UNL     1      31.141   8.193  48.465  1.00  0.00     0.162 A 
HETATM   21  N5  UNL     1      31.848   9.243  47.879  1.00  0.00    -0.270 N 
HETATM   22  N6  UNL     1      29.939   8.155  49.356  1.00  0.00    -0.197 N 
HETATM   23  H15 UNL     1      29.963   7.719  50.299  1.00  0.00     0.180 HD
ENDBRANCH   9  11
ENDBRANCH   8   9
ENDBRANCH   5   8
BRANCH   1  24
HETATM   24  N1  UNL     1      26.575   2.331  50.573  1.00  0.00    -0.325 N 
HETATM   25  C1  UNL     1      26.573   1.791  51.857  1.00  0.00     0.256 C 
HETATM   26  O1  UNL     1      25.919   2.466  52.749  1.00  0.00    -0.267 OA
HETATM   27  H1  UNL     1      27.157   1.650  50.001  1.00  0.00     0.169 HD
BRANCH  25  28
HETATM   28  C17 UNL     1      27.157   0.610  52.449  1.00  0.00     0.035 A 
HETATM   29  C18 UNL     1      26.542  -0.593  52.128  1.00  0.00     0.036 A 
HETATM   30  C19 UNL     1      27.121  -1.689  52.720  1.00  0.00     0.117 A 
HETATM   31  N7  UNL     1      28.192  -1.688  53.549  1.00  0.00    -0.273 NA
HETATM   32  C20 UNL     1      28.772  -0.499  53.845  1.00  0.00     0.117 A 
HETATM   33  C21 UNL     1      28.236   0.616  53.285  1.00  0.00     0.036 A 
ENDBRANCH  25  28
ENDBRANCH   1  24
TORSDOF 6
ENDMDL
MODEL 6
REMARK VINA RESULT:      -8.8      2.049      2.123
REMARK  6 active torsions:
REMARK  status: ('A' for Active; 'I' for Inactive)
REMARK       I    between atoms: C1_2  and  N1_3 
REMARK    1  A    between atoms: C1_2  and  C17_24 
REMARK    2  A    between atoms: N1_3  and  C2_4 
REMARK    3  A    between atoms: C5_8  and  C6_9 
REMARK    4  A    between atoms: C6_9  and  N3_10 
REMARK    5  A    between atoms: N3_10  and  C7_11 
REMARK    6  A    between atoms: N5_20  and  C15_21 
ROOT
HETATM    1  C2  UNL     1      28.597   6.675  47.947  1.00  0.00     0.031 A 
HETATM    2  C3  UNL     1      27.646   7.585  47.885  1.00  0.00     0.113 A 
HETATM    3  N2  UNL     1      26.287   7.288  48.297  1.00  0.00    -0.373 N 
HETATM    4  C4  UNL     1      25.981   6.000  48.775  1.00  0.00     0.092 A 
HETATM    5  C5  UNL     1      26.952   5.127  48.811  1.00  0.00    -0.041 A 
HETATM    6  C16 UNL     1      28.359   5.299  48.415  1.00  0.00     0.096 A 
HETATM    7  H3  UNL     1      25.580   8.045  48.231  1.00  0.00     0.164 HD
ENDROOT
BRANCH   5   8
HETATM    8  C6  UNL     1      26.704   3.765  49.298  1.00  0.00     0.174 C 
BRANCH   8   9
HETATM    9  N3  UNL     1      26.706   3.668  50.738  1.00  0.00    -0.221 N 
HETATM   10  H7  UNL     1      27.236   4.405  51.272  1.00  0.00     0.178 HD
BRANCH   9  11
HETATM   11  C7  UNL     1      26.035   2.717  51.590  1.00  0.00     0.698 C 
HETATM   12  N4  UNL     1      26.858   1.645  51.387  1.00  0.00    -0.078 NA
HETATM   13  C8  UNL     1      26.572   0.383  52.078  1.00  0.00     0.132 C 
HETATM   14  C9  UNL     1      26.358  -0.815  52.655  1.00  0.00    -0.006 C 
HETATM   15  C10 UNL     1      25.463  -0.756  53.919  1.00  0.00     0.040 C 
HETATM   16  C11 UNL     1      24.054  -0.364  53.709  1.00  0.00    -0.008 A 
HETATM   17  C12 UNL     1      24.611   0.883  53.324  1.00  0.00     0.021 A 
HETATM   18  C15 UNL     1      23.129   0.674  53.179  1.00  0.00     0.076 A 
HETATM   19  C13 UNL     1      23.915   1.934  52.806  1.00  0.00     0.138 A 
HETATM   20  C14 UNL     1      23.354   3.005  52.299  1.00  0.00     0.162 A 
HETATM   21  N5  UNL     1      22.654   1.853  52.657  1.00  0.00    -0.270 N 
HETATM   22  N6  UNL     1      24.813   3.338  52.278  1.00  0.00    -0.197 N 
HETATM   23  H15 UNL     1      25.207   4.130  52.824  1.00  0.00     0.180 HD
ENDBRANCH   9  11
ENDBRANCH   8   9
ENDBRANCH   5   8
BRANCH   1  24
HETATM   24  N1  UNL     1      29.918   6.961  47.552  1.00  0.00    -0.325 N 
HETATM   25  C1  UNL     1      30.981   7.611  48.176  1.00  0.00     0.256 C 
HETATM   26  O1  UNL     1      30.738   8.072  49.362  1.00  0.00    -0.267 OA
HETATM   27  H1  UNL     1      30.306   6.668  46.607  1.00  0.00     0.169 HD
BRANCH  25  28
HETATM   28  C17 UNL     1      32.341   7.905  47.791  1.00  0.00     0.035 A 
HETATM   29  C18 UNL     1      32.528   8.271  46.465  1.00  0.00     0.036 A 
HETATM   30  C19 UNL     1      33.836   8.530  46.138  1.00  0.00     0.117 A 
HETATM   31  N7  UNL     1      34.905   8.463  46.967  1.00  0.00    -0.273 NA
HETATM   32  C20 UNL     1      34.693   8.103  48.257  1.00  0.00     0.117 A 
HETATM   33  C21 UNL     1      33.416   7.834  48.631  1.00  0.00     0.036 A 
ENDBRANCH  25  28
ENDBRANCH   1  24
TORSDOF 6
ENDMDL
MODEL 7
REMARK VINA RESULT:      -8.7      2.429      4.289
REMARK  6 active torsions:
REMARK  status: ('A' for Active; 'I' for Inactive)
REMARK       I    between atoms: C1_2  and  N1_3 
REMARK    1  A    between atoms: C1_2  and  C17_24 
REMARK    2  A    between atoms: N1_3  and  C2_4 
REMARK    3  A    between atoms: C5_8  and  C6_9 
REMARK    4  A    between atoms: C6_9  and  N3_10 
REMARK    5  A    between atoms: N3_10  and  C7_11 
REMARK    6  A    between atoms: N5_20  and  C15_21 
ROOT
HETATM    1  C2  UNL     1      25.304   6.035  50.041  1.00  0.00     0.031 A 
HETATM    2  C3  UNL     1      24.878   7.010  50.818  1.00  0.00     0.113 A 
HETATM    3  N2  UNL     1      23.511   7.050  51.302  1.00  0.00    -0.373 N 
HETATM    4  C4  UNL     1      22.623   6.022  50.933  1.00  0.00     0.092 A 
HETATM    5  C5  UNL     1      23.085   5.081  50.154  1.00  0.00    -0.041 A 
HETATM    6  C16 UNL     1      24.436   4.933  49.591  1.00  0.00     0.096 A 
HETATM    7  H3  UNL     1      23.233   7.839  51.915  1.00  0.00     0.164 HD
ENDROOT
BRANCH   5   8
HETATM    8  C6  UNL     1      22.213   3.979  49.729  1.00  0.00     0.174 C 
BRANCH   8   9
HETATM    9  N3  UNL     1      21.533   3.337  50.830  1.00  0.00    -0.221 N 
HETATM   10  H7  UNL     1      20.589   3.716  51.103  1.00  0.00     0.178 HD
BRANCH   9  11
HETATM   11  C7  UNL     1      21.937   2.194  51.610  1.00  0.00     0.698 C 
HETATM   12  N4  UNL     1      20.858   2.125  52.446  1.00  0.00    -0.078 NA
HETATM   13  C8  UNL     1      20.806   1.068  53.463  1.00  0.00     0.132 C 
HETATM   14  C9  UNL     1      20.703   0.145  54.438  1.00  0.00    -0.006 C 
HETATM   15  C10 UNL     1      21.594  -1.104  54.222  1.00  0.00     0.040 C 
HETATM   16  C11 UNL     1      23.054  -0.890  54.285  1.00  0.00    -0.008 A 
HETATM   17  C12 UNL     1      22.842  -0.109  53.119  1.00  0.00     0.021 A 
HETATM   18  C15 UNL     1      24.216  -0.141  53.732  1.00  0.00     0.076 A 
HETATM   19  C13 UNL     1      23.786   0.649  52.492  1.00  0.00     0.138 A 
HETATM   20  C14 UNL     1      24.605   1.411  51.809  1.00  0.00     0.162 A 
HETATM   21  N5  UNL     1      24.979   0.674  52.933  1.00  0.00    -0.270 N 
HETATM   22  N6  UNL     1      23.287   1.636  51.139  1.00  0.00    -0.197 N 
HETATM   23  H15 UNL     1      23.121   1.383  50.145  1.00  0.00     0.180 HD
ENDBRANCH   9  11
ENDBRANCH   8   9
ENDBRANCH   5   8
BRANCH   1  24
HETATM   24  N1  UNL     1      26.632   5.991  49.573  1.00  0.00    -0.325 N 
HETATM   25  C1  UNL     1      27.266   6.530  48.456  1.00  0.00     0.256 C 
HETATM   26  O1  UNL     1      26.509   7.207  47.652  1.00  0.00    -0.267 OA
HETATM   27  H1  UNL     1      27.402   5.477  50.092  1.00  0.00     0.169 HD
BRANCH  25  28
HETATM   28  C17 UNL     1      28.624   6.503  47.965  1.00  0.00     0.035 A 
HETATM   29  C18 UNL     1      28.996   7.570  47.157  1.00  0.00     0.036 A 
HETATM   30  C19 UNL     1      30.290   7.499  46.702  1.00  0.00     0.117 A 
HETATM   31  N7  UNL     1      31.188   6.521  46.970  1.00  0.00    -0.273 NA
HETATM   32  C20 UNL     1      30.798   5.493  47.762  1.00  0.00     0.117 A 
HETATM   33  C21 UNL     1      29.526   5.514  48.236  1.00  0.00     0.036 A 
ENDBRANCH  25  28
ENDBRANCH   1  24
TORSDOF 6
ENDMDL
MODEL 8
REMARK VINA RESULT:      -8.6      3.769      4.961
REMARK  6 active torsions:
REMARK  status: ('A' for Active; 'I' for Inactive)
REMARK       I    between atoms: C1_2  and  N1_3 
REMARK    1  A    between atoms: C1_2  and  C17_24 
REMARK    2  A    between atoms: N1_3  and  C2_4 
REMARK    3  A    between atoms: C5_8  and  C6_9 
REMARK    4  A    between atoms: C6_9  and  N3_10 
REMARK    5  A    between atoms: N3_10  and  C7_11 
REMARK    6  A    between atoms: N5_20  and  C15_21 
ROOT
HETATM    1  C2  UNL     1      26.490   7.247  48.608  1.00  0.00     0.031 A 
HETATM    2  C3  UNL     1      25.193   7.422  48.460  1.00  0.00     0.113 A 
HETATM    3  N2  UNL     1      24.255   6.332  48.655  1.00  0.00    -0.373 N 
HETATM    4  C4  UNL     1      24.745   5.061  49.011  1.00  0.00     0.092 A 
HETATM    5  C5  UNL     1      26.039   4.931  49.138  1.00  0.00    -0.041 A 
HETATM    6  C16 UNL     1      27.087   5.948  48.959  1.00  0.00     0.096 A 
HETATM    7  H3  UNL     1      23.244   6.529  48.531  1.00  0.00     0.164 HD
ENDROOT
BRANCH   5   8
HETATM    8  C6  UNL     1      26.619   3.634  49.507  1.00  0.00     0.174 C 
BRANCH   8   9
HETATM    9  N3  UNL     1      26.699   3.434  50.934  1.00  0.00    -0.221 N 
HETATM   10  H7  UNL     1      27.115   4.212  51.509  1.00  0.00     0.178 HD
BRANCH   9  11
HETATM   11  C7  UNL     1      26.241   2.320  51.727  1.00  0.00     0.698 C 
HETATM   12  N4  UNL     1      24.895   2.524  51.608  1.00  0.00    -0.078 NA
HETATM   13  C8  UNL     1      23.969   1.599  52.271  1.00  0.00     0.132 C 
HETATM   14  C9  UNL     1      23.060   0.809  52.874  1.00  0.00    -0.006 C 
HETATM   15  C10 UNL     1      23.598  -0.592  53.260  1.00  0.00     0.040 C 
HETATM   16  C11 UNL     1      24.642  -0.630  54.305  1.00  0.00    -0.008 A 
HETATM   17  C12 UNL     1      25.425   0.056  53.342  1.00  0.00     0.021 A 
HETATM   18  C15 UNL     1      25.990  -0.155  54.720  1.00  0.00     0.076 A 
HETATM   19  C13 UNL     1      26.669   0.571  53.556  1.00  0.00     0.138 A 
HETATM   20  C14 UNL     1      27.862   1.107  53.644  1.00  0.00     0.162 A 
HETATM   21  N5  UNL     1      27.231   0.431  54.688  1.00  0.00    -0.270 N 
HETATM   22  N6  UNL     1      27.413   1.492  52.270  1.00  0.00    -0.197 N 
HETATM   23  H15 UNL     1      27.913   1.175  51.415  1.00  0.00     0.180 HD
ENDBRANCH   9  11
ENDBRANCH   8   9
ENDBRANCH   5   8
BRANCH   1  24
HETATM   24  N1  UNL     1      27.402   8.304  48.423  1.00  0.00    -0.325 N 
HETATM   25  C1  UNL     1      27.780   9.386  49.215  1.00  0.00     0.256 C 
HETATM   26  O1  UNL     1      27.181   9.480  50.360  1.00  0.00    -0.267 OA
HETATM   27  H1  UNL     1      27.987   8.404  47.542  1.00  0.00     0.169 HD
BRANCH  25  28
HETATM   28  C17 UNL     1      28.717  10.472  49.046  1.00  0.00     0.035 A 
HETATM   29  C18 UNL     1      28.158  11.735  48.898  1.00  0.00     0.036 A 
HETATM   30  C19 UNL     1      29.084  12.736  48.729  1.00  0.00     0.117 A 
HETATM   31  N7  UNL     1      30.430  12.595  48.700  1.00  0.00    -0.273 NA
HETATM   32  C20 UNL     1      30.948  11.351  48.847  1.00  0.00     0.117 A 
HETATM   33  C21 UNL     1      30.075  10.325  49.016  1.00  0.00     0.036 A 
ENDBRANCH  25  28
ENDBRANCH   1  24
TORSDOF 6
ENDMDL
MODEL 9
REMARK VINA RESULT:      -8.5      2.566      9.503
REMARK  6 active torsions:
REMARK  status: ('A' for Active; 'I' for Inactive)
REMARK       I    between atoms: C1_2  and  N1_3 
REMARK    1  A    between atoms: C1_2  and  C17_24 
REMARK    2  A    between atoms: N1_3  and  C2_4 
REMARK    3  A    between atoms: C5_8  and  C6_9 
REMARK    4  A    between atoms: C6_9  and  N3_10 
REMARK    5  A    between atoms: N3_10  and  C7_11 
REMARK    6  A    between atoms: N5_20  and  C15_21 
ROOT
HETATM    1  C2  UNL     1      24.056   4.749  51.174  1.00  0.00     0.031 A 
HETATM    2  C3  UNL     1      23.846   5.837  51.886  1.00  0.00     0.113 A 
HETATM    3  N2  UNL     1      24.496   7.093  51.560  1.00  0.00    -0.373 N 
HETATM    4  C4  UNL     1      25.368   7.147  50.457  1.00  0.00     0.092 A 
HETATM    5  C5  UNL     1      25.554   6.043  49.784  1.00  0.00    -0.041 A 
HETATM    6  C16 UNL     1      24.967   4.713  50.018  1.00  0.00     0.096 A 
HETATM    7  H3  UNL     1      24.289   7.919  52.153  1.00  0.00     0.164 HD
ENDROOT
BRANCH   5   8
HETATM    8  C6  UNL     1      26.451   6.027  48.622  1.00  0.00     0.174 C 
BRANCH   8   9
HETATM    9  N3  UNL     1      27.808   5.667  48.959  1.00  0.00    -0.221 N 
HETATM   10  H7  UNL     1      27.944   4.854  49.614  1.00  0.00     0.178 HD
BRANCH   9  11
HETATM   11  C7  UNL     1      29.046   6.236  48.488  1.00  0.00     0.698 C 
HETATM   12  N4  UNL     1      29.701   5.076  48.182  1.00  0.00    -0.078 NA
HETATM   13  C8  UNL     1      31.062   5.144  47.637  1.00  0.00     0.132 C 
HETATM   14  C9  UNL     1      32.321   5.126  47.161  1.00  0.00    -0.006 C 
HETATM   15  C10 UNL     1      32.771   6.461  46.515  1.00  0.00     0.040 C 
HETATM   16  C11 UNL     1      32.901   7.620  47.422  1.00  0.00    -0.008 A 
HETATM   17  C12 UNL     1      31.497   7.480  47.566  1.00  0.00     0.021 A 
HETATM   18  C15 UNL     1      32.215   8.495  48.412  1.00  0.00     0.076 A 
HETATM   19  C13 UNL     1      30.716   8.185  48.433  1.00  0.00     0.138 A 
HETATM   20  C14 UNL     1      29.869   8.797  49.224  1.00  0.00     0.162 A 
HETATM   21  N5  UNL     1      31.235   9.073  49.180  1.00  0.00    -0.270 N 
HETATM   22  N6  UNL     1      29.021   7.769  48.542  1.00  0.00    -0.197 N 
HETATM   23  H15 UNL     1      28.223   8.029  47.929  1.00  0.00     0.180 HD
ENDBRANCH   9  11
ENDBRANCH   8   9
ENDBRANCH   5   8
BRANCH   1  24
HETATM   24  N1  UNL     1      23.424   3.530  51.486  1.00  0.00    -0.325 N 
HETATM   25  C1  UNL     1      23.632   2.574  52.478  1.00  0.00     0.256 C 
HETATM   26  O1  UNL     1      24.609   2.817  53.294  1.00  0.00    -0.267 OA
HETATM   27  H1  UNL     1      22.602   3.155  50.927  1.00  0.00     0.169 HD
BRANCH  25  28
HETATM   28  C17 UNL     1      22.991   1.327  52.818  1.00  0.00     0.035 A 
HETATM   29  C18 UNL     1      23.829   0.324  53.289  1.00  0.00     0.036 A 
HETATM   30  C19 UNL     1      23.180  -0.849  53.589  1.00  0.00     0.117 A 
HETATM   31  N7  UNL     1      21.853  -1.091  53.470  1.00  0.00    -0.273 NA
HETATM   32  C20 UNL     1      21.059  -0.095  53.009  1.00  0.00     0.117 A 
HETATM   33  C21 UNL     1      21.651   1.086  52.696  1.00  0.00     0.036 A 
ENDBRANCH  25  28
ENDBRANCH   1  24
TORSDOF 6
ENDMDL
