MODEL 1
REMARK VINA RESULT:      -8.5      0.000      0.000
REMARK  3 active torsions:
REMARK  status: ('A' for Active; 'I' for Inactive)
REMARK    1  A    between atoms: N3_6  and  C4_7 
REMARK    2  A    between atoms: C11_15  and  N4_16 
REMARK       I    between atoms: N4_16  and  C12_17 
REMARK    3  A    between atoms: C12_17  and  C13_19 
ROOT
HETATM    1  N1  UNL     1      19.447   0.034  51.319  1.00  0.00    -0.195 NA
HETATM    2  C1  UNL     1      20.142   0.308  52.212  1.00  0.00     0.091 C 
HETATM    3  C2  UNL     1      21.020   0.671  53.329  1.00  0.00     0.251 A 
HETATM    4  N2  UNL     1      21.664  -0.503  53.881  1.00  0.00    -0.260 NA
HETATM    5  C3  UNL     1      22.941  -0.619  53.943  1.00  0.00     0.210 A 
HETATM    6  N3  UNL     1      23.892   0.334  53.503  1.00  0.00    -0.308 N 
HETATM    7  C9  UNL     1      23.386   1.538  52.938  1.00  0.00     0.052 A 
HETATM    8  C10 UNL     1      24.255   2.501  52.493  1.00  0.00     0.060 A 
HETATM    9  C11 UNL     1      23.710   3.660  51.950  1.00  0.00     0.037 A 
HETATM   10  C17 UNL     1      22.326   3.804  51.874  1.00  0.00     0.030 A 
HETATM   11  C18 UNL     1      21.502   2.806  52.334  1.00  0.00     0.015 A 
HETATM   12  C19 UNL     1      22.014   1.650  52.878  1.00  0.00     0.007 A 
ENDROOT
BRANCH   6  13
HETATM   13  C4  UNL     1      25.291   0.072  53.634  1.00  0.00     0.036 A 
HETATM   14  C5  UNL     1      25.803   0.262  54.841  1.00  0.00     0.027 A 
HETATM   15  C6  UNL     1      27.231  -0.044  54.818  1.00  0.00    -0.001 A 
HETATM   16  C7  UNL     1      27.525  -0.411  53.577  1.00  0.00    -0.005 A 
HETATM   17  C8  UNL     1      26.337  -0.382  52.680  1.00  0.00     0.131 A 
HETATM   18 BR1  UNL     1      26.762   0.979  51.357  1.00  0.00    -0.080 Br
ENDBRANCH   6  13
BRANCH   9  19
HETATM   19  N4  UNL     1      24.652   4.652  51.492  1.00  0.00    -0.321 N 
HETATM   20  C12 UNL     1      25.058   4.348  50.162  1.00  0.00     0.279 C 
HETATM   21  O1  UNL     1      24.588   3.332  49.589  1.00  0.00    -0.265 OA
HETATM   22  H8  UNL     1      25.059   5.502  51.941  1.00  0.00     0.169 HD
BRANCH  20  23
HETATM   23  C13 UNL     1      26.008   5.170  49.420  1.00  0.00     0.142 A 
HETATM   24  C14 UNL     1      27.213   4.678  48.962  1.00  0.00     0.045 A 
HETATM   25  C15 UNL     1      27.857   5.733  48.303  1.00  0.00     0.027 A 
HETATM   26  C16 UNL     1      26.986   6.814  48.406  1.00  0.00     0.143 A 
HETATM   27  O2  UNL     1      25.929   6.426  49.066  1.00  0.00    -0.317 OA
ENDBRANCH  20  23
ENDBRANCH   9  19
TORSDOF 3
ENDMDL
MODEL 2
REMARK VINA RESULT:      -8.5      2.644      4.935
REMARK  3 active torsions:
REMARK  status: ('A' for Active; 'I' for Inactive)
REMARK    1  A    between atoms: N3_6  and  C4_7 
REMARK    2  A    between atoms: C11_15  and  N4_16 
REMARK       I    between atoms: N4_16  and  C12_17 
REMARK    3  A    between atoms: C12_17  and  C13_19 
ROOT
HETATM    1  N1  UNL     1      28.902   1.619  54.564  1.00  0.00    -0.195 NA
HETATM    2  C1  UNL     1      28.154   0.958  53.965  1.00  0.00     0.091 C 
HETATM    3  C2  UNL     1      27.211   0.140  53.199  1.00  0.00     0.251 A 
HETATM    4  N2  UNL     1      26.514  -0.791  54.063  1.00  0.00    -0.260 NA
HETATM    5  C3  UNL     1      25.234  -0.809  54.160  1.00  0.00     0.210 A 
HETATM    6  N3  UNL     1      24.328   0.037  53.473  1.00  0.00    -0.308 N 
HETATM    7  C9  UNL     1      24.888   0.999  52.588  1.00  0.00     0.052 A 
HETATM    8  C10 UNL     1      24.065   1.848  51.893  1.00  0.00     0.060 A 
HETATM    9  C11 UNL     1      24.662   2.771  51.040  1.00  0.00     0.037 A 
HETATM   10  C17 UNL     1      26.051   2.806  50.922  1.00  0.00     0.030 A 
HETATM   11  C18 UNL     1      26.827   1.932  51.643  1.00  0.00     0.015 A 
HETATM   12  C19 UNL     1      26.263   1.008  52.492  1.00  0.00     0.007 A 
ENDROOT
BRANCH   6  13
HETATM   13  C4  UNL     1      22.920  -0.096  53.678  1.00  0.00     0.036 A 
HETATM   14  C5  UNL     1      22.545  -1.062  54.503  1.00  0.00     0.027 A 
HETATM   15  C6  UNL     1      21.089  -1.073  54.610  1.00  0.00    -0.001 A 
HETATM   16  C7  UNL     1      20.639  -0.097  53.832  1.00  0.00    -0.005 A 
HETATM   17  C8  UNL     1      21.739   0.638  53.150  1.00  0.00     0.131 A 
HETATM   18 BR1  UNL     1      21.450   0.294  51.257  1.00  0.00    -0.080 Br
ENDBRANCH   6  13
BRANCH   9  19
HETATM   19  N4  UNL     1      23.768   3.648  50.325  1.00  0.00    -0.321 N 
HETATM   20  C12 UNL     1      23.397   4.739  51.160  1.00  0.00     0.279 C 
HETATM   21  O1  UNL     1      23.855   4.804  52.330  1.00  0.00    -0.265 OA
HETATM   22  H8  UNL     1      23.373   3.620  49.359  1.00  0.00     0.169 HD
BRANCH  20  23
HETATM   23  C13 UNL     1      22.499   5.800  50.720  1.00  0.00     0.142 A 
HETATM   24  C14 UNL     1      22.870   7.129  50.711  1.00  0.00     0.045 A 
HETATM   25  C15 UNL     1      21.771   7.854  50.235  1.00  0.00     0.027 A 
HETATM   26  C16 UNL     1      20.788   6.901  49.980  1.00  0.00     0.143 A 
HETATM   27  O2  UNL     1      21.269   5.726  50.282  1.00  0.00    -0.317 OA
ENDBRANCH  20  23
ENDBRANCH   9  19
TORSDOF 3
ENDMDL
MODEL 3
REMARK VINA RESULT:      -8.4      2.860      5.442
REMARK  3 active torsions:
REMARK  status: ('A' for Active; 'I' for Inactive)
REMARK    1  A    between atoms: N3_6  and  C4_7 
REMARK    2  A    between atoms: C11_15  and  N4_16 
REMARK       I    between atoms: N4_16  and  C12_17 
REMARK    3  A    between atoms: C12_17  and  C13_19 
ROOT
HETATM    1  N1  UNL     1      18.495  -0.369  53.421  1.00  0.00    -0.195 NA
HETATM    2  C1  UNL     1      19.274  -0.119  52.593  1.00  0.00     0.091 C 
HETATM    3  C2  UNL     1      20.268   0.188  51.561  1.00  0.00     0.251 A 
HETATM    4  N2  UNL     1      19.945   1.427  50.885  1.00  0.00    -0.260 NA
HETATM    5  C3  UNL     1      20.758   2.421  50.850  1.00  0.00     0.210 A 
HETATM    6  N3  UNL     1      22.046   2.472  51.438  1.00  0.00    -0.308 N 
HETATM    7  C9  UNL     1      22.484   1.312  52.135  1.00  0.00     0.052 A 
HETATM    8  C10 UNL     1      23.722   1.298  52.727  1.00  0.00     0.060 A 
HETATM    9  C11 UNL     1      24.104   0.140  53.396  1.00  0.00     0.037 A 
HETATM   10  C17 UNL     1      23.235  -0.949  53.445  1.00  0.00     0.030 A 
HETATM   11  C18 UNL     1      22.006  -0.879  52.834  1.00  0.00     0.015 A 
HETATM   12  C19 UNL     1      21.603   0.253  52.165  1.00  0.00     0.007 A 
ENDROOT
BRANCH   6  13
HETATM   13  C4  UNL     1      22.847   3.650  51.320  1.00  0.00     0.036 A 
HETATM   14  C5  UNL     1      22.651   4.576  52.247  1.00  0.00     0.027 A 
HETATM   15  C6  UNL     1      23.534   5.712  51.994  1.00  0.00    -0.001 A 
HETATM   16  C7  UNL     1      24.236   5.418  50.907  1.00  0.00    -0.005 A 
HETATM   17  C8  UNL     1      23.888   4.082  50.350  1.00  0.00     0.131 A 
HETATM   18 BR1  UNL     1      23.140   4.468  48.597  1.00  0.00    -0.080 Br
ENDBRANCH   6  13
BRANCH   9  19
HETATM   19  N4  UNL     1      25.410   0.159  54.007  1.00  0.00    -0.321 N 
HETATM   20  C12 UNL     1      26.390  -0.238  53.054  1.00  0.00     0.279 C 
HETATM   21  O1  UNL     1      26.031  -0.535  51.885  1.00  0.00    -0.265 OA
HETATM   22  H8  UNL     1      25.738   0.400  54.968  1.00  0.00     0.169 HD
BRANCH  20  23
HETATM   23  C13 UNL     1      27.812  -0.318  53.371  1.00  0.00     0.142 A 
HETATM   24  C14 UNL     1      28.629   0.794  53.395  1.00  0.00     0.045 A 
HETATM   25  C15 UNL     1      29.912   0.346  53.732  1.00  0.00     0.027 A 
HETATM   26  C16 UNL     1      29.788  -1.031  53.894  1.00  0.00     0.143 A 
HETATM   27  O2  UNL     1      28.544  -1.358  53.671  1.00  0.00    -0.317 OA
ENDBRANCH  20  23
ENDBRANCH   9  19
TORSDOF 3
ENDMDL
MODEL 4
REMARK VINA RESULT:      -8.3      2.732      5.673
REMARK  3 active torsions:
REMARK  status: ('A' for Active; 'I' for Inactive)
REMARK    1  A    between atoms: N3_6  and  C4_7 
REMARK    2  A    between atoms: C11_15  and  N4_16 
REMARK       I    between atoms: N4_16  and  C12_17 
REMARK    3  A    between atoms: C12_17  and  C13_19 
ROOT
HETATM    1  N1  UNL     1      19.285   2.348  52.315  1.00  0.00    -0.195 NA
HETATM    2  C1  UNL     1      20.107   2.077  51.537  1.00  0.00     0.091 C 
HETATM    3  C2  UNL     1      21.152   1.727  50.571  1.00  0.00     0.251 A 
HETATM    4  N2  UNL     1      21.252   2.731  49.532  1.00  0.00    -0.260 NA
HETATM    5  C3  UNL     1      22.344   3.365  49.295  1.00  0.00     0.210 A 
HETATM    6  N3  UNL     1      23.576   3.199  49.974  1.00  0.00    -0.308 N 
HETATM    7  C9  UNL     1      23.610   2.237  51.021  1.00  0.00     0.052 A 
HETATM    8  C10 UNL     1      24.773   2.028  51.718  1.00  0.00     0.060 A 
HETATM    9  C11 UNL     1      24.755   1.077  52.732  1.00  0.00     0.037 A 
HETATM   10  C17 UNL     1      23.580   0.379  53.006  1.00  0.00     0.030 A 
HETATM   11  C18 UNL     1      22.443   0.629  52.276  1.00  0.00     0.015 A 
HETATM   12  C19 UNL     1      22.433   1.563  51.266  1.00  0.00     0.007 A 
ENDROOT
BRANCH   6  13
HETATM   13  C4  UNL     1      24.716   3.975  49.601  1.00  0.00     0.036 A 
HETATM   14  C5  UNL     1      25.868   3.323  49.556  1.00  0.00     0.027 A 
HETATM   15  C6  UNL     1      26.933   4.243  49.164  1.00  0.00    -0.001 A 
HETATM   16  C7  UNL     1      26.368   5.431  48.987  1.00  0.00    -0.005 A 
HETATM   17  C8  UNL     1      24.902   5.406  49.242  1.00  0.00     0.131 A 
HETATM   18 BR1  UNL     1      24.655   6.583  50.770  1.00  0.00    -0.080 Br
ENDBRANCH   6  13
BRANCH   9  19
HETATM   19  N4  UNL     1      25.994   0.882  53.445  1.00  0.00    -0.321 N 
HETATM   20  C12 UNL     1      26.825  -0.021  52.724  1.00  0.00     0.279 C 
HETATM   21  O1  UNL     1      26.414  -0.505  51.638  1.00  0.00    -0.265 OA
HETATM   22  H8  UNL     1      26.362   1.269  54.343  1.00  0.00     0.169 HD
BRANCH  20  23
HETATM   23  C13 UNL     1      28.149  -0.418  53.190  1.00  0.00     0.142 A 
HETATM   24  C14 UNL     1      29.160   0.494  53.414  1.00  0.00     0.045 A 
HETATM   25  C15 UNL     1      30.275  -0.235  53.848  1.00  0.00     0.027 A 
HETATM   26  C16 UNL     1      29.859  -1.564  53.860  1.00  0.00     0.143 A 
HETATM   27  O2  UNL     1      28.615  -1.608  53.468  1.00  0.00    -0.317 OA
ENDBRANCH  20  23
ENDBRANCH   9  19
TORSDOF 3
ENDMDL
MODEL 5
REMARK VINA RESULT:      -8.3      2.880      6.452
REMARK  3 active torsions:
REMARK  status: ('A' for Active; 'I' for Inactive)
REMARK    1  A    between atoms: N3_6  and  C4_7 
REMARK    2  A    between atoms: C11_15  and  N4_16 
REMARK       I    between atoms: N4_16  and  C12_17 
REMARK    3  A    between atoms: C12_17  and  C13_19 
ROOT
HETATM    1  N1  UNL     1      26.997  -2.122  53.000  1.00  0.00    -0.195 NA
HETATM    2  C1  UNL     1      26.682  -1.019  53.201  1.00  0.00     0.091 C 
HETATM    3  C2  UNL     1      26.266   0.364  53.452  1.00  0.00     0.251 A 
HETATM    4  N2  UNL     1      27.254   1.298  52.953  1.00  0.00    -0.260 NA
HETATM    5  C3  UNL     1      26.968   2.200  52.085  1.00  0.00     0.210 A 
HETATM    6  N3  UNL     1      25.699   2.425  51.495  1.00  0.00    -0.308 N 
HETATM    7  C9  UNL     1      24.638   1.570  51.903  1.00  0.00     0.052 A 
HETATM    8  C10 UNL     1      23.385   1.736  51.370  1.00  0.00     0.060 A 
HETATM    9  C11 UNL     1      22.381   0.875  51.802  1.00  0.00     0.037 A 
HETATM   10  C17 UNL     1      22.673  -0.111  52.743  1.00  0.00     0.030 A 
HETATM   11  C18 UNL     1      23.947  -0.232  53.244  1.00  0.00     0.015 A 
HETATM   12  C19 UNL     1      24.958   0.607  52.835  1.00  0.00     0.007 A 
ENDROOT
BRANCH   6  13
HETATM   13  C4  UNL     1      25.523   3.471  50.538  1.00  0.00     0.036 A 
HETATM   14  C5  UNL     1      26.608   3.825  49.865  1.00  0.00     0.027 A 
HETATM   15  C6  UNL     1      26.273   4.898  48.931  1.00  0.00    -0.001 A 
HETATM   16  C7  UNL     1      24.979   5.150  49.084  1.00  0.00    -0.005 A 
HETATM   17  C8  UNL     1      24.350   4.280  50.116  1.00  0.00     0.131 A 
HETATM   18 BR1  UNL     1      23.774   5.515  51.504  1.00  0.00    -0.080 Br
ENDBRANCH   6  13
BRANCH   9  19
HETATM   19  N4  UNL     1      21.077   1.076  51.221  1.00  0.00    -0.321 N 
HETATM   20  C12 UNL     1      20.329   1.981  52.026  1.00  0.00     0.279 C 
HETATM   21  O1  UNL     1      20.850   2.459  53.066  1.00  0.00    -0.265 OA
HETATM   22  H8  UNL     1      20.617   0.696  50.364  1.00  0.00     0.169 HD
BRANCH  20  23
HETATM   23  C13 UNL     1      18.966   2.386  51.699  1.00  0.00     0.142 A 
HETATM   24  C14 UNL     1      18.107   1.583  50.978  1.00  0.00     0.045 A 
HETATM   25  C15 UNL     1      16.901   2.285  50.855  1.00  0.00     0.027 A 
HETATM   26  C16 UNL     1      17.111   3.488  51.522  1.00  0.00     0.143 A 
HETATM   27  O2  UNL     1      18.329   3.490  51.991  1.00  0.00    -0.317 OA
ENDBRANCH  20  23
ENDBRANCH   9  19
TORSDOF 3
ENDMDL
MODEL 6
REMARK VINA RESULT:      -8.2      3.021      6.966
REMARK  3 active torsions:
REMARK  status: ('A' for Active; 'I' for Inactive)
REMARK    1  A    between atoms: N3_6  and  C4_7 
REMARK    2  A    between atoms: C11_15  and  N4_16 
REMARK       I    between atoms: N4_16  and  C12_17 
REMARK    3  A    between atoms: C12_17  and  C13_19 
ROOT
HETATM    1  N1  UNL     1      27.160  -2.309  52.615  1.00  0.00    -0.195 NA
HETATM    2  C1  UNL     1      26.874  -1.271  53.059  1.00  0.00     0.091 C 
HETATM    3  C2  UNL     1      26.497   0.027  53.625  1.00  0.00     0.251 A 
HETATM    4  N2  UNL     1      27.100   1.111  52.877  1.00  0.00    -0.260 NA
HETATM    5  C3  UNL     1      26.400   2.034  52.323  1.00  0.00     0.210 A 
HETATM    6  N3  UNL     1      24.988   2.144  52.347  1.00  0.00    -0.308 N 
HETATM    7  C9  UNL     1      24.274   1.138  53.053  1.00  0.00     0.052 A 
HETATM    8  C10 UNL     1      22.904   1.188  53.114  1.00  0.00     0.060 A 
HETATM    9  C11 UNL     1      22.253   0.180  53.818  1.00  0.00     0.037 A 
HETATM   10  C17 UNL     1      22.995  -0.831  54.426  1.00  0.00     0.030 A 
HETATM   11  C18 UNL     1      24.366  -0.832  54.332  1.00  0.00     0.015 A 
HETATM   12  C19 UNL     1      25.036   0.153  53.644  1.00  0.00     0.007 A 
ENDROOT
BRANCH   6  13
HETATM   13  C4  UNL     1      24.338   3.230  51.683  1.00  0.00     0.036 A 
HETATM   14  C5  UNL     1      23.902   4.207  52.465  1.00  0.00     0.027 A 
HETATM   15  C6  UNL     1      23.264   5.236  51.649  1.00  0.00    -0.001 A 
HETATM   16  C7  UNL     1      23.343   4.831  50.388  1.00  0.00    -0.005 A 
HETATM   17  C8  UNL     1      24.030   3.517  50.257  1.00  0.00     0.131 A 
HETATM   18 BR1  UNL     1      22.665   2.325  49.549  1.00  0.00    -0.080 Br
ENDBRANCH   6  13
BRANCH   9  19
HETATM   19  N4  UNL     1      20.813   0.263  53.862  1.00  0.00    -0.321 N 
HETATM   20  C12 UNL     1      20.277  -0.044  52.580  1.00  0.00     0.279 C 
HETATM   21  O1  UNL     1      21.057  -0.328  51.635  1.00  0.00    -0.265 OA
HETATM   22  H8  UNL     1      20.141   0.494  54.626  1.00  0.00     0.169 HD
BRANCH  20  23
HETATM   23  C13 UNL     1      18.844  -0.046  52.304  1.00  0.00     0.142 A 
HETATM   24  C14 UNL     1      18.001  -1.032  52.772  1.00  0.00     0.045 A 
HETATM   25  C15 UNL     1      16.714  -0.715  52.319  1.00  0.00     0.027 A 
HETATM   26  C16 UNL     1      16.863   0.464  51.595  1.00  0.00     0.143 A 
HETATM   27  O2  UNL     1      18.123   0.804  51.621  1.00  0.00    -0.317 OA
ENDBRANCH  20  23
ENDBRANCH   9  19
TORSDOF 3
ENDMDL
MODEL 7
REMARK VINA RESULT:      -8.1      3.108      5.038
REMARK  3 active torsions:
REMARK  status: ('A' for Active; 'I' for Inactive)
REMARK    1  A    between atoms: N3_6  and  C4_7 
REMARK    2  A    between atoms: C11_15  and  N4_16 
REMARK       I    between atoms: N4_16  and  C12_17 
REMARK    3  A    between atoms: C12_17  and  C13_19 
ROOT
HETATM    1  N1  UNL     1      22.024   2.950  47.101  1.00  0.00    -0.195 NA
HETATM    2  C1  UNL     1      21.585   3.032  48.176  1.00  0.00     0.091 C 
HETATM    3  C2  UNL     1      21.049   3.144  49.535  1.00  0.00     0.251 A 
HETATM    4  N2  UNL     1      20.037   2.135  49.775  1.00  0.00    -0.260 NA
HETATM    5  C3  UNL     1      20.135   1.280  50.728  1.00  0.00     0.210 A 
HETATM    6  N3  UNL     1      21.195   1.181  51.662  1.00  0.00    -0.308 N 
HETATM    7  C9  UNL     1      22.257   2.119  51.534  1.00  0.00     0.052 A 
HETATM    8  C10 UNL     1      23.314   2.077  52.407  1.00  0.00     0.060 A 
HETATM    9  C11 UNL     1      24.326   3.016  52.240  1.00  0.00     0.037 A 
HETATM   10  C17 UNL     1      24.239   3.953  51.211  1.00  0.00     0.030 A 
HETATM   11  C18 UNL     1      23.157   3.948  50.365  1.00  0.00     0.015 A 
HETATM   12  C19 UNL     1      22.141   3.032  50.508  1.00  0.00     0.007 A 
ENDROOT
BRANCH   6  13
HETATM   13  C4  UNL     1      21.173   0.175  52.676  1.00  0.00     0.036 A 
HETATM   14  C5  UNL     1      22.201  -0.660  52.684  1.00  0.00     0.027 A 
HETATM   15  C6  UNL     1      22.037  -1.624  53.769  1.00  0.00    -0.001 A 
HETATM   16  C7  UNL     1      20.897  -1.326  54.379  1.00  0.00    -0.005 A 
HETATM   17  C8  UNL     1      20.214  -0.155  53.764  1.00  0.00     0.131 A 
HETATM   18 BR1  UNL     1      18.544  -0.876  53.074  1.00  0.00    -0.080 Br
ENDBRANCH   6  13
BRANCH   9  19
HETATM   19  N4  UNL     1      25.422   2.944  53.175  1.00  0.00    -0.321 N 
HETATM   20  C12 UNL     1      26.445   2.106  52.648  1.00  0.00     0.279 C 
HETATM   21  O1  UNL     1      26.286   1.570  51.521  1.00  0.00    -0.265 OA
HETATM   22  H8  UNL     1      25.583   3.375  54.112  1.00  0.00     0.169 HD
BRANCH  20  23
HETATM   23  C13 UNL     1      27.688   1.834  53.363  1.00  0.00     0.142 A 
HETATM   24  C14 UNL     1      28.294   0.595  53.350  1.00  0.00     0.045 A 
HETATM   25  C15 UNL     1      29.451   0.701  54.133  1.00  0.00     0.027 A 
HETATM   26  C16 UNL     1      29.472   2.021  54.576  1.00  0.00     0.143 A 
HETATM   27  O2  UNL     1      28.422   2.630  54.096  1.00  0.00    -0.317 OA
ENDBRANCH  20  23
ENDBRANCH   9  19
TORSDOF 3
ENDMDL
MODEL 8
REMARK VINA RESULT:      -7.7      2.251      4.662
REMARK  3 active torsions:
REMARK  status: ('A' for Active; 'I' for Inactive)
REMARK    1  A    between atoms: N3_6  and  C4_7 
REMARK    2  A    between atoms: C11_15  and  N4_16 
REMARK       I    between atoms: N4_16  and  C12_17 
REMARK    3  A    between atoms: C12_17  and  C13_19 
ROOT
HETATM    1  N1  UNL     1      22.000  -1.009  55.318  1.00  0.00    -0.195 NA
HETATM    2  C1  UNL     1      21.884  -0.795  54.180  1.00  0.00     0.091 C 
HETATM    3  C2  UNL     1      21.754  -0.517  52.746  1.00  0.00     0.251 A 
HETATM    4  N2  UNL     1      20.362  -0.395  52.368  1.00  0.00    -0.260 NA
HETATM    5  C3  UNL     1      19.892   0.664  51.815  1.00  0.00     0.210 A 
HETATM    6  N3  UNL     1      20.620   1.837  51.496  1.00  0.00    -0.308 N 
HETATM    7  C9  UNL     1      22.005   1.845  51.818  1.00  0.00     0.052 A 
HETATM    8  C10 UNL     1      22.766   2.951  51.534  1.00  0.00     0.060 A 
HETATM    9  C11 UNL     1      24.115   2.908  51.868  1.00  0.00     0.037 A 
HETATM   10  C17 UNL     1      24.644   1.768  52.470  1.00  0.00     0.030 A 
HETATM   11  C18 UNL     1      23.835   0.688  52.732  1.00  0.00     0.015 A 
HETATM   12  C19 UNL     1      22.497   0.702  52.411  1.00  0.00     0.007 A 
ENDROOT
BRANCH   6  13
HETATM   13  C4  UNL     1      19.965   2.947  50.877  1.00  0.00     0.036 A 
HETATM   14  C5  UNL     1      18.813   3.312  51.419  1.00  0.00     0.027 A 
HETATM   15  C6  UNL     1      18.267   4.450  50.684  1.00  0.00    -0.001 A 
HETATM   16  C7  UNL     1      19.128   4.727  49.712  1.00  0.00    -0.005 A 
HETATM   17  C8  UNL     1      20.302   3.813  49.717  1.00  0.00     0.131 A 
HETATM   18 BR1  UNL     1      20.178   2.856  48.028  1.00  0.00    -0.080 Br
ENDBRANCH   6  13
BRANCH   9  19
HETATM   19  N4  UNL     1      24.885   4.087  51.557  1.00  0.00    -0.321 N 
HETATM   20  C12 UNL     1      25.314   4.035  50.201  1.00  0.00     0.279 C 
HETATM   21  O1  UNL     1      24.997   3.047  49.490  1.00  0.00    -0.265 OA
HETATM   22  H8  UNL     1      25.164   4.920  52.122  1.00  0.00     0.169 HD
BRANCH  20  23
HETATM   23  C13 UNL     1      26.115   5.088  49.586  1.00  0.00     0.142 A 
HETATM   24  C14 UNL     1      27.212   4.817  48.795  1.00  0.00     0.045 A 
HETATM   25  C15 UNL     1      27.729   6.052  48.381  1.00  0.00     0.027 A 
HETATM   26  C16 UNL     1      26.896   7.007  48.958  1.00  0.00     0.143 A 
HETATM   27  O2  UNL     1      25.977   6.387  49.646  1.00  0.00    -0.317 OA
ENDBRANCH  20  23
ENDBRANCH   9  19
TORSDOF 3
ENDMDL
MODEL 9
REMARK VINA RESULT:      -7.6      2.896      6.609
REMARK  3 active torsions:
REMARK  status: ('A' for Active; 'I' for Inactive)
REMARK    1  A    between atoms: N3_6  and  C4_7 
REMARK    2  A    between atoms: C11_15  and  N4_16 
REMARK       I    between atoms: N4_16  and  C12_17 
REMARK    3  A    between atoms: C12_17  and  C13_19 
ROOT
HETATM    1  N1  UNL     1      23.849   6.564  50.608  1.00  0.00    -0.195 NA
HETATM    2  C1  UNL     1      24.295   5.544  50.268  1.00  0.00     0.091 C 
HETATM    3  C2  UNL     1      24.838   4.253  49.837  1.00  0.00     0.251 A 
HETATM    4  N2  UNL     1      26.096   3.976  50.499  1.00  0.00    -0.260 NA
HETATM    5  C3  UNL     1      26.278   2.924  51.214  1.00  0.00     0.210 A 
HETATM    6  N3  UNL     1      25.326   1.906  51.465  1.00  0.00    -0.308 N 
HETATM    7  C9  UNL     1      24.044   2.060  50.869  1.00  0.00     0.052 A 
HETATM    8  C10 UNL     1      23.077   1.108  51.073  1.00  0.00     0.060 A 
HETATM    9  C11 UNL     1      21.840   1.305  50.468  1.00  0.00     0.037 A 
HETATM   10  C17 UNL     1      21.624   2.440  49.689  1.00  0.00     0.030 A 
HETATM   11  C18 UNL     1      22.628   3.362  49.518  1.00  0.00     0.015 A 
HETATM   12  C19 UNL     1      23.861   3.192  50.104  1.00  0.00     0.007 A 
ENDROOT
BRANCH   6  13
HETATM   13  C4  UNL     1      25.667   0.785  52.284  1.00  0.00     0.036 A 
HETATM   14  C5  UNL     1      26.508  -0.086  51.748  1.00  0.00     0.027 A 
HETATM   15  C6  UNL     1      26.759  -1.168  52.696  1.00  0.00    -0.001 A 
HETATM   16  C7  UNL     1      26.045  -0.900  53.783  1.00  0.00    -0.005 A 
HETATM   17  C8  UNL     1      25.270   0.365  53.654  1.00  0.00     0.131 A 
HETATM   18 BR1  UNL     1      23.409  -0.197  53.737  1.00  0.00    -0.080 Br
ENDBRANCH   6  13
BRANCH   9  19
HETATM   19  N4  UNL     1      20.847   0.286  50.704  1.00  0.00    -0.321 N 
HETATM   20  C12 UNL     1      20.079   0.623  51.854  1.00  0.00     0.279 C 
HETATM   21  O1  UNL     1      20.336   1.684  52.479  1.00  0.00    -0.265 OA
HETATM   22  H8  UNL     1      20.610  -0.600  50.205  1.00  0.00     0.169 HD
BRANCH  20  23
HETATM   23  C13 UNL     1      18.992  -0.214  52.350  1.00  0.00     0.142 A 
HETATM   24  C14 UNL     1      17.753  -0.255  51.744  1.00  0.00     0.045 A 
HETATM   25  C15 UNL     1      16.971  -1.153  52.481  1.00  0.00     0.027 A 
HETATM   26  C16 UNL     1      17.801  -1.606  53.503  1.00  0.00     0.143 A 
HETATM   27  O2  UNL     1      18.962  -1.025  53.375  1.00  0.00    -0.317 OA
ENDBRANCH  20  23
ENDBRANCH   9  19
TORSDOF 3
ENDMDL
