MODEL 1
REMARK VINA RESULT:      -9.0      0.000      0.000
REMARK  3 active torsions:
REMARK  status: ('A' for Active; 'I' for Inactive)
REMARK    1  A    between atoms: C7_9  and  N3_10 
REMARK    2  A    between atoms: C10_14  and  N4_15 
REMARK    3  A    between atoms: N4_15  and  C11_16 
ROOT
HETATM    1  N1  UNL     1      22.017  -1.865  54.871  1.00  0.00    -0.191 NA
HETATM    2  C1  UNL     1      22.171  -1.117  53.998  1.00  0.00     0.103 C 
HETATM    3  C2  UNL     1      22.357  -0.189  52.939  1.00  0.00     0.089 A 
HETATM    4  C3  UNL     1      21.461  -0.047  51.901  1.00  0.00     0.142 A 
HETATM    5  N2  UNL     1      21.664   0.841  50.910  1.00  0.00    -0.259 NA
HETATM    6  C4  UNL     1      22.753   1.633  50.886  1.00  0.00     0.069 A 
HETATM    7  C5  UNL     1      22.843   2.499  49.815  1.00  0.00     0.035 A 
HETATM    8  C6  UNL     1      23.945   3.323  49.760  1.00  0.00     0.033 A 
HETATM    9  C7  UNL     1      24.859   3.192  50.801  1.00  0.00     0.044 A 
HETATM   10  C8  UNL     1      24.757   2.319  51.867  1.00  0.00     0.046 A 
HETATM   11  C9  UNL     1      23.663   1.512  51.908  1.00  0.00     0.023 A 
HETATM   12  C10 UNL     1      23.495   0.616  52.945  1.00  0.00     0.067 A 
ENDROOT
BRANCH  12  13
HETATM   13  N4  UNL     1      24.463   0.536  53.967  1.00  0.00    -0.354 N 
HETATM   14  H6  UNL     1      24.145   0.842  54.915  1.00  0.00     0.166 HD
BRANCH  13  15
HETATM   15  C11 UNL     1      25.769   0.074  53.713  1.00  0.00     0.034 A 
HETATM   16  C12 UNL     1      25.963  -1.074  52.994  1.00  0.00     0.032 A 
HETATM   17  C13 UNL     1      27.254  -1.501  52.763  1.00  0.00     0.046 A 
HETATM   18  C14 UNL     1      28.354  -0.793  53.242  1.00  0.00     0.138 A 
HETATM   19  F1  UNL     1      29.634  -1.210  53.016  1.00  0.00    -0.204 F 
HETATM   20  C15 UNL     1      28.094   0.357  53.960  1.00  0.00     0.074 A 
HETATM   21 CL2  UNL     1      29.426   1.295  54.591  1.00  0.00    -0.081 Cl
HETATM   22  C16 UNL     1      26.836   0.827  54.220  1.00  0.00     0.056 A 
ENDBRANCH  13  15
ENDBRANCH  12  13
BRANCH   9  23
HETATM   23  N3  UNL     1      25.993   4.039  50.749  1.00  0.00    -0.299 N 
HETATM   24 CL1  UNL     1      26.788   3.597  49.249  1.00  0.00     0.011 Cl
HETATM   25  H4  UNL     1      26.809   4.667  50.741  1.00  0.00     0.180 HD
ENDBRANCH   9  23
TORSDOF 3
ENDMDL
MODEL 2
REMARK VINA RESULT:      -8.7      1.928      4.063
REMARK  3 active torsions:
REMARK  status: ('A' for Active; 'I' for Inactive)
REMARK    1  A    between atoms: C7_9  and  N3_10 
REMARK    2  A    between atoms: C10_14  and  N4_15 
REMARK    3  A    between atoms: N4_15  and  C11_16 
ROOT
HETATM    1  N1  UNL     1      26.913   3.200  50.654  1.00  0.00    -0.191 NA
HETATM    2  C1  UNL     1      25.836   2.796  50.807  1.00  0.00     0.103 C 
HETATM    3  C2  UNL     1      24.524   2.286  50.993  1.00  0.00     0.089 A 
HETATM    4  C3  UNL     1      23.527   2.421  50.050  1.00  0.00     0.142 A 
HETATM    5  N2  UNL     1      22.291   1.928  50.255  1.00  0.00    -0.259 NA
HETATM    6  C4  UNL     1      21.970   1.280  51.391  1.00  0.00     0.069 A 
HETATM    7  C5  UNL     1      20.670   0.824  51.476  1.00  0.00     0.035 A 
HETATM    8  C6  UNL     1      20.309   0.157  52.625  1.00  0.00     0.033 A 
HETATM    9  C7  UNL     1      21.304   0.013  53.588  1.00  0.00     0.044 A 
HETATM   10  C8  UNL     1      22.602   0.476  53.489  1.00  0.00     0.046 A 
HETATM   11  C9  UNL     1      22.944   1.132  52.349  1.00  0.00     0.023 A 
HETATM   12  C10 UNL     1      24.225   1.621  52.181  1.00  0.00     0.067 A 
ENDROOT
BRANCH  12  13
HETATM   13  N4  UNL     1      25.183   1.440  53.199  1.00  0.00    -0.354 N 
HETATM   14  H6  UNL     1      25.119   2.104  54.004  1.00  0.00     0.166 HD
BRANCH  13  15
HETATM   15  C11 UNL     1      26.158   0.427  53.123  1.00  0.00     0.034 A 
HETATM   16  C12 UNL     1      25.803  -0.842  52.751  1.00  0.00     0.032 A 
HETATM   17  C13 UNL     1      26.780  -1.812  52.687  1.00  0.00     0.046 A 
HETATM   18  C14 UNL     1      28.110  -1.530  52.990  1.00  0.00     0.138 A 
HETATM   19  F1  UNL     1      29.082  -2.486  52.929  1.00  0.00    -0.204 F 
HETATM   20  C15 UNL     1      28.407  -0.234  53.359  1.00  0.00     0.074 A 
HETATM   21 CL2  UNL     1      30.054   0.191  53.755  1.00  0.00    -0.081 Cl
HETATM   22  C16 UNL     1      27.479   0.769  53.441  1.00  0.00     0.056 A 
ENDBRANCH  13  15
ENDBRANCH  12  13
BRANCH   9  23
HETATM   23  N3  UNL     1      20.937  -0.673  54.771  1.00  0.00    -0.299 N 
HETATM   24 CL1  UNL     1      22.321  -1.691  55.121  1.00  0.00     0.011 Cl
HETATM   25  H4  UNL     1      20.641  -1.156  55.630  1.00  0.00     0.180 HD
ENDBRANCH   9  23
TORSDOF 3
ENDMDL
MODEL 3
REMARK VINA RESULT:      -8.3      3.325      5.462
REMARK  3 active torsions:
REMARK  status: ('A' for Active; 'I' for Inactive)
REMARK    1  A    between atoms: C7_9  and  N3_10 
REMARK    2  A    between atoms: C10_14  and  N4_15 
REMARK    3  A    between atoms: N4_15  and  C11_16 
ROOT
HETATM    1  N1  UNL     1      26.130  -0.547  54.590  1.00  0.00    -0.191 NA
HETATM    2  C1  UNL     1      24.985  -0.617  54.412  1.00  0.00     0.103 C 
HETATM    3  C2  UNL     1      23.583  -0.686  54.197  1.00  0.00     0.089 A 
HETATM    4  C3  UNL     1      22.717  -1.286  55.086  1.00  0.00     0.142 A 
HETATM    5  N2  UNL     1      21.392  -1.337  54.855  1.00  0.00    -0.259 NA
HETATM    6  C4  UNL     1      20.850  -0.804  53.743  1.00  0.00     0.069 A 
HETATM    7  C5  UNL     1      19.480  -0.924  53.625  1.00  0.00     0.035 A 
HETATM    8  C6  UNL     1      18.893  -0.390  52.500  1.00  0.00     0.033 A 
HETATM    9  C7  UNL     1      19.754   0.219  51.592  1.00  0.00     0.044 A 
HETATM   10  C8  UNL     1      21.125   0.331  51.722  1.00  0.00     0.046 A 
HETATM   11  C9  UNL     1      21.690  -0.201  52.839  1.00  0.00     0.023 A 
HETATM   12  C10 UNL     1      23.055  -0.125  53.035  1.00  0.00     0.067 A 
ENDROOT
BRANCH  12  13
HETATM   13  N4  UNL     1      23.868   0.507  52.072  1.00  0.00    -0.354 N 
HETATM   14  H6  UNL     1      24.459  -0.131  51.492  1.00  0.00     0.166 HD
BRANCH  13  15
HETATM   15  C11 UNL     1      23.874   1.906  51.914  1.00  0.00     0.034 A 
HETATM   16  C12 UNL     1      23.926   2.720  53.013  1.00  0.00     0.032 A 
HETATM   17  C13 UNL     1      23.930   4.087  52.826  1.00  0.00     0.046 A 
HETATM   18  C14 UNL     1      23.883   4.649  51.553  1.00  0.00     0.138 A 
HETATM   19  F1  UNL     1      23.887   6.000  51.361  1.00  0.00    -0.204 F 
HETATM   20  C15 UNL     1      23.832   3.777  50.485  1.00  0.00     0.074 A 
HETATM   21 CL2  UNL     1      23.771   4.413  48.858  1.00  0.00    -0.081 Cl
HETATM   22  C16 UNL     1      23.825   2.415  50.610  1.00  0.00     0.056 A 
ENDBRANCH  13  15
ENDBRANCH  12  13
BRANCH   9  23
HETATM   23  N3  UNL     1      19.155   0.770  50.433  1.00  0.00    -0.299 N 
HETATM   24 CL1  UNL     1      20.515   1.196  49.411  1.00  0.00     0.011 Cl
HETATM   25  H4  UNL     1      18.690   1.167  49.605  1.00  0.00     0.180 HD
ENDBRANCH   9  23
TORSDOF 3
ENDMDL
MODEL 4
REMARK VINA RESULT:      -8.2      2.810      5.355
REMARK  3 active torsions:
REMARK  status: ('A' for Active; 'I' for Inactive)
REMARK    1  A    between atoms: C7_9  and  N3_10 
REMARK    2  A    between atoms: C10_14  and  N4_15 
REMARK    3  A    between atoms: N4_15  and  C11_16 
ROOT
HETATM    1  N1  UNL     1      19.077   0.831  50.868  1.00  0.00    -0.191 NA
HETATM    2  C1  UNL     1      19.808   0.451  51.685  1.00  0.00     0.103 C 
HETATM    3  C2  UNL     1      20.708  -0.026  52.675  1.00  0.00     0.089 A 
HETATM    4  C3  UNL     1      20.291  -0.688  53.811  1.00  0.00     0.142 A 
HETATM    5  N2  UNL     1      21.167  -1.128  54.733  1.00  0.00    -0.259 NA
HETATM    6  C4  UNL     1      22.493  -0.943  54.589  1.00  0.00     0.069 A 
HETATM    7  C5  UNL     1      23.283  -1.442  55.605  1.00  0.00     0.035 A 
HETATM    8  C6  UNL     1      24.645  -1.269  55.490  1.00  0.00     0.033 A 
HETATM    9  C7  UNL     1      25.082  -0.602  54.349  1.00  0.00     0.044 A 
HETATM   10  C8  UNL     1      24.279  -0.107  53.339  1.00  0.00     0.046 A 
HETATM   11  C9  UNL     1      22.937  -0.286  53.467  1.00  0.00     0.023 A 
HETATM   12  C10 UNL     1      22.074   0.183  52.496  1.00  0.00     0.067 A 
ENDROOT
BRANCH  12  13
HETATM   13  N4  UNL     1      22.588   0.850  51.365  1.00  0.00    -0.354 N 
HETATM   14  H6  UNL     1      22.647   0.279  50.491  1.00  0.00     0.166 HD
BRANCH  13  15
HETATM   15  C11 UNL     1      22.991   2.198  51.423  1.00  0.00     0.034 A 
HETATM   16  C12 UNL     1      22.310   3.085  52.213  1.00  0.00     0.032 A 
HETATM   17  C13 UNL     1      22.728   4.399  52.248  1.00  0.00     0.046 A 
HETATM   18  C14 UNL     1      23.821   4.836  51.503  1.00  0.00     0.138 A 
HETATM   19  F1  UNL     1      24.241   6.135  51.534  1.00  0.00    -0.204 F 
HETATM   20  C15 UNL     1      24.467   3.896  50.727  1.00  0.00     0.074 A 
HETATM   21 CL2  UNL     1      25.846   4.375  49.767  1.00  0.00    -0.081 Cl
HETATM   22  C16 UNL     1      24.096   2.581  50.653  1.00  0.00     0.056 A 
ENDBRANCH  13  15
ENDBRANCH  12  13
BRANCH   9  23
HETATM   23  N3  UNL     1      26.481  -0.423  54.226  1.00  0.00    -0.299 N 
HETATM   24 CL1  UNL     1      26.764  -0.449  52.495  1.00  0.00     0.011 Cl
HETATM   25  H4  UNL     1      27.500  -0.292  54.169  1.00  0.00     0.180 HD
ENDBRANCH   9  23
TORSDOF 3
ENDMDL
MODEL 5
REMARK VINA RESULT:      -8.2      3.555      6.311
REMARK  3 active torsions:
REMARK  status: ('A' for Active; 'I' for Inactive)
REMARK    1  A    between atoms: C7_9  and  N3_10 
REMARK    2  A    between atoms: C10_14  and  N4_15 
REMARK    3  A    between atoms: N4_15  and  C11_16 
ROOT
HETATM    1  N1  UNL     1      28.306   2.004  52.702  1.00  0.00    -0.191 NA
HETATM    2  C1  UNL     1      27.405   1.409  53.124  1.00  0.00     0.103 C 
HETATM    3  C2  UNL     1      26.294   0.693  53.645  1.00  0.00     0.089 A 
HETATM    4  C3  UNL     1      26.368  -0.080  54.785  1.00  0.00     0.142 A 
HETATM    5  N2  UNL     1      25.298  -0.747  55.256  1.00  0.00    -0.259 NA
HETATM    6  C4  UNL     1      24.104  -0.692  54.634  1.00  0.00     0.069 A 
HETATM    7  C5  UNL     1      23.089  -1.422  55.218  1.00  0.00     0.035 A 
HETATM    8  C6  UNL     1      21.855  -1.388  54.608  1.00  0.00     0.033 A 
HETATM    9  C7  UNL     1      21.763  -0.612  53.457  1.00  0.00     0.044 A 
HETATM   10  C8  UNL     1      22.789   0.114  52.882  1.00  0.00     0.046 A 
HETATM   11  C9  UNL     1      24.002   0.070  53.496  1.00  0.00     0.023 A 
HETATM   12  C10 UNL     1      25.072   0.772  52.978  1.00  0.00     0.067 A 
ENDROOT
BRANCH  12  13
HETATM   13  N4  UNL     1      24.908   1.538  51.806  1.00  0.00    -0.354 N 
HETATM   14  H6  UNL     1      25.406   1.180  50.959  1.00  0.00     0.166 HD
BRANCH  13  15
HETATM   15  C11 UNL     1      24.124   2.706  51.792  1.00  0.00     0.034 A 
HETATM   16  C12 UNL     1      24.128   3.550  52.870  1.00  0.00     0.032 A 
HETATM   17  C13 UNL     1      23.349   4.686  52.827  1.00  0.00     0.046 A 
HETATM   18  C14 UNL     1      22.564   4.991  51.717  1.00  0.00     0.138 A 
HETATM   19  F1  UNL     1      21.791   6.114  51.667  1.00  0.00    -0.204 F 
HETATM   20  C15 UNL     1      22.601   4.103  50.661  1.00  0.00     0.074 A 
HETATM   21 CL2  UNL     1      21.642   4.422  49.236  1.00  0.00    -0.081 Cl
HETATM   22  C16 UNL     1      23.354   2.961  50.649  1.00  0.00     0.056 A 
ENDBRANCH  13  15
ENDBRANCH  12  13
BRANCH   9  23
HETATM   23  N3  UNL     1      20.496  -0.573  52.826  1.00  0.00    -0.299 N 
HETATM   24 CL1  UNL     1      20.802   0.239  51.302  1.00  0.00     0.011 Cl
HETATM   25  H4  UNL     1      19.561  -0.559  52.395  1.00  0.00     0.180 HD
ENDBRANCH   9  23
TORSDOF 3
ENDMDL
MODEL 6
REMARK VINA RESULT:      -8.0      3.133      5.782
REMARK  3 active torsions:
REMARK  status: ('A' for Active; 'I' for Inactive)
REMARK    1  A    between atoms: C7_9  and  N3_10 
REMARK    2  A    between atoms: C10_14  and  N4_15 
REMARK    3  A    between atoms: N4_15  and  C11_16 
ROOT
HETATM    1  N1  UNL     1      20.693   3.274  51.999  1.00  0.00    -0.191 NA
HETATM    2  C1  UNL     1      21.583   2.599  52.310  1.00  0.00     0.103 C 
HETATM    3  C2  UNL     1      22.680   1.775  52.678  1.00  0.00     0.089 A 
HETATM    4  C3  UNL     1      22.580   0.405  52.800  1.00  0.00     0.142 A 
HETATM    5  N2  UNL     1      23.638  -0.351  53.150  1.00  0.00    -0.259 NA
HETATM    6  C4  UNL     1      24.843   0.196  53.398  1.00  0.00     0.069 A 
HETATM    7  C5  UNL     1      25.844  -0.688  53.748  1.00  0.00     0.035 A 
HETATM    8  C6  UNL     1      27.089  -0.162  54.009  1.00  0.00     0.033 A 
HETATM    9  C7  UNL     1      27.206   1.220  53.890  1.00  0.00     0.044 A 
HETATM   10  C8  UNL     1      26.195   2.094  53.539  1.00  0.00     0.046 A 
HETATM   11  C9  UNL     1      24.971   1.559  53.284  1.00  0.00     0.023 A 
HETATM   12  C10 UNL     1      23.914   2.373  52.928  1.00  0.00     0.067 A 
ENDROOT
BRANCH  12  13
HETATM   13  N4  UNL     1      24.105   3.766  52.827  1.00  0.00    -0.354 N 
HETATM   14  H6  UNL     1      24.169   4.280  53.735  1.00  0.00     0.166 HD
BRANCH  13  15
HETATM   15  C11 UNL     1      24.198   4.410  51.578  1.00  0.00     0.034 A 
HETATM   16  C12 UNL     1      24.798   3.778  50.523  1.00  0.00     0.032 A 
HETATM   17  C13 UNL     1      24.875   4.435  49.313  1.00  0.00     0.046 A 
HETATM   18  C14 UNL     1      24.359   5.718  49.145  1.00  0.00     0.138 A 
HETATM   19  F1  UNL     1      24.432   6.374  47.950  1.00  0.00    -0.204 F 
HETATM   20  C15 UNL     1      23.766   6.303  50.245  1.00  0.00     0.074 A 
HETATM   21 CL2  UNL     1      23.097   7.911  50.107  1.00  0.00    -0.081 Cl
HETATM   22  C16 UNL     1      23.662   5.700  51.469  1.00  0.00     0.056 A 
ENDBRANCH  13  15
ENDBRANCH  12  13
BRANCH   9  23
HETATM   23  N3  UNL     1      28.486   1.766  54.156  1.00  0.00    -0.299 N 
HETATM   24 CL1  UNL     1      29.597   0.476  53.734  1.00  0.00     0.011 Cl
HETATM   25  H4  UNL     1      29.401   2.190  54.360  1.00  0.00     0.180 HD
ENDBRANCH   9  23
TORSDOF 3
ENDMDL
MODEL 7
REMARK VINA RESULT:      -7.9      3.647      6.616
REMARK  3 active torsions:
REMARK  status: ('A' for Active; 'I' for Inactive)
REMARK    1  A    between atoms: C7_9  and  N3_10 
REMARK    2  A    between atoms: C10_14  and  N4_15 
REMARK    3  A    between atoms: N4_15  and  C11_16 
ROOT
HETATM    1  N1  UNL     1      26.769   3.232  50.425  1.00  0.00    -0.191 NA
HETATM    2  C1  UNL     1      26.218   2.465  51.099  1.00  0.00     0.103 C 
HETATM    3  C2  UNL     1      25.544   1.537  51.936  1.00  0.00     0.089 A 
HETATM    4  C3  UNL     1      26.166   0.441  52.494  1.00  0.00     0.142 A 
HETATM    5  N2  UNL     1      25.501  -0.422  53.284  1.00  0.00    -0.259 NA
HETATM    6  C4  UNL     1      24.194  -0.256  53.565  1.00  0.00     0.069 A 
HETATM    7  C5  UNL     1      23.630  -1.211  54.386  1.00  0.00     0.035 A 
HETATM    8  C6  UNL     1      22.295  -1.071  54.694  1.00  0.00     0.033 A 
HETATM    9  C7  UNL     1      21.652   0.030  54.138  1.00  0.00     0.044 A 
HETATM   10  C8  UNL     1      22.229   0.980  53.316  1.00  0.00     0.046 A 
HETATM   11  C9  UNL     1      23.548   0.828  53.022  1.00  0.00     0.023 A 
HETATM   12  C10 UNL     1      24.191   1.739  52.207  1.00  0.00     0.067 A 
ENDROOT
BRANCH  12  13
HETATM   13  N4  UNL     1      23.476   2.833  51.677  1.00  0.00    -0.354 N 
HETATM   14  H6  UNL     1      23.290   3.617  52.344  1.00  0.00     0.166 HD
BRANCH  13  15
HETATM   15  C11 UNL     1      23.046   2.854  50.337  1.00  0.00     0.034 A 
HETATM   16  C12 UNL     1      22.519   1.726  49.767  1.00  0.00     0.032 A 
HETATM   17  C13 UNL     1      22.108   1.778  48.452  1.00  0.00     0.046 A 
HETATM   18  C14 UNL     1      22.216   2.945  47.699  1.00  0.00     0.138 A 
HETATM   19  F1  UNL     1      21.811   3.004  46.397  1.00  0.00    -0.204 F 
HETATM   20  C15 UNL     1      22.755   4.049  48.328  1.00  0.00     0.074 A 
HETATM   21 CL2  UNL     1      22.921   5.547  47.444  1.00  0.00    -0.081 Cl
HETATM   22  C16 UNL     1      23.180   4.055  49.629  1.00  0.00     0.056 A 
ENDBRANCH  13  15
ENDBRANCH  12  13
BRANCH   9  23
HETATM   23  N3  UNL     1      20.279   0.180  54.452  1.00  0.00    -0.299 N 
HETATM   24 CL1  UNL     1      19.456  -0.134  52.935  1.00  0.00     0.011 Cl
HETATM   25  H4  UNL     1      19.290   0.296  54.712  1.00  0.00     0.180 HD
ENDBRANCH   9  23
TORSDOF 3
ENDMDL
MODEL 8
REMARK VINA RESULT:      -7.8      2.858      5.624
REMARK  3 active torsions:
REMARK  status: ('A' for Active; 'I' for Inactive)
REMARK    1  A    between atoms: C7_9  and  N3_10 
REMARK    2  A    between atoms: C10_14  and  N4_15 
REMARK    3  A    between atoms: N4_15  and  C11_16 
ROOT
HETATM    1  N1  UNL     1      21.663   4.568  49.629  1.00  0.00    -0.191 NA
HETATM    2  C1  UNL     1      22.081   3.705  50.282  1.00  0.00     0.103 C 
HETATM    3  C2  UNL     1      22.606   2.648  51.072  1.00  0.00     0.089 A 
HETATM    4  C3  UNL     1      22.031   1.395  51.125  1.00  0.00     0.142 A 
HETATM    5  N2  UNL     1      22.551   0.412  51.883  1.00  0.00    -0.259 NA
HETATM    6  C4  UNL     1      23.657   0.606  52.626  1.00  0.00     0.069 A 
HETATM    7  C5  UNL     1      24.087  -0.482  53.359  1.00  0.00     0.035 A 
HETATM    8  C6  UNL     1      25.216  -0.319  54.130  1.00  0.00     0.033 A 
HETATM    9  C7  UNL     1      25.808   0.940  54.088  1.00  0.00     0.044 A 
HETATM   10  C8  UNL     1      25.366   2.021  53.349  1.00  0.00     0.046 A 
HETATM   11  C9  UNL     1      24.251   1.844  52.592  1.00  0.00     0.023 A 
HETATM   12  C10 UNL     1      23.753   2.881  51.829  1.00  0.00     0.067 A 
ENDROOT
BRANCH  12  13
HETATM   13  N4  UNL     1      24.404   4.132  51.834  1.00  0.00    -0.354 N 
HETATM   14  H6  UNL     1      24.202   4.744  52.658  1.00  0.00     0.166 HD
BRANCH  13  15
HETATM   15  C11 UNL     1      25.267   4.519  50.791  1.00  0.00     0.034 A 
HETATM   16  C12 UNL     1      26.157   3.620  50.267  1.00  0.00     0.032 A 
HETATM   17  C13 UNL     1      26.989   4.030  49.247  1.00  0.00     0.046 A 
HETATM   18  C14 UNL     1      26.943   5.328  48.744  1.00  0.00     0.138 A 
HETATM   19  F1  UNL     1      27.764   5.739  47.734  1.00  0.00    -0.204 F 
HETATM   20  C15 UNL     1      26.026   6.188  49.312  1.00  0.00     0.074 A 
HETATM   21 CL2  UNL     1      25.913   7.831  48.731  1.00  0.00    -0.081 Cl
HETATM   22  C16 UNL     1      25.176   5.837  50.326  1.00  0.00     0.056 A 
ENDBRANCH  13  15
ENDBRANCH  12  13
BRANCH   9  23
HETATM   23  N3  UNL     1      26.970   1.113  54.878  1.00  0.00    -0.299 N 
HETATM   24 CL1  UNL     1      28.123  -0.019  54.196  1.00  0.00     0.011 Cl
HETATM   25  H4  UNL     1      27.798   1.261  55.471  1.00  0.00     0.180 HD
ENDBRANCH   9  23
TORSDOF 3
ENDMDL
MODEL 9
REMARK VINA RESULT:      -7.7      3.112      5.825
REMARK  3 active torsions:
REMARK  status: ('A' for Active; 'I' for Inactive)
REMARK    1  A    between atoms: C7_9  and  N3_10 
REMARK    2  A    between atoms: C10_14  and  N4_15 
REMARK    3  A    between atoms: N4_15  and  C11_16 
ROOT
HETATM    1  N1  UNL     1      19.810   1.605  51.879  1.00  0.00    -0.191 NA
HETATM    2  C1  UNL     1      20.845   1.260  52.274  1.00  0.00     0.103 C 
HETATM    3  C2  UNL     1      22.117   0.839  52.743  1.00  0.00     0.089 A 
HETATM    4  C3  UNL     1      22.380  -0.455  53.140  1.00  0.00     0.142 A 
HETATM    5  N2  UNL     1      23.596  -0.826  53.581  1.00  0.00    -0.259 NA
HETATM    6  C4  UNL     1      24.615   0.052  53.656  1.00  0.00     0.069 A 
HETATM    7  C5  UNL     1      25.811  -0.454  54.125  1.00  0.00     0.035 A 
HETATM    8  C6  UNL     1      26.873   0.417  54.215  1.00  0.00     0.033 A 
HETATM    9  C7  UNL     1      26.625   1.728  53.819  1.00  0.00     0.044 A 
HETATM   10  C8  UNL     1      25.422   2.221  53.351  1.00  0.00     0.046 A 
HETATM   11  C9  UNL     1      24.382   1.349  53.268  1.00  0.00     0.023 A 
HETATM   12  C10 UNL     1      23.150   1.773  52.809  1.00  0.00     0.067 A 
ENDROOT
BRANCH  12  13
HETATM   13  N4  UNL     1      22.970   3.117  52.424  1.00  0.00    -0.354 N 
HETATM   14  H6  UNL     1      22.884   3.804  53.208  1.00  0.00     0.166 HD
BRANCH  13  15
HETATM   15  C11 UNL     1      22.909   3.496  51.070  1.00  0.00     0.034 A 
HETATM   16  C12 UNL     1      23.656   2.828  50.136  1.00  0.00     0.032 A 
HETATM   17  C13 UNL     1      23.576   3.223  48.817  1.00  0.00     0.046 A 
HETATM   18  C14 UNL     1      22.758   4.278  48.420  1.00  0.00     0.138 A 
HETATM   19  F1  UNL     1      22.674   4.674  47.116  1.00  0.00    -0.204 F 
HETATM   20  C15 UNL     1      22.029   4.912  49.406  1.00  0.00     0.074 A 
HETATM   21 CL2  UNL     1      20.982   6.244  48.979  1.00  0.00    -0.081 Cl
HETATM   22  C16 UNL     1      22.069   4.564  50.728  1.00  0.00     0.056 A 
ENDBRANCH  13  15
ENDBRANCH  12  13
BRANCH   9  23
HETATM   23  N3  UNL     1      27.715   2.627  53.908  1.00  0.00    -0.299 N 
HETATM   24 CL1  UNL     1      29.107   1.588  54.151  1.00  0.00     0.011 Cl
HETATM   25  H4  UNL     1      28.487   3.306  53.969  1.00  0.00     0.180 HD
ENDBRANCH   9  23
TORSDOF 3
ENDMDL
