MODEL 1
REMARK VINA RESULT:      -8.8      0.000      0.000
REMARK  2 active torsions:
REMARK  status: ('A' for Active; 'I' for Inactive)
REMARK    1  A    between atoms: C10_14  and  C11_15 
REMARK    2  A    between atoms: C11_15  and  C12_16 
ROOT
HETATM    1  C1  UNL     1      21.820  -1.832  53.852  1.00  0.00     0.018 C 
HETATM    2  C2  UNL     1      21.827  -0.707  53.434  1.00  0.00    -0.078 C 
HETATM    3  C3  UNL     1      21.829   0.624  52.916  1.00  0.00     0.018 C 
HETATM    4  C4  UNL     1      20.733   1.341  53.104  1.00  0.00     0.022 C 
HETATM    5  C5  UNL     1      20.418   2.710  52.708  1.00  0.00     0.019 C 
HETATM    6  C6  UNL     1      21.343   3.616  52.307  1.00  0.00     0.098 C 
HETATM    7  N1  UNL     1      22.790   3.485  52.168  1.00  0.00    -0.318 N 
HETATM    8  C7  UNL     1      23.224   4.866  52.424  1.00  0.00     0.215 C 
HETATM    9  N2  UNL     1      23.413   4.675  51.170  1.00  0.00    -0.237 NA
HETATM   10  C8  UNL     1      23.934   5.624  50.277  1.00  0.00     0.229 C 
HETATM   11  N3  UNL     1      24.803   5.287  49.443  1.00  0.00    -0.264 NA
HETATM   12  C9  UNL     1      25.342   3.993  49.290  1.00  0.00     0.267 C 
HETATM   13  N4  UNL     1      24.941   2.861  49.894  1.00  0.00    -0.395 N 
HETATM   14  C10 UNL     1      24.811   2.318  51.122  1.00  0.00     0.129 C 
HETATM   15  C19 UNL     1      23.509   2.285  51.858  1.00  0.00     0.041 C 
HETATM   16  C20 UNL     1      23.024   1.083  52.215  1.00  0.00     0.048 C 
HETATM   17  H9  UNL     1      24.370   2.277  49.146  1.00  0.00     0.155 HD
ENDROOT
BRANCH  14  18
HETATM   18  C11 UNL     1      25.909   2.318  52.136  1.00  0.00     0.040 C 
BRANCH  18  19
HETATM   19  C12 UNL     1      26.904   1.256  52.214  1.00  0.00     0.022 C 
HETATM   20  C13 UNL     1      26.523  -0.132  52.109  1.00  0.00     0.048 C 
HETATM   21  C14 UNL     1      26.051  -0.865  53.102  1.00  0.00    -0.020 C 
HETATM   22  C15 UNL     1      26.118  -0.294  54.293  1.00  0.00    -0.020 C 
HETATM   23  C16 UNL     1      27.212   0.648  54.577  1.00  0.00    -0.001 C 
HETATM   24  C17 UNL     1      27.606   1.412  53.570  1.00  0.00    -0.079 C 
HETATM   25  C18 UNL     1      28.712   2.376  53.832  1.00  0.00     0.044 C 
ENDBRANCH  18  19
ENDBRANCH  14  18
TORSDOF 2
ENDMDL
MODEL 2
REMARK VINA RESULT:      -8.0      2.237      5.027
REMARK  2 active torsions:
REMARK  status: ('A' for Active; 'I' for Inactive)
REMARK    1  A    between atoms: C10_14  and  C11_15 
REMARK    2  A    between atoms: C11_15  and  C12_16 
ROOT
HETATM    1  C1  UNL     1      18.700   1.870  51.717  1.00  0.00     0.018 C 
HETATM    2  C2  UNL     1      19.664   1.408  52.262  1.00  0.00    -0.078 C 
HETATM    3  C3  UNL     1      20.811   0.875  52.928  1.00  0.00     0.018 C 
HETATM    4  C4  UNL     1      20.614  -0.175  53.709  1.00  0.00     0.022 C 
HETATM    5  C5  UNL     1      21.556  -0.945  54.515  1.00  0.00     0.019 C 
HETATM    6  C6  UNL     1      22.903  -0.884  54.372  1.00  0.00     0.098 C 
HETATM    7  N1  UNL     1      23.718  -0.096  53.453  1.00  0.00    -0.318 N 
HETATM    8  C7  UNL     1      24.891  -0.967  53.298  1.00  0.00     0.215 C 
HETATM    9  N2  UNL     1      25.296   0.030  53.997  1.00  0.00    -0.237 NA
HETATM   10  C8  UNL     1      26.601   0.202  54.481  1.00  0.00     0.229 C 
HETATM   11  N3  UNL     1      27.159   1.318  54.392  1.00  0.00    -0.264 NA
HETATM   12  C9  UNL     1      26.593   2.482  53.833  1.00  0.00     0.267 C 
HETATM   13  N4  UNL     1      25.324   2.662  53.425  1.00  0.00    -0.395 N 
HETATM   14  C10 UNL     1      24.432   2.182  52.535  1.00  0.00     0.129 C 
HETATM   15  C19 UNL     1      23.380   1.184  52.902  1.00  0.00     0.041 C 
HETATM   16  C20 UNL     1      22.096   1.529  52.708  1.00  0.00     0.048 C 
HETATM   17  H9  UNL     1      24.817   3.270  54.199  1.00  0.00     0.155 HD
ENDROOT
BRANCH  14  18
HETATM   18  C11 UNL     1      24.738   2.008  51.082  1.00  0.00     0.040 C 
BRANCH  18  19
HETATM   19  C12 UNL     1      24.627   3.099  50.122  1.00  0.00     0.022 C 
HETATM   20  C13 UNL     1      24.922   4.460  50.502  1.00  0.00     0.048 C 
HETATM   21  C14 UNL     1      24.082   5.272  51.120  1.00  0.00    -0.020 C 
HETATM   22  C15 UNL     1      22.844   4.821  51.215  1.00  0.00    -0.020 C 
HETATM   23  C16 UNL     1      22.316   3.940  50.162  1.00  0.00    -0.001 C 
HETATM   24  C17 UNL     1      23.177   3.093  49.618  1.00  0.00    -0.079 C 
HETATM   25  C18 UNL     1      22.667   2.189  48.549  1.00  0.00     0.044 C 
ENDBRANCH  18  19
ENDBRANCH  14  18
TORSDOF 2
ENDMDL
MODEL 3
REMARK VINA RESULT:      -7.8      1.661      5.089
REMARK  2 active torsions:
REMARK  status: ('A' for Active; 'I' for Inactive)
REMARK    1  A    between atoms: C10_14  and  C11_15 
REMARK    2  A    between atoms: C11_15  and  C12_16 
ROOT
HETATM    1  C1  UNL     1      22.900  -1.163  54.410  1.00  0.00     0.018 C 
HETATM    2  C2  UNL     1      23.558  -0.375  53.789  1.00  0.00    -0.078 C 
HETATM    3  C3  UNL     1      24.345   0.577  53.070  1.00  0.00     0.018 C 
HETATM    4  C4  UNL     1      25.613   0.263  52.855  1.00  0.00     0.022 C 
HETATM    5  C5  UNL     1      26.666   1.000  52.165  1.00  0.00     0.019 C 
HETATM    6  C6  UNL     1      26.441   2.055  51.345  1.00  0.00     0.098 C 
HETATM    7  N1  UNL     1      25.189   2.698  50.959  1.00  0.00    -0.318 N 
HETATM    8  C7  UNL     1      25.529   3.198  49.620  1.00  0.00     0.215 C 
HETATM    9  N2  UNL     1      25.456   4.240  50.365  1.00  0.00    -0.237 NA
HETATM   10  C8  UNL     1      25.663   5.559  49.934  1.00  0.00     0.229 C 
HETATM   11  N3  UNL     1      24.884   6.466  50.302  1.00  0.00    -0.264 NA
HETATM   12  C9  UNL     1      23.766   6.303  51.145  1.00  0.00     0.267 C 
HETATM   13  N4  UNL     1      23.404   5.199  51.822  1.00  0.00    -0.395 N 
HETATM   14  C10 UNL     1      23.039   3.917  51.617  1.00  0.00     0.129 C 
HETATM   15  C19 UNL     1      23.995   2.774  51.748  1.00  0.00     0.041 C 
HETATM   16  C20 UNL     1      23.702   1.815  52.643  1.00  0.00     0.048 C 
HETATM   17  H9  UNL     1      23.677   5.364  52.882  1.00  0.00     0.155 HD
ENDROOT
BRANCH  14  18
HETATM   18  C11 UNL     1      21.975   3.515  50.648  1.00  0.00     0.040 C 
BRANCH  18  19
HETATM   19  C12 UNL     1      20.585   3.330  51.042  1.00  0.00     0.022 C 
HETATM   20  C13 UNL     1      20.241   2.837  52.354  1.00  0.00     0.048 C 
HETATM   21  C14 UNL     1      20.232   1.563  52.706  1.00  0.00    -0.020 C 
HETATM   22  C15 UNL     1      20.383   0.711  51.706  1.00  0.00    -0.020 C 
HETATM   23  C16 UNL     1      19.878   1.072  50.372  1.00  0.00    -0.001 C 
HETATM   24  C17 UNL     1      19.970   2.348  50.034  1.00  0.00    -0.079 C 
HETATM   25  C18 UNL     1      19.466   2.739  48.688  1.00  0.00     0.044 C 
ENDBRANCH  18  19
ENDBRANCH  14  18
TORSDOF 2
ENDMDL
MODEL 4
REMARK VINA RESULT:      -7.8      2.201      4.879
REMARK  2 active torsions:
REMARK  status: ('A' for Active; 'I' for Inactive)
REMARK    1  A    between atoms: C10_14  and  C11_15 
REMARK    2  A    between atoms: C11_15  and  C12_16 
ROOT
HETATM    1  C1  UNL     1      26.317   4.624  49.532  1.00  0.00     0.018 C 
HETATM    2  C2  UNL     1      25.266   4.058  49.651  1.00  0.00    -0.078 C 
HETATM    3  C3  UNL     1      24.007   3.401  49.807  1.00  0.00     0.018 C 
HETATM    4  C4  UNL     1      23.121   3.567  48.838  1.00  0.00     0.022 C 
HETATM    5  C5  UNL     1      21.768   3.042  48.693  1.00  0.00     0.019 C 
HETATM    6  C6  UNL     1      21.268   2.018  49.427  1.00  0.00     0.098 C 
HETATM    7  N1  UNL     1      21.891   1.225  50.482  1.00  0.00    -0.318 N 
HETATM    8  C7  UNL     1      21.184  -0.054  50.328  1.00  0.00     0.215 C 
HETATM    9  N2  UNL     1      20.740   0.453  51.420  1.00  0.00    -0.237 NA
HETATM   10  C8  UNL     1      19.780  -0.140  52.255  1.00  0.00     0.229 C 
HETATM   11  N3  UNL     1      19.949  -0.145  53.494  1.00  0.00    -0.264 NA
HETATM   12  C9  UNL     1      21.049   0.408  54.181  1.00  0.00     0.267 C 
HETATM   13  N4  UNL     1      22.041   1.158  53.669  1.00  0.00    -0.395 N 
HETATM   14  C10 UNL     1      23.039   1.100  52.764  1.00  0.00     0.129 C 
HETATM   15  C19 UNL     1      22.913   1.665  51.385  1.00  0.00     0.041 C 
HETATM   16  C20 UNL     1      23.791   2.614  51.017  1.00  0.00     0.048 C 
HETATM   17  H9  UNL     1      21.840   2.206  53.964  1.00  0.00     0.155 HD
ENDROOT
BRANCH  14  18
HETATM   18  C11 UNL     1      24.031  -0.017  52.711  1.00  0.00     0.040 C 
BRANCH  18  19
HETATM   19  C12 UNL     1      25.246  -0.025  53.515  1.00  0.00     0.022 C 
HETATM   20  C13 UNL     1      25.742   1.184  54.128  1.00  0.00     0.048 C 
HETATM   21  C14 UNL     1      26.470   2.100  53.516  1.00  0.00    -0.020 C 
HETATM   22  C15 UNL     1      26.896   1.756  52.313  1.00  0.00    -0.020 C 
HETATM   23  C16 UNL     1      27.168   0.339  52.024  1.00  0.00    -0.001 C 
HETATM   24  C17 UNL     1      26.370  -0.542  52.605  1.00  0.00    -0.079 C 
HETATM   25  C18 UNL     1      26.624  -1.984  52.330  1.00  0.00     0.044 C 
ENDBRANCH  18  19
ENDBRANCH  14  18
TORSDOF 2
ENDMDL
MODEL 5
REMARK VINA RESULT:      -7.7      2.233      5.112
REMARK  2 active torsions:
REMARK  status: ('A' for Active; 'I' for Inactive)
REMARK    1  A    between atoms: C10_14  and  C11_15 
REMARK    2  A    between atoms: C11_15  and  C12_16 
ROOT
HETATM    1  C1  UNL     1      23.036  -0.961  54.328  1.00  0.00     0.018 C 
HETATM    2  C2  UNL     1      23.737  -0.206  53.714  1.00  0.00    -0.078 C 
HETATM    3  C3  UNL     1      24.576   0.707  53.001  1.00  0.00     0.018 C 
HETATM    4  C4  UNL     1      25.840   0.351  52.834  1.00  0.00     0.022 C 
HETATM    5  C5  UNL     1      26.936   1.042  52.163  1.00  0.00     0.019 C 
HETATM    6  C6  UNL     1      26.769   2.086  51.315  1.00  0.00     0.098 C 
HETATM    7  N1  UNL     1      25.550   2.757  50.876  1.00  0.00    -0.318 N 
HETATM    8  C7  UNL     1      25.947   3.218  49.539  1.00  0.00     0.215 C 
HETATM    9  N2  UNL     1      25.881   4.277  50.260  1.00  0.00    -0.237 NA
HETATM   10  C8  UNL     1      26.142   5.580  49.810  1.00  0.00     0.229 C 
HETATM   11  N3  UNL     1      25.379   6.517  50.133  1.00  0.00    -0.264 NA
HETATM   12  C9  UNL     1      24.231   6.405  50.942  1.00  0.00     0.267 C 
HETATM   13  N4  UNL     1      23.814   5.327  51.630  1.00  0.00    -0.395 N 
HETATM   14  C10 UNL     1      23.418   4.052  51.440  1.00  0.00     0.129 C 
HETATM   15  C19 UNL     1      24.334   2.884  51.625  1.00  0.00     0.041 C 
HETATM   16  C20 UNL     1      23.984   1.953  52.529  1.00  0.00     0.048 C 
HETATM   17  H9  UNL     1      24.058   5.507  52.695  1.00  0.00     0.155 HD
ENDROOT
BRANCH  14  18
HETATM   18  C11 UNL     1      22.373   3.660  50.444  1.00  0.00     0.040 C 
BRANCH  18  19
HETATM   19  C12 UNL     1      22.552   2.552  49.516  1.00  0.00     0.022 C 
HETATM   20  C13 UNL     1      22.636   2.777  48.093  1.00  0.00     0.048 C 
HETATM   21  C14 UNL     1      21.599   2.935  47.288  1.00  0.00    -0.020 C 
HETATM   22  C15 UNL     1      20.425   2.685  47.842  1.00  0.00    -0.020 C 
HETATM   23  C16 UNL     1      20.335   1.677  48.911  1.00  0.00    -0.001 C 
HETATM   24  C17 UNL     1      21.367   1.601  49.736  1.00  0.00    -0.079 C 
HETATM   25  C18 UNL     1      21.300   0.588  50.827  1.00  0.00     0.044 C 
ENDBRANCH  18  19
ENDBRANCH  14  18
TORSDOF 2
ENDMDL
MODEL 6
REMARK VINA RESULT:      -7.6      1.671      4.982
REMARK  2 active torsions:
REMARK  status: ('A' for Active; 'I' for Inactive)
REMARK    1  A    between atoms: C10_14  and  C11_15 
REMARK    2  A    between atoms: C11_15  and  C12_16 
ROOT
HETATM    1  C1  UNL     1      26.399   0.519  54.744  1.00  0.00     0.018 C 
HETATM    2  C2  UNL     1      26.120   1.194  53.792  1.00  0.00    -0.078 C 
HETATM    3  C3  UNL     1      25.796   2.017  52.669  1.00  0.00     0.018 C 
HETATM    4  C4  UNL     1      26.690   2.079  51.695  1.00  0.00     0.022 C 
HETATM    5  C5  UNL     1      26.666   2.813  50.435  1.00  0.00     0.019 C 
HETATM    6  C6  UNL     1      25.549   3.359  49.896  1.00  0.00     0.098 C 
HETATM    7  N1  UNL     1      24.175   3.368  50.386  1.00  0.00    -0.318 N 
HETATM    8  C7  UNL     1      23.424   3.424  49.124  1.00  0.00     0.215 C 
HETATM    9  N2  UNL     1      23.279   4.581  49.660  1.00  0.00    -0.237 NA
HETATM   10  C8  UNL     1      22.541   5.640  49.110  1.00  0.00     0.229 C 
HETATM   11  N3  UNL     1      21.773   6.310  49.836  1.00  0.00    -0.264 NA
HETATM   12  C9  UNL     1      21.559   6.111  51.215  1.00  0.00     0.267 C 
HETATM   13  N4  UNL     1      22.223   5.279  52.037  1.00  0.00    -0.395 N 
HETATM   14  C10 UNL     1      22.486   3.968  52.211  1.00  0.00     0.129 C 
HETATM   15  C19 UNL     1      23.762   3.332  51.758  1.00  0.00     0.041 C 
HETATM   16  C20 UNL     1      24.523   2.729  52.688  1.00  0.00     0.048 C 
HETATM   17  H9  UNL     1      22.912   5.901  52.641  1.00  0.00     0.155 HD
ENDROOT
BRANCH  14  18
HETATM   18  C11 UNL     1      21.426   2.914  52.211  1.00  0.00     0.040 C 
BRANCH  18  19
HETATM   19  C12 UNL     1      21.629   1.597  51.621  1.00  0.00     0.022 C 
HETATM   20  C13 UNL     1      20.898   1.185  50.447  1.00  0.00     0.048 C 
HETATM   21  C14 UNL     1      19.669   0.700  50.453  1.00  0.00    -0.020 C 
HETATM   22  C15 UNL     1      19.186   0.426  51.653  1.00  0.00    -0.020 C 
HETATM   23  C16 UNL     1      20.108   0.008  52.720  1.00  0.00    -0.001 C 
HETATM   24  C17 UNL     1      21.306   0.572  52.717  1.00  0.00    -0.079 C 
HETATM   25  C18 UNL     1      22.259   0.165  53.787  1.00  0.00     0.044 C 
ENDBRANCH  18  19
ENDBRANCH  14  18
TORSDOF 2
ENDMDL
MODEL 7
REMARK VINA RESULT:      -7.6      2.445      5.615
REMARK  2 active torsions:
REMARK  status: ('A' for Active; 'I' for Inactive)
REMARK    1  A    between atoms: C10_14  and  C11_15 
REMARK    2  A    between atoms: C11_15  and  C12_16 
ROOT
HETATM    1  C1  UNL     1      27.434   1.364  52.676  1.00  0.00     0.018 C 
HETATM    2  C2  UNL     1      26.367   0.908  52.977  1.00  0.00    -0.078 C 
HETATM    3  C3  UNL     1      25.097   0.347  53.319  1.00  0.00     0.018 C 
HETATM    4  C4  UNL     1      25.077  -0.530  54.309  1.00  0.00     0.022 C 
HETATM    5  C5  UNL     1      23.965  -1.272  54.895  1.00  0.00     0.019 C 
HETATM    6  C6  UNL     1      22.660  -0.961  54.700  1.00  0.00     0.098 C 
HETATM    7  N1  UNL     1      22.054   0.108  53.913  1.00  0.00    -0.318 N 
HETATM    8  C7  UNL     1      20.810   0.338  54.660  1.00  0.00     0.215 C 
HETATM    9  N2  UNL     1      20.452  -0.228  53.565  1.00  0.00    -0.237 NA
HETATM   10  C8  UNL     1      19.130  -0.535  53.208  1.00  0.00     0.229 C 
HETATM   11  N3  UNL     1      18.723  -0.293  52.050  1.00  0.00    -0.264 NA
HETATM   12  C9  UNL     1      19.484   0.281  51.011  1.00  0.00     0.267 C 
HETATM   13  N4  UNL     1      20.803   0.544  51.009  1.00  0.00    -0.395 N 
HETATM   14  C10 UNL     1      21.726   1.279  51.663  1.00  0.00     0.129 C 
HETATM   15  C19 UNL     1      22.602   0.710  52.733  1.00  0.00     0.041 C 
HETATM   16  C20 UNL     1      23.932   0.773  52.550  1.00  0.00     0.048 C 
HETATM   17  H9  UNL     1      21.289  -0.237  50.393  1.00  0.00     0.155 HD
ENDROOT
BRANCH  14  18
HETATM   18  C11 UNL     1      21.566   2.741  51.932  1.00  0.00     0.040 C 
BRANCH  18  19
HETATM   19  C12 UNL     1      21.882   3.760  50.940  1.00  0.00     0.022 C 
HETATM   20  C13 UNL     1      21.966   3.433  49.537  1.00  0.00     0.048 C 
HETATM   21  C14 UNL     1      23.024   2.907  48.944  1.00  0.00    -0.020 C 
HETATM   22  C15 UNL     1      24.113   2.861  49.693  1.00  0.00    -0.020 C 
HETATM   23  C16 UNL     1      24.326   3.898  50.715  1.00  0.00    -0.001 C 
HETATM   24  C17 UNL     1      23.245   4.346  51.332  1.00  0.00    -0.079 C 
HETATM   25  C18 UNL     1      23.434   5.397  52.372  1.00  0.00     0.044 C 
ENDBRANCH  18  19
ENDBRANCH  14  18
TORSDOF 2
ENDMDL
MODEL 8
REMARK VINA RESULT:      -7.5      2.365      6.625
REMARK  2 active torsions:
REMARK  status: ('A' for Active; 'I' for Inactive)
REMARK    1  A    between atoms: C10_14  and  C11_15 
REMARK    2  A    between atoms: C11_15  and  C12_16 
ROOT
HETATM    1  C1  UNL     1      27.463   5.115  48.583  1.00  0.00     0.018 C 
HETATM    2  C2  UNL     1      26.843   4.304  49.213  1.00  0.00    -0.078 C 
HETATM    3  C3  UNL     1      26.105   3.322  49.944  1.00  0.00     0.018 C 
HETATM    4  C4  UNL     1      26.792   2.555  50.776  1.00  0.00     0.022 C 
HETATM    5  C5  UNL     1      26.349   1.479  51.656  1.00  0.00     0.019 C 
HETATM    6  C6  UNL     1      25.055   1.260  51.994  1.00  0.00     0.098 C 
HETATM    7  N1  UNL     1      23.845   1.976  51.602  1.00  0.00    -0.318 N 
HETATM    8  C7  UNL     1      22.992   1.755  52.778  1.00  0.00     0.215 C 
HETATM    9  N2  UNL     1      22.480   1.040  51.844  1.00  0.00    -0.237 NA
HETATM   10  C8  UNL     1      21.337   0.236  51.976  1.00  0.00     0.229 C 
HETATM   11  N3  UNL     1      20.460   0.245  51.084  1.00  0.00    -0.264 NA
HETATM   12  C9  UNL     1      20.494   1.009  49.901  1.00  0.00     0.267 C 
HETATM   13  N4  UNL     1      21.514   1.753  49.434  1.00  0.00    -0.395 N 
HETATM   14  C10 UNL     1      22.273   2.816  49.767  1.00  0.00     0.129 C 
HETATM   15  C19 UNL     1      23.635   2.679  50.370  1.00  0.00     0.041 C 
HETATM   16  C20 UNL     1      24.668   3.232  49.712  1.00  0.00     0.048 C 
HETATM   17  H9  UNL     1      21.978   1.183  48.605  1.00  0.00     0.155 HD
ENDROOT
BRANCH  14  18
HETATM   18  C11 UNL     1      21.701   4.119  50.223  1.00  0.00     0.040 C 
BRANCH  18  19
HETATM   19  C12 UNL     1      21.294   5.165  49.293  1.00  0.00     0.022 C 
HETATM   20  C13 UNL     1      21.526   5.032  47.875  1.00  0.00     0.048 C 
HETATM   21  C14 UNL     1      22.667   5.304  47.265  1.00  0.00    -0.020 C 
HETATM   22  C15 UNL     1      23.571   5.902  48.023  1.00  0.00    -0.020 C 
HETATM   23  C16 UNL     1      23.126   6.795  49.104  1.00  0.00    -0.001 C 
HETATM   24  C17 UNL     1      22.014   6.447  49.733  1.00  0.00    -0.079 C 
HETATM   25  C18 UNL     1      21.542   7.335  50.833  1.00  0.00     0.044 C 
ENDBRANCH  18  19
ENDBRANCH  14  18
TORSDOF 2
ENDMDL
MODEL 9
REMARK VINA RESULT:      -7.5      2.438      5.048
REMARK  2 active torsions:
REMARK  status: ('A' for Active; 'I' for Inactive)
REMARK    1  A    between atoms: C10_14  and  C11_15 
REMARK    2  A    between atoms: C11_15  and  C12_16 
ROOT
HETATM    1  C1  UNL     1      26.339  -0.882  53.575  1.00  0.00     0.018 C 
HETATM    2  C2  UNL     1      25.185  -0.572  53.461  1.00  0.00    -0.078 C 
HETATM    3  C3  UNL     1      23.807  -0.223  53.313  1.00  0.00     0.018 C 
HETATM    4  C4  UNL     1      23.002  -0.527  54.318  1.00  0.00     0.022 C 
HETATM    5  C5  UNL     1      21.568  -0.309  54.481  1.00  0.00     0.019 C 
HETATM    6  C6  UNL     1      20.837   0.533  53.711  1.00  0.00     0.098 C 
HETATM    7  N1  UNL     1      21.243   1.383  52.597  1.00  0.00    -0.318 N 
HETATM    8  C7  UNL     1      20.271   2.479  52.708  1.00  0.00     0.215 C 
HETATM    9  N2  UNL     1      19.929   1.824  51.659  1.00  0.00    -0.237 NA
HETATM   10  C8  UNL     1      18.844   2.139  50.826  1.00  0.00     0.229 C 
HETATM   11  N3  UNL     1      18.982   2.110  49.583  1.00  0.00    -0.264 NA
HETATM   12  C9  UNL     1      20.164   1.778  48.891  1.00  0.00     0.267 C 
HETATM   13  N4  UNL     1      21.309   1.299  49.407  1.00  0.00    -0.395 N 
HETATM   14  C10 UNL     1      22.287   1.630  50.275  1.00  0.00     0.129 C 
HETATM   15  C19 UNL     1      22.320   1.131  51.685  1.00  0.00     0.041 C 
HETATM   16  C20 UNL     1      23.395   0.425  52.072  1.00  0.00     0.048 C 
HETATM   17  H9  UNL     1      21.343   0.217  49.173  1.00  0.00     0.155 HD
ENDROOT
BRANCH  14  18
HETATM   18  C11 UNL     1      23.003   2.942  50.238  1.00  0.00     0.040 C 
BRANCH  18  19
HETATM   19  C12 UNL     1      23.947   3.289  49.184  1.00  0.00     0.022 C 
HETATM   20  C13 UNL     1      25.349   3.477  49.471  1.00  0.00     0.048 C 
HETATM   21  C14 UNL     1      25.883   4.587  49.949  1.00  0.00    -0.020 C 
HETATM   22  C15 UNL     1      25.065   5.625  49.982  1.00  0.00    -0.020 C 
HETATM   23  C16 UNL     1      24.006   5.738  48.967  1.00  0.00    -0.001 C 
HETATM   24  C17 UNL     1      23.451   4.605  48.567  1.00  0.00    -0.079 C 
HETATM   25  C18 UNL     1      22.376   4.692  47.539  1.00  0.00     0.044 C 
ENDBRANCH  18  19
ENDBRANCH  14  18
TORSDOF 2
ENDMDL
