MODEL 1
REMARK VINA RESULT:      -8.0      0.000      0.000
REMARK  3 active torsions:
REMARK  status: ('A' for Active; 'I' for Inactive)
REMARK    1  A    between atoms: C5_5  and  C6_6 
REMARK    2  A    between atoms: C11_12  and  C12_13 
REMARK    3  A    between atoms: C15_16  and  S1_17 
ROOT
HETATM    1  C6  UNL     1      23.865   2.821  51.044  1.00  0.00     0.090 A 
HETATM    2  C7  UNL     1      23.281   2.365  49.864  1.00  0.00     0.058 A 
HETATM    3  C8  UNL     1      22.159   3.321  50.179  1.00  0.00     0.009 A 
HETATM    4  C9  UNL     1      22.735   3.649  51.301  1.00  0.00     0.069 A 
HETATM    5  O1  UNL     1      23.014   4.230  52.575  1.00  0.00    -0.325 OA
HETATM    6  C10 UNL     1      24.139   3.488  53.053  1.00  0.00     0.151 C 
HETATM    7  C11 UNL     1      24.647   2.575  52.181  1.00  0.00    -0.004 C 
ENDROOT
BRANCH   7   8
HETATM    8  C12 UNL     1      25.723   1.671  52.539  1.00  0.00    -0.026 A 
HETATM    9  C13 UNL     1      25.779   0.335  52.204  1.00  0.00     0.013 A 
HETATM   10  C14 UNL     1      26.861  -0.403  52.610  1.00  0.00     0.022 A 
HETATM   11  C15 UNL     1      27.874   0.203  53.346  1.00  0.00     0.031 A 
HETATM   12  C17 UNL     1      27.821   1.540  53.684  1.00  0.00     0.022 A 
HETATM   13  C18 UNL     1      26.724   2.277  53.268  1.00  0.00     0.013 A 
BRANCH  11  14
HETATM   14  S1  UNL     1      29.196  -0.889  53.791  1.00  0.00     0.045 S 
HETATM   15  C16 UNL     1      28.959  -2.541  53.146  1.00  0.00     0.133 C 
HETATM   16  O2  UNL     1      30.521  -0.318  53.349  1.00  0.00    -0.253 OA
ENDBRANCH  11  14
ENDBRANCH   7   8
BRANCH   1  17
HETATM   17  C5  UNL     1      24.927   3.980  50.316  1.00  0.00     0.073 A 
HETATM   18  C4  UNL     1      25.984   3.625  49.519  1.00  0.00     0.037 A 
HETATM   19  C3  UNL     1      26.524   4.844  49.179  1.00  0.00     0.035 A 
HETATM   20  C2  UNL     1      25.802   5.830  49.757  1.00  0.00     0.049 A 
HETATM   21  C1  UNL     1      25.992   7.290  49.687  1.00  0.00     0.076 C 
HETATM   22  O3  UNL     1      24.854   5.285  50.431  1.00  0.00    -0.318 OA
ENDBRANCH   1  17
TORSDOF 3
ENDMDL
MODEL 2
REMARK VINA RESULT:      -7.9      2.345      3.263
REMARK  3 active torsions:
REMARK  status: ('A' for Active; 'I' for Inactive)
REMARK    1  A    between atoms: C5_5  and  C6_6 
REMARK    2  A    between atoms: C11_12  and  C12_13 
REMARK    3  A    between atoms: C15_16  and  S1_17 
ROOT
HETATM    1  C6  UNL     1      21.819   2.530  52.052  1.00  0.00     0.090 A 
HETATM    2  C7  UNL     1      20.620   1.882  52.340  1.00  0.00     0.058 A 
HETATM    3  C8  UNL     1      19.999   3.255  52.322  1.00  0.00     0.009 A 
HETATM    4  C9  UNL     1      21.168   3.795  52.117  1.00  0.00     0.069 A 
HETATM    5  O1  UNL     1      22.223   4.738  51.931  1.00  0.00    -0.325 OA
HETATM    6  C10 UNL     1      23.412   3.952  52.041  1.00  0.00     0.151 C 
HETATM    7  C11 UNL     1      23.213   2.613  52.182  1.00  0.00    -0.004 C 
ENDROOT
BRANCH   7   8
HETATM    8  C12 UNL     1      24.303   1.683  52.404  1.00  0.00    -0.026 A 
HETATM    9  C13 UNL     1      24.214   0.522  53.142  1.00  0.00     0.013 A 
HETATM   10  C14 UNL     1      25.329  -0.267  53.269  1.00  0.00     0.022 A 
HETATM   11  C15 UNL     1      26.518   0.115  52.656  1.00  0.00     0.031 A 
HETATM   12  C17 UNL     1      26.611   1.276  51.917  1.00  0.00     0.022 A 
HETATM   13  C18 UNL     1      25.479   2.065  51.794  1.00  0.00     0.013 A 
BRANCH  11  14
HETATM   14  S1  UNL     1      27.859  -1.012  52.918  1.00  0.00     0.045 S 
HETATM   15  C16 UNL     1      28.984  -0.446  54.190  1.00  0.00     0.133 C 
HETATM   16  O2  UNL     1      27.334  -2.392  53.233  1.00  0.00    -0.253 OA
ENDBRANCH  11  14
ENDBRANCH   7   8
BRANCH   1  17
HETATM   17  C5  UNL     1      21.792   2.267  50.340  1.00  0.00     0.073 A 
HETATM   18  C4  UNL     1      21.684   1.022  49.778  1.00  0.00     0.037 A 
HETATM   19  C3  UNL     1      21.703   1.299  48.430  1.00  0.00     0.035 A 
HETATM   20  C2  UNL     1      21.815   2.633  48.250  1.00  0.00     0.049 A 
HETATM   21  C1  UNL     1      21.877   3.404  46.994  1.00  0.00     0.076 C 
HETATM   22  O3  UNL     1      21.866   3.188  49.407  1.00  0.00    -0.318 OA
ENDBRANCH   1  17
TORSDOF 3
ENDMDL
MODEL 3
REMARK VINA RESULT:      -7.8      3.185      6.671
REMARK  3 active torsions:
REMARK  status: ('A' for Active; 'I' for Inactive)
REMARK    1  A    between atoms: C5_5  and  C6_6 
REMARK    2  A    between atoms: C11_12  and  C12_13 
REMARK    3  A    between atoms: C15_16  and  S1_17 
ROOT
HETATM    1  C6  UNL     1      26.297   0.550  52.599  1.00  0.00     0.090 A 
HETATM    2  C7  UNL     1      26.638  -0.605  51.898  1.00  0.00     0.058 A 
HETATM    3  C8  UNL     1      27.325  -1.041  53.166  1.00  0.00     0.009 A 
HETATM    4  C9  UNL     1      27.026   0.093  53.735  1.00  0.00     0.069 A 
HETATM    5  O1  UNL     1      26.928   1.170  54.666  1.00  0.00    -0.325 OA
HETATM    6  C10 UNL     1      26.387   2.245  53.893  1.00  0.00     0.151 C 
HETATM    7  C11 UNL     1      26.052   1.930  52.613  1.00  0.00    -0.004 C 
ENDROOT
BRANCH   7   8
HETATM    8  C12 UNL     1      25.582   2.921  51.664  1.00  0.00    -0.026 A 
HETATM    9  C13 UNL     1      24.439   3.676  51.808  1.00  0.00     0.013 A 
HETATM   10  C14 UNL     1      24.115   4.580  50.829  1.00  0.00     0.022 A 
HETATM   11  C15 UNL     1      24.940   4.718  49.717  1.00  0.00     0.031 A 
HETATM   12  C17 UNL     1      26.086   3.964  49.569  1.00  0.00     0.022 A 
HETATM   13  C18 UNL     1      26.404   3.055  50.564  1.00  0.00     0.013 A 
BRANCH  11  14
HETATM   14  S1  UNL     1      24.380   5.925  48.548  1.00  0.00     0.045 S 
HETATM   15  C16 UNL     1      22.996   6.878  49.165  1.00  0.00     0.133 C 
HETATM   16  O2  UNL     1      25.519   6.826  48.135  1.00  0.00    -0.253 OA
ENDBRANCH  11  14
ENDBRANCH   7   8
BRANCH   1  17
HETATM   17  C5  UNL     1      24.699   0.056  53.050  1.00  0.00     0.073 A 
HETATM   18  C4  UNL     1      23.597   0.300  52.272  1.00  0.00     0.037 A 
HETATM   19  C3  UNL     1      22.579  -0.258  53.013  1.00  0.00     0.035 A 
HETATM   20  C2  UNL     1      23.091  -0.788  54.146  1.00  0.00     0.049 A 
HETATM   21  C1  UNL     1      22.399  -1.486  55.245  1.00  0.00     0.076 C 
HETATM   22  O3  UNL     1      24.359  -0.586  54.143  1.00  0.00    -0.318 OA
ENDBRANCH   1  17
TORSDOF 3
ENDMDL
MODEL 4
REMARK VINA RESULT:      -7.8      3.324      4.476
REMARK  3 active torsions:
REMARK  status: ('A' for Active; 'I' for Inactive)
REMARK    1  A    between atoms: C5_5  and  C6_6 
REMARK    2  A    between atoms: C11_12  and  C12_13 
REMARK    3  A    between atoms: C15_16  and  S1_17 
ROOT
HETATM    1  C6  UNL     1      20.018   1.281  51.694  1.00  0.00     0.090 A 
HETATM    2  C7  UNL     1      19.215   0.181  51.398  1.00  0.00     0.058 A 
HETATM    3  C8  UNL     1      18.060   1.148  51.446  1.00  0.00     0.009 A 
HETATM    4  C9  UNL     1      18.866   2.115  51.785  1.00  0.00     0.069 A 
HETATM    5  O1  UNL     1      19.387   3.383  52.183  1.00  0.00    -0.325 OA
HETATM    6  C10 UNL     1      20.743   3.101  52.541  1.00  0.00     0.151 C 
HETATM    7  C11 UNL     1      21.148   1.821  52.323  1.00  0.00    -0.004 C 
ENDROOT
BRANCH   7   8
HETATM    8  C12 UNL     1      22.458   1.340  52.719  1.00  0.00    -0.026 A 
HETATM    9  C13 UNL     1      22.739   0.054  53.125  1.00  0.00     0.013 A 
HETATM   10  C14 UNL     1      24.028  -0.263  53.471  1.00  0.00     0.022 A 
HETATM   11  C15 UNL     1      25.019   0.711  53.408  1.00  0.00     0.031 A 
HETATM   12  C17 UNL     1      24.741   2.000  53.002  1.00  0.00     0.022 A 
HETATM   13  C18 UNL     1      23.437   2.310  52.654  1.00  0.00     0.013 A 
BRANCH  11  14
HETATM   14  S1  UNL     1      26.625   0.139  53.889  1.00  0.00     0.045 S 
HETATM   15  C16 UNL     1      27.886   1.391  53.670  1.00  0.00     0.133 C 
HETATM   16  O2  UNL     1      26.600  -0.364  55.312  1.00  0.00    -0.253 OA
ENDBRANCH  11  14
ENDBRANCH   7   8
BRANCH   1  17
HETATM   17  C5  UNL     1      20.508   1.624  50.068  1.00  0.00     0.073 A 
HETATM   18  C4  UNL     1      21.507   0.935  49.430  1.00  0.00     0.037 A 
HETATM   19  C3  UNL     1      21.543   1.539  48.194  1.00  0.00     0.035 A 
HETATM   20  C2  UNL     1      20.610   2.515  48.146  1.00  0.00     0.049 A 
HETATM   21  C1  UNL     1      20.273   3.432  47.041  1.00  0.00     0.076 C 
HETATM   22  O3  UNL     1      20.005   2.544  49.279  1.00  0.00    -0.318 OA
ENDBRANCH   1  17
TORSDOF 3
ENDMDL
MODEL 5
REMARK VINA RESULT:      -7.7      3.376      5.732
REMARK  3 active torsions:
REMARK  status: ('A' for Active; 'I' for Inactive)
REMARK    1  A    between atoms: C5_5  and  C6_6 
REMARK    2  A    between atoms: C11_12  and  C12_13 
REMARK    3  A    between atoms: C15_16  and  S1_17 
ROOT
HETATM    1  C6  UNL     1      22.715   3.948  50.929  1.00  0.00     0.090 A 
HETATM    2  C7  UNL     1      22.200   4.757  51.939  1.00  0.00     0.058 A 
HETATM    3  C8  UNL     1      20.893   4.049  51.689  1.00  0.00     0.009 A 
HETATM    4  C9  UNL     1      21.429   3.375  50.711  1.00  0.00     0.069 A 
HETATM    5  O1  UNL     1      21.623   2.500  49.601  1.00  0.00    -0.325 OA
HETATM    6  C10 UNL     1      22.923   2.844  49.114  1.00  0.00     0.151 C 
HETATM    7  C11 UNL     1      23.594   3.768  49.852  1.00  0.00    -0.004 C 
ENDROOT
BRANCH   7   8
HETATM    8  C12 UNL     1      24.882   4.301  49.449  1.00  0.00    -0.026 A 
HETATM    9  C13 UNL     1      26.070   3.605  49.474  1.00  0.00     0.013 A 
HETATM   10  C14 UNL     1      27.215   4.238  49.061  1.00  0.00     0.022 A 
HETATM   11  C15 UNL     1      27.157   5.558  48.628  1.00  0.00     0.031 A 
HETATM   12  C17 UNL     1      25.969   6.259  48.601  1.00  0.00     0.022 A 
HETATM   13  C18 UNL     1      24.818   5.611  49.020  1.00  0.00     0.013 A 
BRANCH  11  14
HETATM   14  S1  UNL     1      28.721   6.225  48.132  1.00  0.00     0.045 S 
HETATM   15  C16 UNL     1      28.903   7.946  48.589  1.00  0.00     0.133 C 
HETATM   16  O2  UNL     1      29.850   5.392  48.691  1.00  0.00    -0.253 OA
ENDBRANCH  11  14
ENDBRANCH   7   8
BRANCH   1  17
HETATM   17  C5  UNL     1      23.409   2.742  51.961  1.00  0.00     0.073 A 
HETATM   18  C4  UNL     1      24.482   2.989  52.779  1.00  0.00     0.037 A 
HETATM   19  C3  UNL     1      24.676   1.772  53.392  1.00  0.00     0.035 A 
HETATM   20  C2  UNL     1      23.756   0.892  52.938  1.00  0.00     0.049 A 
HETATM   21  C1  UNL     1      23.564  -0.526  53.297  1.00  0.00     0.076 C 
HETATM   22  O3  UNL     1      23.012   1.498  52.084  1.00  0.00    -0.318 OA
ENDBRANCH   1  17
TORSDOF 3
ENDMDL
MODEL 6
REMARK VINA RESULT:      -7.5      3.023      6.133
REMARK  3 active torsions:
REMARK  status: ('A' for Active; 'I' for Inactive)
REMARK    1  A    between atoms: C5_5  and  C6_6 
REMARK    2  A    between atoms: C11_12  and  C12_13 
REMARK    3  A    between atoms: C15_16  and  S1_17 
ROOT
HETATM    1  C6  UNL     1      24.341   3.377  51.382  1.00  0.00     0.090 A 
HETATM    2  C7  UNL     1      24.056   3.807  52.677  1.00  0.00     0.058 A 
HETATM    3  C8  UNL     1      22.867   2.884  52.605  1.00  0.00     0.009 A 
HETATM    4  C9  UNL     1      23.160   2.579  51.372  1.00  0.00     0.069 A 
HETATM    5  O1  UNL     1      23.123   2.033  50.054  1.00  0.00    -0.325 OA
HETATM    6  C10 UNL     1      24.127   2.767  49.348  1.00  0.00     0.151 C 
HETATM    7  C11 UNL     1      24.845   3.642  50.102  1.00  0.00    -0.004 C 
ENDROOT
BRANCH   7   8
HETATM    8  C12 UNL     1      25.834   4.536  49.528  1.00  0.00    -0.026 A 
HETATM    9  C13 UNL     1      27.066   4.149  49.048  1.00  0.00     0.013 A 
HETATM   10  C14 UNL     1      27.902   5.105  48.530  1.00  0.00     0.022 A 
HETATM   11  C15 UNL     1      27.496   6.435  48.500  1.00  0.00     0.031 A 
HETATM   12  C17 UNL     1      26.263   6.826  48.980  1.00  0.00     0.022 A 
HETATM   13  C18 UNL     1      25.426   5.853  49.500  1.00  0.00     0.013 A 
BRANCH  11  14
HETATM   14  S1  UNL     1      28.693   7.540  47.803  1.00  0.00     0.045 S 
HETATM   15  C16 UNL     1      27.954   9.062  47.218  1.00  0.00     0.133 C 
HETATM   16  O2  UNL     1      29.795   7.817  48.796  1.00  0.00    -0.253 OA
ENDBRANCH  11  14
ENDBRANCH   7   8
BRANCH   1  17
HETATM   17  C5  UNL     1      25.510   2.175  51.815  1.00  0.00     0.073 A 
HETATM   18  C4  UNL     1      26.795   2.482  52.182  1.00  0.00     0.037 A 
HETATM   19  C3  UNL     1      27.340   1.243  52.429  1.00  0.00     0.035 A 
HETATM   20  C2  UNL     1      26.405   0.292  52.212  1.00  0.00     0.049 A 
HETATM   21  C1  UNL     1      26.514  -1.173  52.342  1.00  0.00     0.076 C 
HETATM   22  O3  UNL     1      25.321   0.876  51.846  1.00  0.00    -0.318 OA
ENDBRANCH   1  17
TORSDOF 3
ENDMDL
MODEL 7
REMARK VINA RESULT:      -7.4      2.186      2.989
REMARK  3 active torsions:
REMARK  status: ('A' for Active; 'I' for Inactive)
REMARK    1  A    between atoms: C5_5  and  C6_6 
REMARK    2  A    between atoms: C11_12  and  C12_13 
REMARK    3  A    between atoms: C15_16  and  S1_17 
ROOT
HETATM    1  C6  UNL     1      21.873   1.434  51.030  1.00  0.00     0.090 A 
HETATM    2  C7  UNL     1      21.850   0.950  49.723  1.00  0.00     0.058 A 
HETATM    3  C8  UNL     1      20.351   1.078  49.818  1.00  0.00     0.009 A 
HETATM    4  C9  UNL     1      20.449   1.463  51.059  1.00  0.00     0.069 A 
HETATM    5  O1  UNL     1      20.138   1.869  52.392  1.00  0.00    -0.325 OA
HETATM    6  C10 UNL     1      21.389   1.780  53.080  1.00  0.00     0.151 C 
HETATM    7  C11 UNL     1      22.457   1.453  52.304  1.00  0.00    -0.004 C 
ENDROOT
BRANCH   7   8
HETATM    8  C12 UNL     1      23.779   1.225  52.854  1.00  0.00    -0.026 A 
HETATM    9  C13 UNL     1      24.709   2.208  53.115  1.00  0.00     0.013 A 
HETATM   10  C14 UNL     1      25.924   1.847  53.639  1.00  0.00     0.022 A 
HETATM   11  C15 UNL     1      26.194   0.506  53.895  1.00  0.00     0.031 A 
HETATM   12  C17 UNL     1      25.266  -0.481  53.635  1.00  0.00     0.022 A 
HETATM   13  C18 UNL     1      24.042  -0.105  53.107  1.00  0.00     0.013 A 
BRANCH  11  14
HETATM   14  S1  UNL     1      27.806   0.211  54.568  1.00  0.00     0.045 S 
HETATM   15  C16 UNL     1      28.778  -0.891  53.546  1.00  0.00     0.133 C 
HETATM   16  O2  UNL     1      28.528   1.516  54.799  1.00  0.00    -0.253 OA
ENDBRANCH  11  14
ENDBRANCH   7   8
BRANCH   1  17
HETATM   17  C5  UNL     1      22.198   3.088  50.633  1.00  0.00     0.073 A 
HETATM   18  C4  UNL     1      23.256   3.474  49.851  1.00  0.00     0.037 A 
HETATM   19  C3  UNL     1      23.115   4.842  49.811  1.00  0.00     0.035 A 
HETATM   20  C2  UNL     1      22.031   5.201  50.533  1.00  0.00     0.049 A 
HETATM   21  C1  UNL     1      21.479   6.545  50.784  1.00  0.00     0.076 C 
HETATM   22  O3  UNL     1      21.501   4.134  51.014  1.00  0.00    -0.318 OA
ENDBRANCH   1  17
TORSDOF 3
ENDMDL
MODEL 8
REMARK VINA RESULT:      -7.0      3.498      6.956
REMARK  3 active torsions:
REMARK  status: ('A' for Active; 'I' for Inactive)
REMARK    1  A    between atoms: C5_5  and  C6_6 
REMARK    2  A    between atoms: C11_12  and  C12_13 
REMARK    3  A    between atoms: C15_16  and  S1_17 
ROOT
HETATM    1  C6  UNL     1      25.741   1.182  52.455  1.00  0.00     0.090 A 
HETATM    2  C7  UNL     1      26.309   0.093  51.796  1.00  0.00     0.058 A 
HETATM    3  C8  UNL     1      27.109  -0.113  53.057  1.00  0.00     0.009 A 
HETATM    4  C9  UNL     1      26.583   0.957  53.582  1.00  0.00     0.069 A 
HETATM    5  O1  UNL     1      26.275   2.036  54.464  1.00  0.00    -0.325 OA
HETATM    6  C10 UNL     1      25.490   2.924  53.663  1.00  0.00     0.151 C 
HETATM    7  C11 UNL     1      25.199   2.474  52.413  1.00  0.00    -0.004 C 
ENDROOT
BRANCH   7   8
HETATM    8  C12 UNL     1      24.497   3.286  51.437  1.00  0.00    -0.026 A 
HETATM    9  C13 UNL     1      24.610   3.153  50.070  1.00  0.00     0.013 A 
HETATM   10  C14 UNL     1      23.885   3.992  49.263  1.00  0.00     0.022 A 
HETATM   11  C15 UNL     1      23.055   4.952  49.833  1.00  0.00     0.031 A 
HETATM   12  C17 UNL     1      22.939   5.087  51.201  1.00  0.00     0.022 A 
HETATM   13  C18 UNL     1      23.676   4.235  52.007  1.00  0.00     0.013 A 
BRANCH  11  14
HETATM   14  S1  UNL     1      22.191   5.952  48.653  1.00  0.00     0.045 S 
HETATM   15  C16 UNL     1      21.129   4.982  47.588  1.00  0.00     0.133 C 
HETATM   16  O2  UNL     1      21.411   7.038  49.354  1.00  0.00    -0.253 OA
ENDBRANCH  11  14
ENDBRANCH   7   8
BRANCH   1  17
HETATM   17  C5  UNL     1      24.304   0.376  52.988  1.00  0.00     0.073 A 
HETATM   18  C4  UNL     1      23.125   0.414  52.290  1.00  0.00     0.037 A 
HETATM   19  C3  UNL     1      22.288  -0.346  53.074  1.00  0.00     0.035 A 
HETATM   20  C2  UNL     1      22.968  -0.787  54.155  1.00  0.00     0.049 A 
HETATM   21  C1  UNL     1      22.501  -1.629  55.272  1.00  0.00     0.076 C 
HETATM   22  O3  UNL     1      24.170  -0.341  54.079  1.00  0.00    -0.318 OA
ENDBRANCH   1  17
TORSDOF 3
ENDMDL
MODEL 9
REMARK VINA RESULT:      -7.0      3.792      5.495
REMARK  3 active torsions:
REMARK  status: ('A' for Active; 'I' for Inactive)
REMARK    1  A    between atoms: C5_5  and  C6_6 
REMARK    2  A    between atoms: C11_12  and  C12_13 
REMARK    3  A    between atoms: C15_16  and  S1_17 
ROOT
HETATM    1  C6  UNL     1      23.262   2.842  51.145  1.00  0.00     0.090 A 
HETATM    2  C7  UNL     1      23.378   1.472  51.370  1.00  0.00     0.058 A 
HETATM    3  C8  UNL     1      22.229   1.642  52.330  1.00  0.00     0.009 A 
HETATM    4  C9  UNL     1      22.223   2.928  52.117  1.00  0.00     0.069 A 
HETATM    5  O1  UNL     1      21.924   4.321  52.182  1.00  0.00    -0.325 OA
HETATM    6  C10 UNL     1      22.986   4.937  51.448  1.00  0.00     0.151 C 
HETATM    7  C11 UNL     1      23.859   4.077  50.858  1.00  0.00    -0.004 C 
ENDROOT
BRANCH   7   8
HETATM    8  C12 UNL     1      25.046   4.530  50.158  1.00  0.00    -0.026 A 
HETATM    9  C13 UNL     1      26.074   3.715  49.735  1.00  0.00     0.013 A 
HETATM   10  C14 UNL     1      27.140   4.282  49.082  1.00  0.00     0.022 A 
HETATM   11  C15 UNL     1      27.164   5.655  48.862  1.00  0.00     0.031 A 
HETATM   12  C17 UNL     1      26.136   6.473  49.285  1.00  0.00     0.022 A 
HETATM   13  C18 UNL     1      25.065   5.892  49.942  1.00  0.00     0.013 A 
BRANCH  11  14
HETATM   14  S1  UNL     1      28.608   6.224  48.009  1.00  0.00     0.045 S 
HETATM   15  C16 UNL     1      29.114   7.856  48.542  1.00  0.00     0.133 C 
HETATM   16  O2  UNL     1      29.734   5.230  48.159  1.00  0.00    -0.253 OA
ENDBRANCH  11  14
ENDBRANCH   7   8
BRANCH   1  17
HETATM   17  C5  UNL     1      22.311   2.735  49.701  1.00  0.00     0.073 A 
HETATM   18  C4  UNL     1      22.841   2.394  48.483  1.00  0.00     0.037 A 
HETATM   19  C3  UNL     1      21.742   2.438  47.656  1.00  0.00     0.035 A 
HETATM   20  C2  UNL     1      20.654   2.785  48.378  1.00  0.00     0.049 A 
HETATM   21  C1  UNL     1      19.258   2.962  47.936  1.00  0.00     0.076 C 
HETATM   22  O3  UNL     1      21.022   2.957  49.596  1.00  0.00    -0.318 OA
ENDBRANCH   1  17
TORSDOF 3
ENDMDL
