MODEL 1
REMARK VINA RESULT:      -7.8      0.000      0.000
REMARK  5 active torsions:
REMARK  status: ('A' for Active; 'I' for Inactive)
REMARK    1  A    between atoms: C8_8  and  C9_9 
REMARK    2  A    between atoms: C9_9  and  N1_10 
REMARK    3  A    between atoms: N1_10  and  C10_11 
REMARK    4  A    between atoms: N1_10  and  C11_13 
REMARK    5  A    between atoms: C11_13  and  C12_14 
ROOT
HETATM    1  N1  UNL     1      25.941   2.401  52.150  1.00  0.00    -0.351 N 
ENDROOT
BRANCH   1   2
HETATM    2  C9  UNL     1      24.613   2.992  52.183  1.00  0.00     0.164 C 
BRANCH   2   3
HETATM    3  C8  UNL     1      23.541   1.999  51.913  1.00  0.00    -0.033 A 
HETATM    4  C6  UNL     1      22.937   2.010  50.675  1.00  0.00    -0.048 A 
HETATM    5  C4  UNL     1      21.940   1.100  50.395  1.00  0.00    -0.055 A 
HETATM    6  C7  UNL     1      23.302   2.961  49.604  1.00  0.00     0.049 C 
HETATM    7  C3  UNL     1      21.564   0.185  51.377  1.00  0.00     0.014 A 
HETATM    8  C5  UNL     1      21.214   1.012  49.099  1.00  0.00     0.049 C 
HETATM    9  C2  UNL     1      22.181   0.181  52.624  1.00  0.00    -0.061 A 
HETATM   10  C1  UNL     1      21.799  -0.786  53.693  1.00  0.00     0.048 C 
HETATM   11  C18 UNL     1      23.181   1.100  52.892  1.00  0.00     0.016 A 
ENDBRANCH   2   3
ENDBRANCH   1   2
BRANCH   1  12
HETATM   12  C10 UNL     1      26.577   2.302  50.880  1.00  0.00     0.351 C 
HETATM   13  O1  UNL     1      27.002   3.400  50.408  1.00  0.00    -0.284 OA
ENDBRANCH   1  12
BRANCH   1  14
HETATM   14  C11 UNL     1      26.662   1.909  53.294  1.00  0.00     0.164 C 
BRANCH  14  15
HETATM   15  C12 UNL     1      27.114   0.497  53.163  1.00  0.00    -0.040 A 
HETATM   16  C13 UNL     1      28.439   0.233  53.528  1.00  0.00     0.012 A 
HETATM   17  C14 UNL     1      29.026  -1.035  53.468  1.00  0.00     0.043 A 
HETATM   18  C15 UNL     1      28.241  -2.081  53.018  1.00  0.00     0.116 A 
HETATM   19  F1  UNL     1      28.792  -3.322  52.951  1.00  0.00    -0.206 F 
HETATM   20  C16 UNL     1      26.944  -1.835  52.659  1.00  0.00     0.043 A 
HETATM   21  C17 UNL     1      26.370  -0.600  52.718  1.00  0.00     0.012 A 
ENDBRANCH  14  15
ENDBRANCH   1  14
TORSDOF 5
ENDMDL
MODEL 2
REMARK VINA RESULT:      -7.7      1.697      2.710
REMARK  5 active torsions:
REMARK  status: ('A' for Active; 'I' for Inactive)
REMARK    1  A    between atoms: C8_8  and  C9_9 
REMARK    2  A    between atoms: C9_9  and  N1_10 
REMARK    3  A    between atoms: N1_10  and  C10_11 
REMARK    4  A    between atoms: N1_10  and  C11_13 
REMARK    5  A    between atoms: C11_13  and  C12_14 
ROOT
HETATM    1  N1  UNL     1      24.509   2.244  51.959  1.00  0.00    -0.351 N 
ENDROOT
BRANCH   1   2
HETATM    2  C9  UNL     1      23.454   1.399  51.424  1.00  0.00     0.164 C 
BRANCH   2   3
HETATM    3  C8  UNL     1      22.819   0.552  52.467  1.00  0.00    -0.033 A 
HETATM    4  C6  UNL     1      21.459   0.347  52.403  1.00  0.00    -0.048 A 
HETATM    5  C4  UNL     1      20.842  -0.434  53.357  1.00  0.00    -0.055 A 
HETATM    6  C7  UNL     1      20.601   0.928  51.349  1.00  0.00     0.049 C 
HETATM    7  C3  UNL     1      21.614  -1.001  54.369  1.00  0.00     0.014 A 
HETATM    8  C5  UNL     1      19.384  -0.729  53.395  1.00  0.00     0.049 C 
HETATM    9  C2  UNL     1      22.987  -0.788  54.425  1.00  0.00    -0.061 A 
HETATM   10  C1  UNL     1      23.837  -1.382  55.497  1.00  0.00     0.048 C 
HETATM   11  C18 UNL     1      23.594  -0.001  53.461  1.00  0.00     0.016 A 
ENDBRANCH   2   3
ENDBRANCH   1   2
BRANCH   1  12
HETATM   12  C10 UNL     1      24.167   3.100  53.045  1.00  0.00     0.351 C 
HETATM   13  O1  UNL     1      23.426   4.082  52.739  1.00  0.00    -0.284 OA
ENDBRANCH   1  12
BRANCH   1  14
HETATM   14  C11 UNL     1      25.866   2.284  51.484  1.00  0.00     0.164 C 
BRANCH  14  15
HETATM   15  C12 UNL     1      26.786   1.361  52.202  1.00  0.00    -0.040 A 
HETATM   16  C13 UNL     1      27.775   1.959  52.991  1.00  0.00     0.012 A 
HETATM   17  C14 UNL     1      28.720   1.243  53.732  1.00  0.00     0.043 A 
HETATM   18  C15 UNL     1      28.665  -0.138  53.673  1.00  0.00     0.116 A 
HETATM   19  F1  UNL     1      29.575  -0.854  54.385  1.00  0.00    -0.206 F 
HETATM   20  C16 UNL     1      27.703  -0.734  52.904  1.00  0.00     0.043 A 
HETATM   21  C17 UNL     1      26.781  -0.037  52.182  1.00  0.00     0.012 A 
ENDBRANCH  14  15
ENDBRANCH   1  14
TORSDOF 5
ENDMDL
MODEL 3
REMARK VINA RESULT:      -7.5      2.667      3.993
REMARK  5 active torsions:
REMARK  status: ('A' for Active; 'I' for Inactive)
REMARK    1  A    between atoms: C8_8  and  C9_9 
REMARK    2  A    between atoms: C9_9  and  N1_10 
REMARK    3  A    between atoms: N1_10  and  C10_11 
REMARK    4  A    between atoms: N1_10  and  C11_13 
REMARK    5  A    between atoms: C11_13  and  C12_14 
ROOT
HETATM    1  N1  UNL     1      22.688  -0.407  53.616  1.00  0.00    -0.351 N 
ENDROOT
BRANCH   1   2
HETATM    2  C9  UNL     1      22.417   1.018  53.516  1.00  0.00     0.164 C 
BRANCH   2   3
HETATM    3  C8  UNL     1      22.683   1.553  52.155  1.00  0.00    -0.033 A 
HETATM    4  C6  UNL     1      23.651   2.522  52.013  1.00  0.00    -0.048 A 
HETATM    5  C4  UNL     1      23.921   3.037  50.763  1.00  0.00    -0.055 A 
HETATM    6  C7  UNL     1      24.438   3.054  53.146  1.00  0.00     0.049 C 
HETATM    7  C3  UNL     1      23.202   2.564  49.667  1.00  0.00     0.014 A 
HETATM    8  C5  UNL     1      24.941   4.084  50.481  1.00  0.00     0.049 C 
HETATM    9  C2  UNL     1      22.227   1.585  49.821  1.00  0.00    -0.061 A 
HETATM   10  C1  UNL     1      21.442   1.060  48.666  1.00  0.00     0.048 C 
HETATM   11  C18 UNL     1      21.966   1.075  51.082  1.00  0.00     0.016 A 
ENDBRANCH   2   3
ENDBRANCH   1   2
BRANCH   1  12
HETATM   12  C10 UNL     1      21.805  -1.181  54.421  1.00  0.00     0.351 C 
HETATM   13  O1  UNL     1      22.350  -1.758  55.410  1.00  0.00    -0.284 OA
ENDBRANCH   1  12
BRANCH   1  14
HETATM   14  C11 UNL     1      23.773  -1.096  52.968  1.00  0.00     0.164 C 
BRANCH  14  15
HETATM   15  C12 UNL     1      25.116  -0.534  53.275  1.00  0.00    -0.040 A 
HETATM   16  C13 UNL     1      25.432  -0.385  54.631  1.00  0.00     0.012 A 
HETATM   17  C14 UNL     1      26.647   0.126  55.097  1.00  0.00     0.043 A 
HETATM   18  C15 UNL     1      27.585   0.504  54.152  1.00  0.00     0.116 A 
HETATM   19  F1  UNL     1      28.773   1.003  54.583  1.00  0.00    -0.206 F 
HETATM   20  C16 UNL     1      27.287   0.362  52.824  1.00  0.00     0.043 A 
HETATM   21  C17 UNL     1      26.103  -0.136  52.369  1.00  0.00     0.012 A 
ENDBRANCH  14  15
ENDBRANCH   1  14
TORSDOF 5
ENDMDL
MODEL 4
REMARK VINA RESULT:      -7.5      3.394      5.683
REMARK  5 active torsions:
REMARK  status: ('A' for Active; 'I' for Inactive)
REMARK    1  A    between atoms: C8_8  and  C9_9 
REMARK    2  A    between atoms: C9_9  and  N1_10 
REMARK    3  A    between atoms: N1_10  and  C10_11 
REMARK    4  A    between atoms: N1_10  and  C11_13 
REMARK    5  A    between atoms: C11_13  and  C12_14 
ROOT
HETATM    1  N1  UNL     1      23.647   3.595  51.380  1.00  0.00    -0.351 N 
ENDROOT
BRANCH   1   2
HETATM    2  C9  UNL     1      24.408   3.319  52.588  1.00  0.00     0.164 C 
BRANCH   2   3
HETATM    3  C8  UNL     1      24.575   1.863  52.836  1.00  0.00    -0.033 A 
HETATM    4  C6  UNL     1      25.841   1.328  52.760  1.00  0.00    -0.048 A 
HETATM    5  C4  UNL     1      26.027  -0.019  52.985  1.00  0.00    -0.055 A 
HETATM    6  C7  UNL     1      27.042   2.131  52.445  1.00  0.00     0.049 C 
HETATM    7  C3  UNL     1      24.921  -0.813  53.285  1.00  0.00     0.014 A 
HETATM    8  C5  UNL     1      27.342  -0.712  52.933  1.00  0.00     0.049 C 
HETATM    9  C2  UNL     1      23.646  -0.263  53.360  1.00  0.00    -0.061 A 
HETATM   10  C1  UNL     1      22.445  -1.089  53.679  1.00  0.00     0.048 C 
HETATM   11  C18 UNL     1      23.473   1.092  53.132  1.00  0.00     0.016 A 
ENDBRANCH   2   3
ENDBRANCH   1   2
BRANCH   1  12
HETATM   12  C10 UNL     1      22.375   4.214  51.542  1.00  0.00     0.351 C 
HETATM   13  O1  UNL     1      22.413   5.429  51.902  1.00  0.00    -0.284 OA
ENDBRANCH   1  12
BRANCH   1  14
HETATM   14  C11 UNL     1      24.075   3.294  50.040  1.00  0.00     0.164 C 
BRANCH  14  15
HETATM   15  C12 UNL     1      25.077   4.250  49.495  1.00  0.00    -0.040 A 
HETATM   16  C13 UNL     1      26.387   3.775  49.377  1.00  0.00     0.012 A 
HETATM   17  C14 UNL     1      27.452   4.538  48.886  1.00  0.00     0.043 A 
HETATM   18  C15 UNL     1      27.179   5.838  48.497  1.00  0.00     0.116 A 
HETATM   19  F1  UNL     1      28.199   6.598  48.017  1.00  0.00    -0.206 F 
HETATM   20  C16 UNL     1      25.901   6.313  48.608  1.00  0.00     0.043 A 
HETATM   21  C17 UNL     1      24.863   5.570  49.086  1.00  0.00     0.012 A 
ENDBRANCH  14  15
ENDBRANCH   1  14
TORSDOF 5
ENDMDL
MODEL 5
REMARK VINA RESULT:      -7.4      2.471      3.794
REMARK  5 active torsions:
REMARK  status: ('A' for Active; 'I' for Inactive)
REMARK    1  A    between atoms: C8_8  and  C9_9 
REMARK    2  A    between atoms: C9_9  and  N1_10 
REMARK    3  A    between atoms: N1_10  and  C10_11 
REMARK    4  A    between atoms: N1_10  and  C11_13 
REMARK    5  A    between atoms: C11_13  and  C12_14 
ROOT
HETATM    1  N1  UNL     1      24.495   0.357  53.120  1.00  0.00    -0.351 N 
ENDROOT
BRANCH   1   2
HETATM    2  C9  UNL     1      23.674   1.550  52.991  1.00  0.00     0.164 C 
BRANCH   2   3
HETATM    3  C8  UNL     1      23.580   2.026  51.586  1.00  0.00    -0.033 A 
HETATM    4  C6  UNL     1      22.590   1.503  50.785  1.00  0.00    -0.048 A 
HETATM    5  C4  UNL     1      22.477   1.925  49.477  1.00  0.00    -0.055 A 
HETATM    6  C7  UNL     1      21.617   0.494  51.253  1.00  0.00     0.049 C 
HETATM    7  C3  UNL     1      23.375   2.876  48.994  1.00  0.00     0.014 A 
HETATM    8  C5  UNL     1      21.452   1.437  48.516  1.00  0.00     0.049 C 
HETATM    9  C2  UNL     1      24.371   3.398  49.811  1.00  0.00    -0.061 A 
HETATM   10  C1  UNL     1      25.345   4.416  49.321  1.00  0.00     0.048 C 
HETATM   11  C18 UNL     1      24.473   2.966  51.123  1.00  0.00     0.016 A 
ENDBRANCH   2   3
ENDBRANCH   1   2
BRANCH   1  12
HETATM   12  C10 UNL     1      24.022  -0.664  53.993  1.00  0.00     0.351 C 
HETATM   13  O1  UNL     1      22.787  -0.601  54.271  1.00  0.00    -0.284 OA
ENDBRANCH   1  12
BRANCH   1  14
HETATM   14  C11 UNL     1      25.740   0.124  52.439  1.00  0.00     0.164 C 
BRANCH  14  15
HETATM   15  C12 UNL     1      26.910   0.794  53.071  1.00  0.00    -0.040 A 
HETATM   16  C13 UNL     1      27.570   0.074  54.073  1.00  0.00     0.012 A 
HETATM   17  C14 UNL     1      28.685   0.551  54.770  1.00  0.00     0.043 A 
HETATM   18  C15 UNL     1      29.153   1.811  54.440  1.00  0.00     0.116 A 
HETATM   19  F1  UNL     1      30.235   2.294  55.105  1.00  0.00    -0.206 F 
HETATM   20  C16 UNL     1      28.515   2.523  53.461  1.00  0.00     0.043 A 
HETATM   21  C17 UNL     1      27.429   2.059  52.781  1.00  0.00     0.012 A 
ENDBRANCH  14  15
ENDBRANCH   1  14
TORSDOF 5
ENDMDL
MODEL 6
REMARK VINA RESULT:      -6.9      3.416      5.668
REMARK  5 active torsions:
REMARK  status: ('A' for Active; 'I' for Inactive)
REMARK    1  A    between atoms: C8_8  and  C9_9 
REMARK    2  A    between atoms: C9_9  and  N1_10 
REMARK    3  A    between atoms: N1_10  and  C10_11 
REMARK    4  A    between atoms: N1_10  and  C11_13 
REMARK    5  A    between atoms: C11_13  and  C12_14 
ROOT
HETATM    1  N1  UNL     1      23.034   3.929  50.957  1.00  0.00    -0.351 N 
ENDROOT
BRANCH   1   2
HETATM    2  C9  UNL     1      23.488   3.729  52.323  1.00  0.00     0.164 C 
BRANCH   2   3
HETATM    3  C8  UNL     1      23.946   2.337  52.572  1.00  0.00    -0.033 A 
HETATM    4  C6  UNL     1      22.996   1.369  52.808  1.00  0.00    -0.048 A 
HETATM    5  C4  UNL     1      23.390   0.068  53.042  1.00  0.00    -0.055 A 
HETATM    6  C7  UNL     1      21.544   1.647  52.827  1.00  0.00     0.049 C 
HETATM    7  C3  UNL     1      24.750  -0.237  53.033  1.00  0.00     0.014 A 
HETATM    8  C5  UNL     1      22.461  -1.062  53.308  1.00  0.00     0.049 C 
HETATM    9  C2  UNL     1      25.702   0.747  52.793  1.00  0.00    -0.061 A 
HETATM   10  C1  UNL     1      27.164   0.448  52.779  1.00  0.00     0.048 C 
HETATM   11  C18 UNL     1      25.293   2.049  52.560  1.00  0.00     0.016 A 
ENDBRANCH   2   3
ENDBRANCH   1   2
BRANCH   1  12
HETATM   12  C10 UNL     1      21.872   4.729  50.770  1.00  0.00     0.351 C 
HETATM   13  O1  UNL     1      21.090   4.332  49.853  1.00  0.00    -0.284 OA
ENDBRANCH   1  12
BRANCH   1  14
HETATM   14  C11 UNL     1      23.663   3.386  49.782  1.00  0.00     0.164 C 
BRANCH  14  15
HETATM   15  C12 UNL     1      24.923   4.077  49.396  1.00  0.00    -0.040 A 
HETATM   16  C13 UNL     1      24.794   5.395  48.943  1.00  0.00     0.012 A 
HETATM   17  C14 UNL     1      25.872   6.190  48.540  1.00  0.00     0.043 A 
HETATM   18  C15 UNL     1      27.136   5.629  48.598  1.00  0.00     0.116 A 
HETATM   19  F1  UNL     1      28.198   6.383  48.211  1.00  0.00    -0.206 F 
HETATM   20  C16 UNL     1      27.273   4.341  49.040  1.00  0.00     0.043 A 
HETATM   21  C17 UNL     1      26.224   3.566  49.432  1.00  0.00     0.012 A 
ENDBRANCH  14  15
ENDBRANCH   1  14
TORSDOF 5
ENDMDL
MODEL 7
REMARK VINA RESULT:      -6.8      3.493      6.017
REMARK  5 active torsions:
REMARK  status: ('A' for Active; 'I' for Inactive)
REMARK    1  A    between atoms: C8_8  and  C9_9 
REMARK    2  A    between atoms: C9_9  and  N1_10 
REMARK    3  A    between atoms: N1_10  and  C10_11 
REMARK    4  A    between atoms: N1_10  and  C11_13 
REMARK    5  A    between atoms: C11_13  and  C12_14 
ROOT
HETATM    1  N1  UNL     1      20.678   1.940  51.326  1.00  0.00    -0.351 N 
ENDROOT
BRANCH   1   2
HETATM    2  C9  UNL     1      21.072   0.541  51.360  1.00  0.00     0.164 C 
BRANCH   2   3
HETATM    3  C8  UNL     1      22.254   0.304  52.229  1.00  0.00    -0.033 A 
HETATM    4  C6  UNL     1      22.082  -0.433  53.379  1.00  0.00    -0.048 A 
HETATM    5  C4  UNL     1      23.161  -0.669  54.205  1.00  0.00    -0.055 A 
HETATM    6  C7  UNL     1      20.781  -0.999  53.791  1.00  0.00     0.049 C 
HETATM    7  C3  UNL     1      24.407  -0.153  53.854  1.00  0.00     0.014 A 
HETATM    8  C5  UNL     1      23.102  -1.448  55.471  1.00  0.00     0.049 C 
HETATM    9  C2  UNL     1      24.571   0.590  52.690  1.00  0.00    -0.061 A 
HETATM   10  C1  UNL     1      25.892   1.154  52.290  1.00  0.00     0.048 C 
HETATM   11  C18 UNL     1      23.479   0.820  51.869  1.00  0.00     0.016 A 
ENDBRANCH   2   3
ENDBRANCH   1   2
BRANCH   1  12
HETATM   12  C10 UNL     1      20.034   2.460  52.485  1.00  0.00     0.351 C 
HETATM   13  O1  UNL     1      19.338   3.502  52.287  1.00  0.00    -0.284 OA
ENDBRANCH   1  12
BRANCH   1  14
HETATM   14  C11 UNL     1      20.886   2.838  50.222  1.00  0.00     0.164 C 
BRANCH  14  15
HETATM   15  C12 UNL     1      22.286   3.327  50.096  1.00  0.00    -0.040 A 
HETATM   16  C13 UNL     1      22.703   4.267  51.046  1.00  0.00     0.012 A 
HETATM   17  C14 UNL     1      23.983   4.830  51.075  1.00  0.00     0.043 A 
HETATM   18  C15 UNL     1      24.880   4.428  50.102  1.00  0.00     0.116 A 
HETATM   19  F1  UNL     1      26.129   4.963  50.112  1.00  0.00    -0.206 F 
HETATM   20  C16 UNL     1      24.483   3.509  49.169  1.00  0.00     0.043 A 
HETATM   21  C17 UNL     1      23.237   2.959  49.139  1.00  0.00     0.012 A 
ENDBRANCH  14  15
ENDBRANCH   1  14
TORSDOF 5
ENDMDL
MODEL 8
REMARK VINA RESULT:      -6.8      2.699      4.885
REMARK  5 active torsions:
REMARK  status: ('A' for Active; 'I' for Inactive)
REMARK    1  A    between atoms: C8_8  and  C9_9 
REMARK    2  A    between atoms: C9_9  and  N1_10 
REMARK    3  A    between atoms: N1_10  and  C10_11 
REMARK    4  A    between atoms: N1_10  and  C11_13 
REMARK    5  A    between atoms: C11_13  and  C12_14 
ROOT
HETATM    1  N1  UNL     1      22.972   2.705  51.402  1.00  0.00    -0.351 N 
ENDROOT
BRANCH   1   2
HETATM    2  C9  UNL     1      23.555   2.561  50.078  1.00  0.00     0.164 C 
BRANCH   2   3
HETATM    3  C8  UNL     1      24.170   3.821  49.588  1.00  0.00    -0.033 A 
HETATM    4  C6  UNL     1      25.539   3.870  49.451  1.00  0.00    -0.048 A 
HETATM    5  C4  UNL     1      26.139   5.026  48.997  1.00  0.00    -0.055 A 
HETATM    6  C7  UNL     1      26.426   2.730  49.769  1.00  0.00     0.049 C 
HETATM    7  C3  UNL     1      25.340   6.124  48.687  1.00  0.00     0.014 A 
HETATM    8  C5  UNL     1      27.605   5.200  48.808  1.00  0.00     0.049 C 
HETATM    9  C2  UNL     1      23.958   6.066  48.828  1.00  0.00    -0.061 A 
HETATM   10  C1  UNL     1      23.079   7.226  48.503  1.00  0.00     0.048 C 
HETATM   11  C18 UNL     1      23.368   4.899  49.284  1.00  0.00     0.016 A 
ENDBRANCH   2   3
ENDBRANCH   1   2
BRANCH   1  12
HETATM   12  C10 UNL     1      21.558   2.568  51.508  1.00  0.00     0.351 C 
HETATM   13  O1  UNL     1      21.137   2.242  52.658  1.00  0.00    -0.284 OA
ENDBRANCH   1  12
BRANCH   1  14
HETATM   14  C11 UNL     1      23.705   2.974  52.611  1.00  0.00     0.164 C 
BRANCH  14  15
HETATM   15  C12 UNL     1      24.694   1.920  52.965  1.00  0.00    -0.040 A 
HETATM   16  C13 UNL     1      25.950   2.365  53.393  1.00  0.00     0.012 A 
HETATM   17  C14 UNL     1      26.995   1.512  53.764  1.00  0.00     0.043 A 
HETATM   18  C15 UNL     1      26.761   0.150  53.700  1.00  0.00     0.116 A 
HETATM   19  F1  UNL     1      27.762  -0.697  54.056  1.00  0.00    -0.206 F 
HETATM   20  C16 UNL     1      25.536  -0.296  53.283  1.00  0.00     0.043 A 
HETATM   21  C17 UNL     1      24.517   0.533  52.922  1.00  0.00     0.012 A 
ENDBRANCH  14  15
ENDBRANCH   1  14
TORSDOF 5
ENDMDL
MODEL 9
REMARK VINA RESULT:      -6.7      3.734      4.934
REMARK  5 active torsions:
REMARK  status: ('A' for Active; 'I' for Inactive)
REMARK    1  A    between atoms: C8_8  and  C9_9 
REMARK    2  A    between atoms: C9_9  and  N1_10 
REMARK    3  A    between atoms: N1_10  and  C10_11 
REMARK    4  A    between atoms: N1_10  and  C11_13 
REMARK    5  A    between atoms: C11_13  and  C12_14 
ROOT
HETATM    1  N1  UNL     1      24.121   2.942  51.739  1.00  0.00    -0.351 N 
ENDROOT
BRANCH   1   2
HETATM    2  C9  UNL     1      23.938   1.572  51.288  1.00  0.00     0.164 C 
BRANCH   2   3
HETATM    3  C8  UNL     1      22.730   0.937  51.877  1.00  0.00    -0.033 A 
HETATM    4  C6  UNL     1      21.557   0.969  51.155  1.00  0.00    -0.048 A 
HETATM    5  C4  UNL     1      20.420   0.388  51.675  1.00  0.00    -0.055 A 
HETATM    6  C7  UNL     1      21.443   1.604  49.825  1.00  0.00     0.049 C 
HETATM    7  C3  UNL     1      20.484  -0.221  52.927  1.00  0.00     0.014 A 
HETATM    8  C5  UNL     1      19.098   0.358  50.993  1.00  0.00     0.049 C 
HETATM    9  C2  UNL     1      21.673  -0.249  53.648  1.00  0.00    -0.061 A 
HETATM   10  C1  UNL     1      21.770  -0.894  54.989  1.00  0.00     0.048 C 
HETATM   11  C18 UNL     1      22.808   0.338  53.114  1.00  0.00     0.016 A 
ENDBRANCH   2   3
ENDBRANCH   1   2
BRANCH   1  12
HETATM   12  C10 UNL     1      24.510   3.132  53.096  1.00  0.00     0.351 C 
HETATM   13  O1  UNL     1      25.563   2.516  53.442  1.00  0.00    -0.284 OA
ENDBRANCH   1  12
BRANCH   1  14
HETATM   14  C11 UNL     1      23.944   4.117  50.928  1.00  0.00     0.164 C 
BRANCH  14  15
HETATM   15  C12 UNL     1      25.143   4.486  50.128  1.00  0.00    -0.040 A 
HETATM   16  C13 UNL     1      25.216   5.815  49.697  1.00  0.00     0.012 A 
HETATM   17  C14 UNL     1      26.271   6.332  48.937  1.00  0.00     0.043 A 
HETATM   18  C15 UNL     1      27.296   5.467  48.598  1.00  0.00     0.116 A 
HETATM   19  F1  UNL     1      28.331   5.948  47.860  1.00  0.00    -0.206 F 
HETATM   20  C16 UNL     1      27.235   4.165  49.015  1.00  0.00     0.043 A 
HETATM   21  C17 UNL     1      26.209   3.661  49.755  1.00  0.00     0.012 A 
ENDBRANCH  14  15
ENDBRANCH   1  14
TORSDOF 5
ENDMDL
