MODEL 1
REMARK VINA RESULT:      -8.5      0.000      0.000
REMARK  4 active torsions:
REMARK  status: ('A' for Active; 'I' for Inactive)
REMARK       I    between atoms: C1_2  and  N1_3 
REMARK    1  A    between atoms: C1_2  and  C15_18 
REMARK    2  A    between atoms: N1_3  and  C2_4 
REMARK    3  A    between atoms: C6_8  and  C7_9 
REMARK    4  A    between atoms: C7_9  and  C8_11 
ROOT
HETATM    1  C2  UNL     1      22.465  -1.015  54.046  1.00  0.00     0.035 A 
HETATM    2  C3  UNL     1      22.774  -1.380  55.350  1.00  0.00     0.029 A 
HETATM    3  C4  UNL     1      24.036  -1.326  55.908  1.00  0.00     0.003 A 
HETATM    4  C5  UNL     1      25.056  -0.868  55.081  1.00  0.00     0.015 A 
HETATM    5  C6  UNL     1      24.787  -0.497  53.781  1.00  0.00     0.017 A 
HETATM    6  C14 UNL     1      23.509  -0.566  53.263  1.00  0.00     0.045 A 
ENDROOT
BRANCH   1   7
HETATM    7  N1  UNL     1      21.108  -1.134  53.633  1.00  0.00    -0.322 N 
HETATM    8  C1  UNL     1      20.119  -0.122  53.378  1.00  0.00     0.274 C 
HETATM    9  O1  UNL     1      20.458   1.086  53.532  1.00  0.00    -0.266 OA
HETATM   10  H1  UNL     1      20.845  -2.141  53.510  1.00  0.00     0.169 HD
BRANCH   8  11
HETATM   11  C15 UNL     1      18.791  -0.557  52.961  1.00  0.00     0.120 C 
HETATM   12  C16 UNL     1      18.003  -0.247  51.932  1.00  0.00     0.038 C 
HETATM   13  C17 UNL     1      16.724  -1.007  52.002  1.00  0.00     0.231 C 
HETATM   14  O3  UNL     1      16.948  -1.897  53.022  1.00  0.00    -0.276 OA
HETATM   15  N2  UNL     1      18.046  -1.509  53.699  1.00  0.00    -0.261 N 
HETATM   16  H14 UNL     1      18.269  -1.893  54.639  1.00  0.00     0.194 HD
ENDBRANCH   8  11
ENDBRANCH   1   7
BRANCH   5  17
HETATM   17  C7  UNL     1      25.905  -0.023  52.976  1.00  0.00     0.192 C 
HETATM   18  O2  UNL     1      25.589   0.654  51.937  1.00  0.00    -0.287 OA
BRANCH  17  19
HETATM   19  C8  UNL     1      27.340  -0.213  53.183  1.00  0.00     0.015 A 
HETATM   20  C9  UNL     1      27.860  -1.466  53.004  1.00  0.00     0.015 A 
HETATM   21  C10 UNL     1      29.207  -1.699  53.185  1.00  0.00     0.001 A 
HETATM   22  C11 UNL     1      30.084  -0.705  53.547  1.00  0.00     0.000 A 
HETATM   23  C12 UNL     1      29.501   0.513  53.707  1.00  0.00     0.001 A 
HETATM   24  C13 UNL     1      28.168   0.848  53.551  1.00  0.00     0.015 A 
ENDBRANCH  17  19
ENDBRANCH   5  17
TORSDOF 4
ENDMDL
MODEL 2
REMARK VINA RESULT:      -8.4      3.564      7.639
REMARK  4 active torsions:
REMARK  status: ('A' for Active; 'I' for Inactive)
REMARK       I    between atoms: C1_2  and  N1_3 
REMARK    1  A    between atoms: C1_2  and  C15_18 
REMARK    2  A    between atoms: N1_3  and  C2_4 
REMARK    3  A    between atoms: C6_8  and  C7_9 
REMARK    4  A    between atoms: C7_9  and  C8_11 
ROOT
HETATM    1  C2  UNL     1      24.056  -0.392  53.663  1.00  0.00     0.035 A 
HETATM    2  C3  UNL     1      23.289  -0.936  54.684  1.00  0.00     0.029 A 
HETATM    3  C4  UNL     1      21.934  -0.725  54.854  1.00  0.00     0.003 A 
HETATM    4  C5  UNL     1      21.317   0.097  53.917  1.00  0.00     0.015 A 
HETATM    5  C6  UNL     1      22.047   0.655  52.890  1.00  0.00     0.017 A 
HETATM    6  C14 UNL     1      23.400   0.417  52.757  1.00  0.00     0.045 A 
ENDROOT
BRANCH   1   7
HETATM    7  N1  UNL     1      25.443  -0.714  53.637  1.00  0.00    -0.322 N 
HETATM    8  C1  UNL     1      26.585   0.044  54.072  1.00  0.00     0.274 C 
HETATM    9  O1  UNL     1      26.378   1.189  54.566  1.00  0.00    -0.266 OA
HETATM   10  H1  UNL     1      25.594  -1.665  53.225  1.00  0.00     0.169 HD
BRANCH   8  11
HETATM   11  C15 UNL     1      27.903  -0.559  53.914  1.00  0.00     0.120 C 
HETATM   12  C16 UNL     1      29.142  -0.138  54.164  1.00  0.00     0.038 C 
HETATM   13  C17 UNL     1      30.136  -1.186  53.803  1.00  0.00     0.231 C 
HETATM   14  O3  UNL     1      29.350  -2.276  53.527  1.00  0.00    -0.276 OA
HETATM   15  N2  UNL     1      28.073  -1.866  53.396  1.00  0.00    -0.261 N 
HETATM   16  H14 UNL     1      27.349  -2.473  52.964  1.00  0.00     0.194 HD
ENDBRANCH   8  11
ENDBRANCH   1   7
BRANCH   5  17
HETATM   17  C7  UNL     1      21.331   1.503  51.945  1.00  0.00     0.192 C 
HETATM   18  O2  UNL     1      20.265   2.049  52.392  1.00  0.00    -0.287 OA
BRANCH  17  19
HETATM   19  C8  UNL     1      21.658   1.819  50.555  1.00  0.00     0.015 A 
HETATM   20  C9  UNL     1      22.355   2.969  50.300  1.00  0.00     0.015 A 
HETATM   21  C10 UNL     1      22.690   3.313  49.007  1.00  0.00     0.001 A 
HETATM   22  C11 UNL     1      22.350   2.536  47.926  1.00  0.00     0.000 A 
HETATM   23  C12 UNL     1      21.660   1.410  48.252  1.00  0.00     0.001 A 
HETATM   24  C13 UNL     1      21.277   0.978  49.509  1.00  0.00     0.015 A 
ENDBRANCH  17  19
ENDBRANCH   5  17
TORSDOF 4
ENDMDL
MODEL 3
REMARK VINA RESULT:      -8.4      4.567      6.873
REMARK  4 active torsions:
REMARK  status: ('A' for Active; 'I' for Inactive)
REMARK       I    between atoms: C1_2  and  N1_3 
REMARK    1  A    between atoms: C1_2  and  C15_18 
REMARK    2  A    between atoms: N1_3  and  C2_4 
REMARK    3  A    between atoms: C6_8  and  C7_9 
REMARK    4  A    between atoms: C7_9  and  C8_11 
ROOT
HETATM    1  C2  UNL     1      24.445   2.805  51.734  1.00  0.00     0.035 A 
HETATM    2  C3  UNL     1      23.111   2.477  51.527  1.00  0.00     0.029 A 
HETATM    3  C4  UNL     1      22.490   1.346  52.019  1.00  0.00     0.003 A 
HETATM    4  C5  UNL     1      23.281   0.488  52.775  1.00  0.00     0.015 A 
HETATM    5  C6  UNL     1      24.609   0.781  53.002  1.00  0.00     0.017 A 
HETATM    6  C14 UNL     1      25.190   1.925  52.491  1.00  0.00     0.045 A 
ENDROOT
BRANCH   1   7
HETATM    7  N1  UNL     1      24.924   4.013  51.153  1.00  0.00    -0.322 N 
HETATM    8  C1  UNL     1      25.763   4.227  50.004  1.00  0.00     0.274 C 
HETATM    9  O1  UNL     1      26.167   3.210  49.372  1.00  0.00    -0.266 OA
HETATM   10  H1  UNL     1      24.580   4.844  51.689  1.00  0.00     0.169 HD
BRANCH   8  11
HETATM   11  C15 UNL     1      26.091   5.602  49.647  1.00  0.00     0.120 C 
HETATM   12  C16 UNL     1      26.712   6.159  48.608  1.00  0.00     0.038 C 
HETATM   13  C17 UNL     1      26.773   7.639  48.764  1.00  0.00     0.231 C 
HETATM   14  O3  UNL     1      25.971   7.869  49.853  1.00  0.00    -0.276 OA
HETATM   15  N2  UNL     1      25.744   6.697  50.477  1.00  0.00    -0.261 N 
HETATM   16  H14 UNL     1      25.362   6.660  51.443  1.00  0.00     0.194 HD
ENDBRANCH   8  11
ENDBRANCH   1   7
BRANCH   5  17
HETATM   17  C7  UNL     1      25.374  -0.163  53.806  1.00  0.00     0.192 C 
HETATM   18  O2  UNL     1      24.700  -0.830  54.664  1.00  0.00    -0.287 OA
BRANCH  17  19
HETATM   19  C8  UNL     1      26.806  -0.457  53.774  1.00  0.00     0.015 A 
HETATM   20  C9  UNL     1      27.632   0.258  54.599  1.00  0.00     0.015 A 
HETATM   21  C10 UNL     1      28.989   0.018  54.610  1.00  0.00     0.001 A 
HETATM   22  C11 UNL     1      29.576  -0.932  53.809  1.00  0.00     0.000 A 
HETATM   23  C12 UNL     1      28.698  -1.603  53.017  1.00  0.00     0.001 A 
HETATM   24  C13 UNL     1      27.327  -1.439  52.931  1.00  0.00     0.015 A 
ENDBRANCH  17  19
ENDBRANCH   5  17
TORSDOF 4
ENDMDL
MODEL 4
REMARK VINA RESULT:      -7.8      4.221      5.547
REMARK  4 active torsions:
REMARK  status: ('A' for Active; 'I' for Inactive)
REMARK       I    between atoms: C1_2  and  N1_3 
REMARK    1  A    between atoms: C1_2  and  C15_18 
REMARK    2  A    between atoms: N1_3  and  C2_4 
REMARK    3  A    between atoms: C6_8  and  C7_9 
REMARK    4  A    between atoms: C7_9  and  C8_11 
ROOT
HETATM    1  C2  UNL     1      23.471   1.693  51.998  1.00  0.00     0.035 A 
HETATM    2  C3  UNL     1      22.282   0.977  51.969  1.00  0.00     0.029 A 
HETATM    3  C4  UNL     1      22.056  -0.209  52.641  1.00  0.00     0.003 A 
HETATM    4  C5  UNL     1      23.116  -0.699  53.398  1.00  0.00     0.015 A 
HETATM    5  C6  UNL     1      24.311  -0.015  53.451  1.00  0.00     0.017 A 
HETATM    6  C14 UNL     1      24.494   1.168  52.763  1.00  0.00     0.045 A 
ENDROOT
BRANCH   1   7
HETATM    7  N1  UNL     1      23.533   2.899  51.244  1.00  0.00    -0.322 N 
HETATM    8  C1  UNL     1      23.460   4.271  51.671  1.00  0.00     0.274 C 
HETATM    9  O1  UNL     1      23.317   4.497  52.906  1.00  0.00    -0.266 OA
HETATM   10  H1  UNL     1      23.651   2.692  50.224  1.00  0.00     0.169 HD
BRANCH   8  11
HETATM   11  C15 UNL     1      23.553   5.307  50.650  1.00  0.00     0.120 C 
HETATM   12  C16 UNL     1      23.074   6.547  50.552  1.00  0.00     0.038 C 
HETATM   13  C17 UNL     1      23.485   7.168  49.262  1.00  0.00     0.231 C 
HETATM   14  O3  UNL     1      24.381   6.262  48.753  1.00  0.00    -0.276 OA
HETATM   15  N2  UNL     1      24.270   5.111  49.444  1.00  0.00    -0.261 N 
HETATM   16  H14 UNL     1      24.679   4.223  49.090  1.00  0.00     0.194 HD
ENDBRANCH   8  11
ENDBRANCH   1   7
BRANCH   5  17
HETATM   17  C7  UNL     1      25.374  -0.588  54.267  1.00  0.00     0.192 C 
HETATM   18  O2  UNL     1      24.990  -1.198  55.323  1.00  0.00    -0.287 OA
BRANCH  17  19
HETATM   19  C8  UNL     1      26.819  -0.564  54.051  1.00  0.00     0.015 A 
HETATM   20  C9  UNL     1      27.574   0.283  54.817  1.00  0.00     0.015 A 
HETATM   21  C10 UNL     1      28.942   0.342  54.656  1.00  0.00     0.001 A 
HETATM   22  C11 UNL     1      29.610  -0.430  53.736  1.00  0.00     0.000 A 
HETATM   23  C12 UNL     1      28.800  -1.247  53.011  1.00  0.00     0.001 A 
HETATM   24  C13 UNL     1      27.425  -1.380  53.095  1.00  0.00     0.015 A 
ENDBRANCH  17  19
ENDBRANCH   5  17
TORSDOF 4
ENDMDL
MODEL 5
REMARK VINA RESULT:      -7.8      2.306      2.864
REMARK  4 active torsions:
REMARK  status: ('A' for Active; 'I' for Inactive)
REMARK       I    between atoms: C1_2  and  N1_3 
REMARK    1  A    between atoms: C1_2  and  C15_18 
REMARK    2  A    between atoms: N1_3  and  C2_4 
REMARK    3  A    between atoms: C6_8  and  C7_9 
REMARK    4  A    between atoms: C7_9  and  C8_11 
ROOT
HETATM    1  C2  UNL     1      22.332   1.854  52.174  1.00  0.00     0.035 A 
HETATM    2  C3  UNL     1      22.128   3.221  52.309  1.00  0.00     0.029 A 
HETATM    3  C4  UNL     1      23.110   4.184  52.186  1.00  0.00     0.003 A 
HETATM    4  C5  UNL     1      24.392   3.723  51.905  1.00  0.00     0.015 A 
HETATM    5  C6  UNL     1      24.633   2.373  51.763  1.00  0.00     0.017 A 
HETATM    6  C14 UNL     1      23.620   1.444  51.894  1.00  0.00     0.045 A 
ENDROOT
BRANCH   1   7
HETATM    7  N1  UNL     1      21.205   1.000  52.333  1.00  0.00    -0.322 N 
HETATM    8  C1  UNL     1      20.784   0.210  53.459  1.00  0.00     0.274 C 
HETATM    9  O1  UNL     1      21.497   0.245  54.502  1.00  0.00    -0.266 OA
HETATM   10  H1  UNL     1      20.627   0.983  51.459  1.00  0.00     0.169 HD
BRANCH   8  11
HETATM   11  C15 UNL     1      19.565  -0.578  53.320  1.00  0.00     0.120 C 
HETATM   12  C16 UNL     1      18.485  -0.471  52.547  1.00  0.00     0.038 C 
HETATM   13  C17 UNL     1      17.526  -1.575  52.830  1.00  0.00     0.231 C 
HETATM   14  O3  UNL     1      18.239  -2.399  53.663  1.00  0.00    -0.276 OA
HETATM   15  N2  UNL     1      19.325  -1.734  54.102  1.00  0.00    -0.261 N 
HETATM   16  H14 UNL     1      19.879  -2.073  54.914  1.00  0.00     0.194 HD
ENDBRANCH   8  11
ENDBRANCH   1   7
BRANCH   5  17
HETATM   17  C7  UNL     1      26.000   1.965  51.465  1.00  0.00     0.192 C 
HETATM   18  O2  UNL     1      26.487   2.423  50.374  1.00  0.00    -0.287 OA
BRANCH  17  19
HETATM   19  C8  UNL     1      26.897   1.105  52.234  1.00  0.00     0.015 A 
HETATM   20  C9  UNL     1      26.723  -0.250  52.151  1.00  0.00     0.015 A 
HETATM   21  C10 UNL     1      27.543  -1.106  52.855  1.00  0.00     0.001 A 
HETATM   22  C11 UNL     1      28.560  -0.655  53.662  1.00  0.00     0.000 A 
HETATM   23  C12 UNL     1      28.676   0.699  53.697  1.00  0.00     0.001 A 
HETATM   24  C13 UNL     1      27.908   1.639  53.033  1.00  0.00     0.015 A 
ENDBRANCH  17  19
ENDBRANCH   5  17
TORSDOF 4
ENDMDL
MODEL 6
REMARK VINA RESULT:      -7.7      2.173      2.480
REMARK  4 active torsions:
REMARK  status: ('A' for Active; 'I' for Inactive)
REMARK       I    between atoms: C1_2  and  N1_3 
REMARK    1  A    between atoms: C1_2  and  C15_18 
REMARK    2  A    between atoms: N1_3  and  C2_4 
REMARK    3  A    between atoms: C6_8  and  C7_9 
REMARK    4  A    between atoms: C7_9  and  C8_11 
ROOT
HETATM    1  C2  UNL     1      22.152   0.849  53.128  1.00  0.00     0.035 A 
HETATM    2  C3  UNL     1      22.080  -0.156  54.083  1.00  0.00     0.029 A 
HETATM    3  C4  UNL     1      23.155  -0.893  54.539  1.00  0.00     0.003 A 
HETATM    4  C5  UNL     1      24.393  -0.585  53.984  1.00  0.00     0.015 A 
HETATM    5  C6  UNL     1      24.503   0.407  53.033  1.00  0.00     0.017 A 
HETATM    6  C14 UNL     1      23.401   1.120  52.606  1.00  0.00     0.045 A 
ENDROOT
BRANCH   1   7
HETATM    7  N1  UNL     1      20.942   1.509  52.772  1.00  0.00    -0.322 N 
HETATM    8  C1  UNL     1      19.922   1.141  51.828  1.00  0.00     0.274 C 
HETATM    9  O1  UNL     1      20.076   0.066  51.182  1.00  0.00    -0.266 OA
HETATM   10  H1  UNL     1      20.832   2.397  53.317  1.00  0.00     0.169 HD
BRANCH   8  11
HETATM   11  C15 UNL     1      18.779   2.035  51.679  1.00  0.00     0.120 C 
HETATM   12  C16 UNL     1      17.498   1.843  51.366  1.00  0.00     0.038 C 
HETATM   13  C17 UNL     1      16.761   3.138  51.356  1.00  0.00     0.231 C 
HETATM   14  O3  UNL     1      17.676   4.019  51.875  1.00  0.00    -0.276 OA
HETATM   15  N2  UNL     1      18.889   3.433  51.872  1.00  0.00    -0.261 N 
HETATM   16  H14 UNL     1      19.759   3.986  52.002  1.00  0.00     0.194 HD
ENDBRANCH   8  11
ENDBRANCH   1   7
BRANCH   5  17
HETATM   17  C7  UNL     1      25.832   0.677  52.500  1.00  0.00     0.192 C 
HETATM   18  O2  UNL     1      25.878   1.502  51.524  1.00  0.00    -0.287 OA
BRANCH  17  19
HETATM   19  C8  UNL     1      27.125   0.137  52.920  1.00  0.00     0.015 A 
HETATM   20  C9  UNL     1      27.370  -1.193  52.708  1.00  0.00     0.015 A 
HETATM   21  C10 UNL     1      28.573  -1.752  53.083  1.00  0.00     0.001 A 
HETATM   22  C11 UNL     1      29.572  -1.019  53.678  1.00  0.00     0.000 A 
HETATM   23  C12 UNL     1      29.262   0.292  53.857  1.00  0.00     0.001 A 
HETATM   24  C13 UNL     1      28.090   0.946  53.519  1.00  0.00     0.015 A 
ENDBRANCH  17  19
ENDBRANCH   5  17
TORSDOF 4
ENDMDL
MODEL 7
REMARK VINA RESULT:      -7.4      4.542      7.955
REMARK  4 active torsions:
REMARK  status: ('A' for Active; 'I' for Inactive)
REMARK       I    between atoms: C1_2  and  N1_3 
REMARK    1  A    between atoms: C1_2  and  C15_18 
REMARK    2  A    between atoms: N1_3  and  C2_4 
REMARK    3  A    between atoms: C6_8  and  C7_9 
REMARK    4  A    between atoms: C7_9  and  C8_11 
ROOT
HETATM    1  C2  UNL     1      24.278   0.689  52.667  1.00  0.00     0.035 A 
HETATM    2  C3  UNL     1      23.264   0.174  53.464  1.00  0.00     0.029 A 
HETATM    3  C4  UNL     1      21.942   0.574  53.419  1.00  0.00     0.003 A 
HETATM    4  C5  UNL     1      21.631   1.568  52.498  1.00  0.00     0.015 A 
HETATM    5  C6  UNL     1      22.611   2.102  51.690  1.00  0.00     0.017 A 
HETATM    6  C14 UNL     1      23.921   1.672  51.767  1.00  0.00     0.045 A 
ENDROOT
BRANCH   1   7
HETATM    7  N1  UNL     1      25.588   0.160  52.845  1.00  0.00    -0.322 N 
HETATM    8  C1  UNL     1      26.652   0.580  53.716  1.00  0.00     0.274 C 
HETATM    9  O1  UNL     1      26.442   1.574  54.467  1.00  0.00    -0.266 OA
HETATM   10  H1  UNL     1      25.744  -0.662  52.214  1.00  0.00     0.169 HD
BRANCH   8  11
HETATM   11  C15 UNL     1      27.902  -0.170  53.673  1.00  0.00     0.120 C 
HETATM   12  C16 UNL     1      29.177   0.155  53.888  1.00  0.00     0.038 C 
HETATM   13  C17 UNL     1      30.060  -1.029  53.700  1.00  0.00     0.231 C 
HETATM   14  O3  UNL     1      29.167  -2.062  53.564  1.00  0.00    -0.276 OA
HETATM   15  N2  UNL     1      27.941  -1.548  53.348  1.00  0.00    -0.261 N 
HETATM   16  H14 UNL     1      27.161  -2.134  52.990  1.00  0.00     0.194 HD
ENDBRANCH   8  11
ENDBRANCH   1   7
BRANCH   5  17
HETATM   17  C7  UNL     1      22.210   3.138  50.746  1.00  0.00     0.192 C 
HETATM   18  O2  UNL     1      21.566   2.728  49.719  1.00  0.00    -0.287 OA
BRANCH  17  19
HETATM   19  C8  UNL     1      22.438   4.581  50.804  1.00  0.00     0.015 A 
HETATM   20  C9  UNL     1      23.716   5.025  51.011  1.00  0.00     0.015 A 
HETATM   21  C10 UNL     1      23.987   6.376  51.071  1.00  0.00     0.001 A 
HETATM   22  C11 UNL     1      23.008   7.330  50.929  1.00  0.00     0.000 A 
HETATM   23  C12 UNL     1      21.765   6.819  50.726  1.00  0.00     0.001 A 
HETATM   24  C13 UNL     1      21.391   5.489  50.650  1.00  0.00     0.015 A 
ENDBRANCH  17  19
ENDBRANCH   5  17
TORSDOF 4
ENDMDL
MODEL 8
REMARK VINA RESULT:      -7.4      7.673     11.532
REMARK  4 active torsions:
REMARK  status: ('A' for Active; 'I' for Inactive)
REMARK       I    between atoms: C1_2  and  N1_3 
REMARK    1  A    between atoms: C1_2  and  C15_18 
REMARK    2  A    between atoms: N1_3  and  C2_4 
REMARK    3  A    between atoms: C6_8  and  C7_9 
REMARK    4  A    between atoms: C7_9  and  C8_11 
ROOT
HETATM    1  C2  UNL     1      28.876   5.627  48.177  1.00  0.00     0.035 A 
HETATM    2  C3  UNL     1      28.622   6.992  48.143  1.00  0.00     0.029 A 
HETATM    3  C4  UNL     1      27.428   7.584  48.507  1.00  0.00     0.003 A 
HETATM    4  C5  UNL     1      26.422   6.725  48.938  1.00  0.00     0.015 A 
HETATM    5  C6  UNL     1      26.638   5.365  48.985  1.00  0.00     0.017 A 
HETATM    6  C14 UNL     1      27.848   4.815  48.612  1.00  0.00     0.045 A 
ENDROOT
BRANCH   1   7
HETATM    7  N1  UNL     1      30.165   5.186  47.766  1.00  0.00    -0.322 N 
HETATM    8  C1  UNL     1      31.410   5.144  48.484  1.00  0.00     0.274 C 
HETATM    9  O1  UNL     1      31.415   5.555  49.680  1.00  0.00    -0.266 OA
HETATM   10  H1  UNL     1      30.142   4.850  46.774  1.00  0.00     0.169 HD
BRANCH   8  11
HETATM   11  C15 UNL     1      32.583   4.632  47.785  1.00  0.00     0.120 C 
HETATM   12  C16 UNL     1      32.798   4.209  46.540  1.00  0.00     0.038 C 
HETATM   13  C17 UNL     1      34.216   3.787  46.367  1.00  0.00     0.231 C 
HETATM   14  O3  UNL     1      34.805   4.193  47.537  1.00  0.00    -0.276 OA
HETATM   15  N2  UNL     1      33.838   4.493  48.426  1.00  0.00    -0.261 N 
HETATM   16  H14 UNL     1      34.045   4.598  49.439  1.00  0.00     0.194 HD
ENDBRANCH   8  11
ENDBRANCH   1   7
BRANCH   5  17
HETATM   17  C7  UNL     1      25.538   4.529  49.450  1.00  0.00     0.192 C 
HETATM   18  O2  UNL     1      24.455   4.616  48.774  1.00  0.00    -0.287 OA
BRANCH  17  19
HETATM   19  C8  UNL     1      25.493   3.605  50.581  1.00  0.00     0.015 A 
HETATM   20  C9  UNL     1      26.460   2.639  50.666  1.00  0.00     0.015 A 
HETATM   21  C10 UNL     1      26.466   1.743  51.714  1.00  0.00     0.001 A 
HETATM   22  C11 UNL     1      25.520   1.769  52.711  1.00  0.00     0.000 A 
HETATM   23  C12 UNL     1      24.592   2.752  52.564  1.00  0.00     0.001 A 
HETATM   24  C13 UNL     1      24.499   3.695  51.556  1.00  0.00     0.015 A 
ENDBRANCH  17  19
ENDBRANCH   5  17
TORSDOF 4
ENDMDL
MODEL 9
REMARK VINA RESULT:      -7.4      5.820      8.790
REMARK  4 active torsions:
REMARK  status: ('A' for Active; 'I' for Inactive)
REMARK       I    between atoms: C1_2  and  N1_3 
REMARK    1  A    between atoms: C1_2  and  C15_18 
REMARK    2  A    between atoms: N1_3  and  C2_4 
REMARK    3  A    between atoms: C6_8  and  C7_9 
REMARK    4  A    between atoms: C7_9  and  C8_11 
ROOT
HETATM    1  C2  UNL     1      23.878   5.036  51.401  1.00  0.00     0.035 A 
HETATM    2  C3  UNL     1      22.542   5.387  51.543  1.00  0.00     0.029 A 
HETATM    3  C4  UNL     1      21.529   4.518  51.897  1.00  0.00     0.003 A 
HETATM    4  C5  UNL     1      21.902   3.197  52.122  1.00  0.00     0.015 A 
HETATM    5  C6  UNL     1      23.219   2.811  51.991  1.00  0.00     0.017 A 
HETATM    6  C14 UNL     1      24.201   3.714  51.636  1.00  0.00     0.045 A 
ENDROOT
BRANCH   1   7
HETATM    7  N1  UNL     1      24.794   6.061  51.029  1.00  0.00    -0.322 N 
HETATM    8  C1  UNL     1      25.507   6.273  49.798  1.00  0.00     0.274 C 
HETATM    9  O1  UNL     1      25.327   5.442  48.862  1.00  0.00    -0.266 OA
HETATM   10  H1  UNL     1      24.930   6.738  51.816  1.00  0.00     0.169 HD
BRANCH   8  11
HETATM   11  C15 UNL     1      26.390   7.430  49.715  1.00  0.00     0.120 C 
HETATM   12  C16 UNL     1      27.133   7.950  48.738  1.00  0.00     0.038 C 
HETATM   13  C17 UNL     1      27.853   9.163  49.215  1.00  0.00     0.231 C 
HETATM   14  O3  UNL     1      27.301   9.384  50.452  1.00  0.00    -0.276 OA
HETATM   15  N2  UNL     1      26.614   8.286  50.821  1.00  0.00    -0.261 N 
HETATM   16  H14 UNL     1      26.311   8.138  51.804  1.00  0.00     0.194 HD
ENDBRANCH   8  11
ENDBRANCH   1   7
BRANCH   5  17
HETATM   17  C7  UNL     1      23.534   1.412  52.247  1.00  0.00     0.192 C 
HETATM   18  O2  UNL     1      24.634   0.994  51.746  1.00  0.00    -0.287 OA
BRANCH  17  19
HETATM   19  C8  UNL     1      22.772   0.414  52.995  1.00  0.00     0.015 A 
HETATM   20  C9  UNL     1      23.383  -0.210  54.050  1.00  0.00     0.015 A 
HETATM   21  C10 UNL     1      22.708  -1.158  54.790  1.00  0.00     0.001 A 
HETATM   22  C11 UNL     1      21.411  -1.520  54.515  1.00  0.00     0.000 A 
HETATM   23  C12 UNL     1      20.867  -0.862  53.457  1.00  0.00     0.001 A 
HETATM   24  C13 UNL     1      21.456   0.098  52.655  1.00  0.00     0.015 A 
ENDBRANCH  17  19
ENDBRANCH   5  17
TORSDOF 4
ENDMDL
