MODEL 1
REMARK VINA RESULT:      -7.4      0.000      0.000
REMARK  5 active torsions:
REMARK  status: ('A' for Active; 'I' for Inactive)
REMARK    1  A    between atoms: S1_2  and  C2_3 
REMARK    2  A    between atoms: N1_5  and  C4_6 
REMARK    3  A    between atoms: C9_11  and  C10_12 
REMARK    4  A    between atoms: C10_12  and  C11_13 
REMARK       I    between atoms: C11_13  and  N2_15 
REMARK    5  A    between atoms: N2_15  and  C12_16 
ROOT
HETATM    1  C4  UNL     1      24.091   2.508  51.060  1.00  0.00     0.046 A 
HETATM    2  C5  UNL     1      23.082   2.016  50.271  1.00  0.00     0.030 A 
HETATM    3  C6  UNL     1      22.102   1.208  50.800  1.00  0.00     0.002 A 
HETATM    4  C7  UNL     1      22.181   0.913  52.158  1.00  0.00     0.001 A 
HETATM    5  C8  UNL     1      23.202   1.416  52.938  1.00  0.00     0.010 A 
HETATM    6  C9  UNL     1      24.197   2.236  52.402  1.00  0.00    -0.022 A 
ENDROOT
BRANCH   6   7
HETATM    7  C10 UNL     1      25.264   2.745  53.281  1.00  0.00     0.144 C 
BRANCH   7   8
HETATM    8  C11 UNL     1      26.102   1.659  53.846  1.00  0.00     0.226 C 
HETATM    9  O1  UNL     1      26.290   1.246  55.028  1.00  0.00    -0.273 OA
HETATM   10  N2  UNL     1      26.805   0.990  52.808  1.00  0.00    -0.327 N 
HETATM   11  H11 UNL     1      26.831   1.127  51.774  1.00  0.00     0.169 HD
BRANCH  10  12
HETATM   12  C12 UNL     1      27.700  -0.101  52.995  1.00  0.00     0.034 A 
HETATM   13  C13 UNL     1      29.010  -0.132  53.434  1.00  0.00     0.029 A 
HETATM   14  C14 UNL     1      29.667  -1.323  53.529  1.00  0.00     0.002 A 
HETATM   15  C15 UNL     1      29.066  -2.511  53.200  1.00  0.00     0.000 A 
HETATM   16  C16 UNL     1      27.756  -2.526  52.756  1.00  0.00     0.002 A 
HETATM   17  C17 UNL     1      27.081  -1.307  52.657  1.00  0.00     0.029 A 
ENDBRANCH  10  12
ENDBRANCH   7   8
ENDBRANCH   6   7
BRANCH   1  18
HETATM   18  N1  UNL     1      25.071   3.333  50.465  1.00  0.00    -0.312 N 
HETATM   19  C2  UNL     1      25.619   4.578  50.037  1.00  0.00     0.092 A 
HETATM   20  C3  UNL     1      26.342   3.505  49.802  1.00  0.00     0.135 A 
BRANCH  19  21
HETATM   21  S1  UNL     1      25.308   6.320  49.985  1.00  0.00    -0.115 SA
HETATM   22  C1  UNL     1      25.411   6.936  48.279  1.00  0.00     0.097 C 
ENDBRANCH  19  21
ENDBRANCH   1  18
TORSDOF 5
ENDMDL
MODEL 2
REMARK VINA RESULT:      -7.3      1.615      1.697
REMARK  5 active torsions:
REMARK  status: ('A' for Active; 'I' for Inactive)
REMARK    1  A    between atoms: S1_2  and  C2_3 
REMARK    2  A    between atoms: N1_5  and  C4_6 
REMARK    3  A    between atoms: C9_11  and  C10_12 
REMARK    4  A    between atoms: C10_12  and  C11_13 
REMARK       I    between atoms: C11_13  and  N2_15 
REMARK    5  A    between atoms: N2_15  and  C12_16 
ROOT
HETATM    1  C4  UNL     1      22.975   1.959  51.162  1.00  0.00     0.046 A 
HETATM    2  C5  UNL     1      21.872   1.351  50.617  1.00  0.00     0.030 A 
HETATM    3  C6  UNL     1      21.276   0.279  51.243  1.00  0.00     0.002 A 
HETATM    4  C7  UNL     1      21.838  -0.156  52.440  1.00  0.00     0.001 A 
HETATM    5  C8  UNL     1      22.947   0.467  52.974  1.00  0.00     0.010 A 
HETATM    6  C9  UNL     1      23.553   1.554  52.339  1.00  0.00    -0.022 A 
ENDROOT
BRANCH   6   7
HETATM    7  C10 UNL     1      24.736   2.181  52.955  1.00  0.00     0.144 C 
BRANCH   7   8
HETATM    8  C11 UNL     1      26.002   1.517  52.560  1.00  0.00     0.226 C 
HETATM    9  O1  UNL     1      26.710   1.569  51.512  1.00  0.00    -0.273 OA
HETATM   10  N2  UNL     1      26.458   0.668  53.606  1.00  0.00    -0.327 N 
HETATM   11  H11 UNL     1      26.074   0.447  54.550  1.00  0.00     0.169 HD
BRANCH  10  12
HETATM   12  C12 UNL     1      27.641  -0.121  53.564  1.00  0.00     0.034 A 
HETATM   13  C13 UNL     1      28.947   0.185  53.903  1.00  0.00     0.029 A 
HETATM   14  C14 UNL     1      29.921  -0.758  53.770  1.00  0.00     0.002 A 
HETATM   15  C15 UNL     1      29.652  -2.021  53.306  1.00  0.00     0.000 A 
HETATM   16  C16 UNL     1      28.360  -2.370  52.956  1.00  0.00     0.002 A 
HETATM   17  C17 UNL     1      27.359  -1.405  53.090  1.00  0.00     0.029 A 
ENDBRANCH  10  12
ENDBRANCH   7   8
ENDBRANCH   6   7
BRANCH   1  18
HETATM   18  N1  UNL     1      23.547   3.054  50.478  1.00  0.00    -0.312 N 
HETATM   19  C2  UNL     1      23.854   4.433  50.284  1.00  0.00     0.092 A 
HETATM   20  C3  UNL     1      24.302   3.597  49.373  1.00  0.00     0.135 A 
BRANCH  19  21
HETATM   21  S1  UNL     1      23.643   6.044  50.985  1.00  0.00    -0.115 SA
HETATM   22  C1  UNL     1      21.888   6.517  50.983  1.00  0.00     0.097 C 
ENDBRANCH  19  21
ENDBRANCH   1  18
TORSDOF 5
ENDMDL
MODEL 3
REMARK VINA RESULT:      -7.0      2.370      6.200
REMARK  5 active torsions:
REMARK  status: ('A' for Active; 'I' for Inactive)
REMARK    1  A    between atoms: S1_2  and  C2_3 
REMARK    2  A    between atoms: N1_5  and  C4_6 
REMARK    3  A    between atoms: C9_11  and  C10_12 
REMARK    4  A    between atoms: C10_12  and  C11_13 
REMARK       I    between atoms: C11_13  and  N2_15 
REMARK    5  A    between atoms: N2_15  and  C12_16 
ROOT
HETATM    1  C4  UNL     1      23.888  -0.209  53.467  1.00  0.00     0.046 A 
HETATM    2  C5  UNL     1      23.459  -0.909  54.567  1.00  0.00     0.030 A 
HETATM    3  C6  UNL     1      22.143  -0.858  54.967  1.00  0.00     0.002 A 
HETATM    4  C7  UNL     1      21.276  -0.072  54.214  1.00  0.00     0.001 A 
HETATM    5  C8  UNL     1      21.723   0.625  53.111  1.00  0.00     0.010 A 
HETATM    6  C9  UNL     1      23.058   0.575  52.704  1.00  0.00    -0.022 A 
ENDROOT
BRANCH   6   7
HETATM    7  C10 UNL     1      23.480   1.340  51.518  1.00  0.00     0.144 C 
BRANCH   7   8
HETATM    8  C11 UNL     1      23.904   2.722  51.853  1.00  0.00     0.226 C 
HETATM    9  O1  UNL     1      24.251   3.274  52.938  1.00  0.00    -0.273 OA
HETATM   10  N2  UNL     1      23.898   3.534  50.687  1.00  0.00    -0.327 N 
HETATM   11  H11 UNL     1      23.659   3.335  49.691  1.00  0.00     0.169 HD
BRANCH  10  12
HETATM   12  C12 UNL     1      24.250   4.913  50.647  1.00  0.00     0.034 A 
HETATM   13  C13 UNL     1      23.651   6.017  51.224  1.00  0.00     0.029 A 
HETATM   14  C14 UNL     1      24.186   7.256  51.035  1.00  0.00     0.002 A 
HETATM   15  C15 UNL     1      25.316   7.453  50.282  1.00  0.00     0.000 A 
HETATM   16  C16 UNL     1      25.947   6.375  49.687  1.00  0.00     0.002 A 
HETATM   17  C17 UNL     1      25.401   5.105  49.878  1.00  0.00     0.029 A 
ENDBRANCH  10  12
ENDBRANCH   7   8
ENDBRANCH   6   7
BRANCH   1  18
HETATM   18  N1  UNL     1      25.248  -0.296  53.101  1.00  0.00    -0.312 N 
HETATM   19  C2  UNL     1      26.570   0.212  52.926  1.00  0.00     0.092 A 
HETATM   20  C3  UNL     1      26.373  -1.046  52.593  1.00  0.00     0.135 A 
BRANCH  19  21
HETATM   21  S1  UNL     1      27.569   1.660  53.117  1.00  0.00    -0.115 SA
HETATM   22  C1  UNL     1      29.053   1.287  54.096  1.00  0.00     0.097 C 
ENDBRANCH  19  21
ENDBRANCH   1  18
TORSDOF 5
ENDMDL
MODEL 4
REMARK VINA RESULT:      -7.0      2.698      4.413
REMARK  5 active torsions:
REMARK  status: ('A' for Active; 'I' for Inactive)
REMARK    1  A    between atoms: S1_2  and  C2_3 
REMARK    2  A    between atoms: N1_5  and  C4_6 
REMARK    3  A    between atoms: C9_11  and  C10_12 
REMARK    4  A    between atoms: C10_12  and  C11_13 
REMARK       I    between atoms: C11_13  and  N2_15 
REMARK    5  A    between atoms: N2_15  and  C12_16 
ROOT
HETATM    1  C4  UNL     1      22.324   1.657  50.508  1.00  0.00     0.046 A 
HETATM    2  C5  UNL     1      21.609   1.060  49.499  1.00  0.00     0.030 A 
HETATM    3  C6  UNL     1      21.796   1.432  48.187  1.00  0.00     0.002 A 
HETATM    4  C7  UNL     1      22.732   2.431  47.933  1.00  0.00     0.001 A 
HETATM    5  C8  UNL     1      23.442   3.019  48.958  1.00  0.00     0.010 A 
HETATM    6  C9  UNL     1      23.253   2.643  50.290  1.00  0.00    -0.022 A 
ENDROOT
BRANCH   6   7
HETATM    7  C10 UNL     1      24.039   3.306  51.346  1.00  0.00     0.144 C 
BRANCH   7   8
HETATM    8  C11 UNL     1      25.440   2.821  51.400  1.00  0.00     0.226 C 
HETATM    9  O1  UNL     1      26.417   2.923  50.601  1.00  0.00    -0.273 OA
HETATM   10  N2  UNL     1      25.668   2.111  52.611  1.00  0.00    -0.327 N 
HETATM   11  H11 UNL     1      25.050   1.886  53.421  1.00  0.00     0.169 HD
BRANCH  10  12
HETATM   12  C12 UNL     1      26.901   1.510  52.989  1.00  0.00     0.034 A 
HETATM   13  C13 UNL     1      28.051   2.062  53.524  1.00  0.00     0.029 A 
HETATM   14  C14 UNL     1      29.119   1.264  53.805  1.00  0.00     0.002 A 
HETATM   15  C15 UNL     1      29.097  -0.088  53.575  1.00  0.00     0.000 A 
HETATM   16  C16 UNL     1      27.967  -0.681  53.042  1.00  0.00     0.002 A 
HETATM   17  C17 UNL     1      26.871   0.133  52.752  1.00  0.00     0.029 A 
ENDBRANCH  10  12
ENDBRANCH   7   8
ENDBRANCH   6   7
BRANCH   1  18
HETATM   18  N1  UNL     1      22.092   1.237  51.836  1.00  0.00    -0.312 N 
HETATM   19  C2  UNL     1      22.350   0.462  53.005  1.00  0.00     0.092 A 
HETATM   20  C3  UNL     1      21.348   1.311  53.071  1.00  0.00     0.135 A 
BRANCH  19  21
HETATM   21  S1  UNL     1      23.415  -0.784  53.673  1.00  0.00    -0.115 SA
HETATM   22  C1  UNL     1      22.839  -1.302  55.317  1.00  0.00     0.097 C 
ENDBRANCH  19  21
ENDBRANCH   1  18
TORSDOF 5
ENDMDL
MODEL 5
REMARK VINA RESULT:      -6.9      3.178      4.567
REMARK  5 active torsions:
REMARK  status: ('A' for Active; 'I' for Inactive)
REMARK    1  A    between atoms: S1_2  and  C2_3 
REMARK    2  A    between atoms: N1_5  and  C4_6 
REMARK    3  A    between atoms: C9_11  and  C10_12 
REMARK    4  A    between atoms: C10_12  and  C11_13 
REMARK       I    between atoms: C11_13  and  N2_15 
REMARK    5  A    between atoms: N2_15  and  C12_16 
ROOT
HETATM    1  C4  UNL     1      22.020   2.476  52.184  1.00  0.00     0.046 A 
HETATM    2  C5  UNL     1      21.613   3.773  51.995  1.00  0.00     0.030 A 
HETATM    3  C6  UNL     1      22.438   4.826  52.322  1.00  0.00     0.002 A 
HETATM    4  C7  UNL     1      23.689   4.518  52.848  1.00  0.00     0.001 A 
HETATM    5  C8  UNL     1      24.082   3.208  53.032  1.00  0.00     0.010 A 
HETATM    6  C9  UNL     1      23.246   2.140  52.701  1.00  0.00    -0.022 A 
ENDROOT
BRANCH   6   7
HETATM    7  C10 UNL     1      23.718   0.761  52.919  1.00  0.00     0.144 C 
BRANCH   7   8
HETATM    8  C11 UNL     1      25.142   0.580  52.543  1.00  0.00     0.226 C 
HETATM    9  O1  UNL     1      25.809   0.915  51.520  1.00  0.00    -0.273 OA
HETATM   10  N2  UNL     1      25.838  -0.109  53.572  1.00  0.00    -0.327 N 
HETATM   11  H11 UNL     1      25.535  -0.488  54.496  1.00  0.00     0.169 HD
BRANCH  10  12
HETATM   12  C12 UNL     1      27.220  -0.450  53.541  1.00  0.00     0.034 A 
HETATM   13  C13 UNL     1      27.863  -1.580  53.070  1.00  0.00     0.029 A 
HETATM   14  C14 UNL     1      29.220  -1.673  53.154  1.00  0.00     0.002 A 
HETATM   15  C15 UNL     1      29.985  -0.671  53.695  1.00  0.00     0.000 A 
HETATM   16  C16 UNL     1      29.383   0.477  54.177  1.00  0.00     0.002 A 
HETATM   17  C17 UNL     1      27.992   0.575  54.093  1.00  0.00     0.029 A 
ENDBRANCH  10  12
ENDBRANCH   7   8
ENDBRANCH   6   7
BRANCH   1  18
HETATM   18  N1  UNL     1      21.134   1.434  51.833  1.00  0.00    -0.312 N 
HETATM   19  C2  UNL     1      20.303   0.305  52.098  1.00  0.00     0.092 A 
HETATM   20  C3  UNL     1      20.368   0.708  50.847  1.00  0.00     0.135 A 
BRANCH  19  21
HETATM   21  S1  UNL     1      19.728  -0.759  53.390  1.00  0.00    -0.115 SA
HETATM   22  C1  UNL     1      21.104  -1.262  54.464  1.00  0.00     0.097 C 
ENDBRANCH  19  21
ENDBRANCH   1  18
TORSDOF 5
ENDMDL
MODEL 6
REMARK VINA RESULT:      -6.9      2.914      4.033
REMARK  5 active torsions:
REMARK  status: ('A' for Active; 'I' for Inactive)
REMARK    1  A    between atoms: S1_2  and  C2_3 
REMARK    2  A    between atoms: N1_5  and  C4_6 
REMARK    3  A    between atoms: C9_11  and  C10_12 
REMARK    4  A    between atoms: C10_12  and  C11_13 
REMARK       I    between atoms: C11_13  and  N2_15 
REMARK    5  A    between atoms: N2_15  and  C12_16 
ROOT
HETATM    1  C4  UNL     1      21.093   0.703  52.766  1.00  0.00     0.046 A 
HETATM    2  C5  UNL     1      20.213  -0.034  53.518  1.00  0.00     0.030 A 
HETATM    3  C6  UNL     1      20.638  -1.137  54.223  1.00  0.00     0.002 A 
HETATM    4  C7  UNL     1      21.988  -1.468  54.139  1.00  0.00     0.001 A 
HETATM    5  C8  UNL     1      22.860  -0.716  53.379  1.00  0.00     0.010 A 
HETATM    6  C9  UNL     1      22.428   0.403  52.663  1.00  0.00    -0.022 A 
ENDROOT
BRANCH   6   7
HETATM    7  C10 UNL     1      23.403   1.170  51.868  1.00  0.00     0.144 C 
BRANCH   7   8
HETATM    8  C11 UNL     1      24.505   1.721  52.695  1.00  0.00     0.226 C 
HETATM    9  O1  UNL     1      24.568   2.689  53.508  1.00  0.00    -0.273 OA
HETATM   10  N2  UNL     1      25.695   0.971  52.490  1.00  0.00    -0.327 N 
HETATM   11  H11 UNL     1      25.913   0.146  51.889  1.00  0.00     0.169 HD
BRANCH  10  12
HETATM   12  C12 UNL     1      26.944   1.225  53.124  1.00  0.00     0.034 A 
HETATM   13  C13 UNL     1      27.824   2.284  52.999  1.00  0.00     0.029 A 
HETATM   14  C14 UNL     1      28.977   2.299  53.726  1.00  0.00     0.002 A 
HETATM   15  C15 UNL     1      29.301   1.287  54.593  1.00  0.00     0.000 A 
HETATM   16  C16 UNL     1      28.449   0.209  54.749  1.00  0.00     0.002 A 
HETATM   17  C17 UNL     1      27.268   0.191  54.005  1.00  0.00     0.029 A 
ENDBRANCH  10  12
ENDBRANCH   7   8
ENDBRANCH   6   7
BRANCH   1  18
HETATM   18  N1  UNL     1      20.603   1.825  52.063  1.00  0.00    -0.312 N 
HETATM   19  C2  UNL     1      20.396   2.627  50.901  1.00  0.00     0.092 A 
HETATM   20  C3  UNL     1      19.890   3.080  52.028  1.00  0.00     0.135 A 
BRANCH  19  21
HETATM   21  S1  UNL     1      20.722   2.716  49.164  1.00  0.00    -0.115 SA
HETATM   22  C1  UNL     1      21.493   1.179  48.578  1.00  0.00     0.097 C 
ENDBRANCH  19  21
ENDBRANCH   1  18
TORSDOF 5
ENDMDL
MODEL 7
REMARK VINA RESULT:      -6.8      2.059      2.841
REMARK  5 active torsions:
REMARK  status: ('A' for Active; 'I' for Inactive)
REMARK    1  A    between atoms: S1_2  and  C2_3 
REMARK    2  A    between atoms: N1_5  and  C4_6 
REMARK    3  A    between atoms: C9_11  and  C10_12 
REMARK    4  A    between atoms: C10_12  and  C11_13 
REMARK       I    between atoms: C11_13  and  N2_15 
REMARK    5  A    between atoms: N2_15  and  C12_16 
ROOT
HETATM    1  C4  UNL     1      21.906   1.075  53.034  1.00  0.00     0.046 A 
HETATM    2  C5  UNL     1      20.773   0.776  53.748  1.00  0.00     0.030 A 
HETATM    3  C6  UNL     1      20.721  -0.337  54.557  1.00  0.00     0.002 A 
HETATM    4  C7  UNL     1      21.857  -1.138  54.615  1.00  0.00     0.001 A 
HETATM    5  C8  UNL     1      22.989  -0.824  53.890  1.00  0.00     0.010 A 
HETATM    6  C9  UNL     1      23.042   0.305  53.070  1.00  0.00    -0.022 A 
ENDROOT
BRANCH   6   7
HETATM    7  C10 UNL     1      24.277   0.593  52.318  1.00  0.00     0.144 C 
BRANCH   7   8
HETATM    8  C11 UNL     1      25.497   0.433  53.147  1.00  0.00     0.226 C 
HETATM    9  O1  UNL     1      25.763   0.724  54.350  1.00  0.00    -0.273 OA
HETATM   10  N2  UNL     1      26.534  -0.171  52.383  1.00  0.00    -0.327 N 
HETATM   11  H11 UNL     1      26.579  -0.501  51.395  1.00  0.00     0.169 HD
BRANCH  10  12
HETATM   12  C12 UNL     1      27.839  -0.470  52.866  1.00  0.00     0.034 A 
HETATM   13  C13 UNL     1      28.871   0.362  53.261  1.00  0.00     0.029 A 
HETATM   14  C14 UNL     1      30.048  -0.174  53.690  1.00  0.00     0.002 A 
HETATM   15  C15 UNL     1      30.251  -1.529  53.749  1.00  0.00     0.000 A 
HETATM   16  C16 UNL     1      29.245  -2.397  53.364  1.00  0.00     0.002 A 
HETATM   17  C17 UNL     1      28.038  -1.852  52.922  1.00  0.00     0.029 A 
ENDBRANCH  10  12
ENDBRANCH   7   8
ENDBRANCH   6   7
BRANCH   1  18
HETATM   18  N1  UNL     1      21.905   2.229  52.220  1.00  0.00    -0.312 N 
HETATM   19  C2  UNL     1      22.243   3.576  51.896  1.00  0.00     0.092 A 
HETATM   20  C3  UNL     1      21.516   2.923  51.015  1.00  0.00     0.135 A 
BRANCH  19  21
HETATM   21  S1  UNL     1      23.108   5.002  52.487  1.00  0.00    -0.115 SA
HETATM   22  C1  UNL     1      23.840   5.925  51.104  1.00  0.00     0.097 C 
ENDBRANCH  19  21
ENDBRANCH   1  18
TORSDOF 5
ENDMDL
MODEL 8
REMARK VINA RESULT:      -6.7      3.239      6.636
REMARK  5 active torsions:
REMARK  status: ('A' for Active; 'I' for Inactive)
REMARK    1  A    between atoms: S1_2  and  C2_3 
REMARK    2  A    between atoms: N1_5  and  C4_6 
REMARK    3  A    between atoms: C9_11  and  C10_12 
REMARK    4  A    between atoms: C10_12  and  C11_13 
REMARK       I    between atoms: C11_13  and  N2_15 
REMARK    5  A    between atoms: N2_15  and  C12_16 
ROOT
HETATM    1  C4  UNL     1      25.776   1.242  51.980  1.00  0.00     0.046 A 
HETATM    2  C5  UNL     1      26.346   1.992  50.982  1.00  0.00     0.030 A 
HETATM    3  C6  UNL     1      25.712   3.110  50.489  1.00  0.00     0.002 A 
HETATM    4  C7  UNL     1      24.478   3.441  51.043  1.00  0.00     0.001 A 
HETATM    5  C8  UNL     1      23.919   2.677  52.046  1.00  0.00     0.010 A 
HETATM    6  C9  UNL     1      24.562   1.542  52.546  1.00  0.00    -0.022 A 
ENDROOT
BRANCH   6   7
HETATM    7  C10 UNL     1      23.918   0.762  53.619  1.00  0.00     0.144 C 
BRANCH   7   8
HETATM    8  C11 UNL     1      22.790  -0.063  53.123  1.00  0.00     0.226 C 
HETATM    9  O1  UNL     1      22.726  -1.236  52.649  1.00  0.00    -0.273 OA
HETATM   10  N2  UNL     1      21.570   0.659  53.227  1.00  0.00    -0.327 N 
HETATM   11  H11 UNL     1      21.347   1.618  53.573  1.00  0.00     0.169 HD
BRANCH  10  12
HETATM   12  C12 UNL     1      20.291   0.168  52.840  1.00  0.00     0.034 A 
HETATM   13  C13 UNL     1      19.404  -0.664  53.498  1.00  0.00     0.029 A 
HETATM   14  C14 UNL     1      18.221  -0.997  52.909  1.00  0.00     0.002 A 
HETATM   15  C15 UNL     1      17.871  -0.530  51.668  1.00  0.00     0.000 A 
HETATM   16  C16 UNL     1      18.728   0.306  50.975  1.00  0.00     0.002 A 
HETATM   17  C17 UNL     1      19.941   0.649  51.576  1.00  0.00     0.029 A 
ENDBRANCH  10  12
ENDBRANCH   7   8
ENDBRANCH   6   7
BRANCH   1  18
HETATM   18  N1  UNL     1      26.469   0.105  52.448  1.00  0.00    -0.312 N 
HETATM   19  C2  UNL     1      27.500  -0.569  53.168  1.00  0.00     0.092 A 
HETATM   20  C3  UNL     1      26.634  -1.328  52.531  1.00  0.00     0.135 A 
BRANCH  19  21
HETATM   21  S1  UNL     1      28.920  -0.305  54.190  1.00  0.00    -0.115 SA
HETATM   22  C1  UNL     1      29.286   1.469  54.330  1.00  0.00     0.097 C 
ENDBRANCH  19  21
ENDBRANCH   1  18
TORSDOF 5
ENDMDL
MODEL 9
REMARK VINA RESULT:      -6.7      2.294      4.370
REMARK  5 active torsions:
REMARK  status: ('A' for Active; 'I' for Inactive)
REMARK    1  A    between atoms: S1_2  and  C2_3 
REMARK    2  A    between atoms: N1_5  and  C4_6 
REMARK    3  A    between atoms: C9_11  and  C10_12 
REMARK    4  A    between atoms: C10_12  and  C11_13 
REMARK       I    between atoms: C11_13  and  N2_15 
REMARK    5  A    between atoms: N2_15  and  C12_16 
ROOT
HETATM    1  C4  UNL     1      25.210   5.627  49.025  1.00  0.00     0.046 A 
HETATM    2  C5  UNL     1      25.925   6.701  48.556  1.00  0.00     0.030 A 
HETATM    3  C6  UNL     1      27.273   6.594  48.298  1.00  0.00     0.002 A 
HETATM    4  C7  UNL     1      27.872   5.360  48.534  1.00  0.00     0.001 A 
HETATM    5  C8  UNL     1      27.140   4.290  49.005  1.00  0.00     0.010 A 
HETATM    6  C9  UNL     1      25.773   4.399  49.268  1.00  0.00    -0.022 A 
ENDROOT
BRANCH   6   7
HETATM    7  C10 UNL     1      25.039   3.223  49.770  1.00  0.00     0.144 C 
BRANCH   7   8
HETATM    8  C11 UNL     1      25.440   2.849  51.149  1.00  0.00     0.226 C 
HETATM    9  O1  UNL     1      24.948   3.107  52.287  1.00  0.00    -0.273 OA
HETATM   10  N2  UNL     1      26.613   2.046  51.118  1.00  0.00    -0.327 N 
HETATM   11  H11 UNL     1      27.206   1.695  50.335  1.00  0.00     0.169 HD
BRANCH  10  12
HETATM   12  C12 UNL     1      27.271   1.514  52.262  1.00  0.00     0.034 A 
HETATM   13  C13 UNL     1      28.126   2.107  53.173  1.00  0.00     0.029 A 
HETATM   14  C14 UNL     1      28.637   1.374  54.202  1.00  0.00     0.002 A 
HETATM   15  C15 UNL     1      28.330   0.048  54.372  1.00  0.00     0.000 A 
HETATM   16  C16 UNL     1      27.479  -0.585  53.484  1.00  0.00     0.002 A 
HETATM   17  C17 UNL     1      26.954   0.163  52.428  1.00  0.00     0.029 A 
ENDBRANCH  10  12
ENDBRANCH   7   8
ENDBRANCH   6   7
BRANCH   1  18
HETATM   18  N1  UNL     1      23.830   5.793  49.273  1.00  0.00    -0.312 N 
HETATM   19  C2  UNL     1      22.646   5.719  50.065  1.00  0.00     0.092 A 
HETATM   20  C3  UNL     1      22.511   6.197  48.847  1.00  0.00     0.135 A 
BRANCH  19  21
HETATM   21  S1  UNL     1      22.032   5.243  51.655  1.00  0.00    -0.115 SA
HETATM   22  C1  UNL     1      20.629   4.102  51.483  1.00  0.00     0.097 C 
ENDBRANCH  19  21
ENDBRANCH   1  18
TORSDOF 5
ENDMDL
