MODEL 1
REMARK VINA RESULT:      -9.4      0.000      0.000
REMARK  6 active torsions:
REMARK  status: ('A' for Active; 'I' for Inactive)
REMARK    1  A    between atoms: C7_11  and  N3_12 
REMARK    2  A    between atoms: N3_12  and  C8_13 
REMARK    3  A    between atoms: N4_23  and  C17_24 
REMARK    4  A    between atoms: C17_24  and  C18_25 
REMARK    5  A    between atoms: C18_25  and  C19_26 
REMARK    6  A    between atoms: C19_26  and  N5_27 
ROOT
HETATM    1  O1  UNL     1      21.962   0.807  53.794  1.00  0.00    -0.271 OA
HETATM    2  C1  UNL     1      22.884   0.126  53.518  1.00  0.00     0.248 C 
HETATM    3  C2  UNL     1      22.263  -1.276  53.702  1.00  0.00     0.290 C 
HETATM    4  O2  UNL     1      20.795  -0.830  53.323  1.00  0.00    -0.294 OA
HETATM    5  C3  UNL     1      21.043  -0.079  52.166  1.00  0.00     0.061 C 
HETATM    6  C4  UNL     1      21.266   0.529  51.226  1.00  0.00    -0.015 C 
HETATM    7  C5  UNL     1      21.559   1.252  50.106  1.00  0.00     0.127 A 
HETATM    8  N1  UNL     1      21.319   1.027  48.862  1.00  0.00    -0.232 NA
HETATM    9  C6  UNL     1      22.075   1.702  47.911  1.00  0.00     0.236 A 
HETATM   10  N2  UNL     1      23.009   2.546  48.331  1.00  0.00    -0.223 NA
HETATM   11  C7  UNL     1      23.175   2.717  49.751  1.00  0.00     0.142 A 
HETATM   12  C14 UNL     1      22.412   2.043  50.777  1.00  0.00     0.049 A 
HETATM   13  C15 UNL     1      23.112   2.715  51.949  1.00  0.00     0.036 C 
HETATM   14  C16 UNL     1      23.785   2.160  52.913  1.00  0.00     0.095 C 
HETATM   15  N4  UNL     1      24.066   0.800  53.162  1.00  0.00    -0.326 N 
ENDROOT
BRANCH  11  16
HETATM   16  N3  UNL     1      24.262   3.634  49.983  1.00  0.00    -0.340 N 
HETATM   17  H4  UNL     1      24.248   3.594  51.015  1.00  0.00     0.167 HD
BRANCH  16  18
HETATM   18  C8  UNL     1      25.266   4.474  49.432  1.00  0.00     0.033 A 
HETATM   19  C9  UNL     1      26.574   3.981  49.284  1.00  0.00     0.031 A 
HETATM   20  C10 UNL     1      27.664   4.711  48.766  1.00  0.00     0.026 A 
HETATM   21  C11 UNL     1      27.118   5.832  48.510  1.00  0.00     0.034 A 
HETATM   22 CL1  UNL     1      28.435   6.902  47.860  1.00  0.00    -0.084 Cl
HETATM   23  C12 UNL     1      26.041   6.692  48.470  1.00  0.00     0.026 A 
HETATM   24  C13 UNL     1      25.096   5.801  49.005  1.00  0.00     0.031 A 
ENDBRANCH  16  18
ENDBRANCH  11  16
BRANCH  15  25
HETATM   25  C17 UNL     1      24.904  -0.314  53.207  1.00  0.00     0.133 C 
BRANCH  25  26
HETATM   26  C18 UNL     1      26.089  -0.316  52.247  1.00  0.00     0.050 C 
BRANCH  26  27
HETATM   27  C19 UNL     1      27.311  -0.421  53.123  1.00  0.00     0.277 C 
BRANCH  27  28
HETATM   28  N5  UNL     1      27.353   0.534  54.225  1.00  0.00     0.113 N 
HETATM   29  C20 UNL     1      28.623   0.266  54.950  1.00  0.00     0.301 C 
HETATM   30  C21 UNL     1      29.622   0.502  53.818  1.00  0.00     0.200 C 
HETATM   31  O3  UNL     1      29.028   1.436  52.993  1.00  0.00    -0.361 OA
HETATM   32  C22 UNL     1      27.842   1.809  53.580  1.00  0.00     0.440 C 
ENDBRANCH  27  28
ENDBRANCH  26  27
ENDBRANCH  25  26
ENDBRANCH  15  25
TORSDOF 6
ENDMDL
MODEL 2
REMARK VINA RESULT:      -8.4      2.933      6.064
REMARK  6 active torsions:
REMARK  status: ('A' for Active; 'I' for Inactive)
REMARK    1  A    between atoms: C7_11  and  N3_12 
REMARK    2  A    between atoms: N3_12  and  C8_13 
REMARK    3  A    between atoms: N4_23  and  C17_24 
REMARK    4  A    between atoms: C17_24  and  C18_25 
REMARK    5  A    between atoms: C18_25  and  C19_26 
REMARK    6  A    between atoms: C19_26  and  N5_27 
ROOT
HETATM    1  O1  UNL     1      20.240   2.048  50.404  1.00  0.00    -0.271 OA
HETATM    2  C1  UNL     1      20.469   2.913  51.171  1.00  0.00     0.248 C 
HETATM    3  C2  UNL     1      19.034   3.341  51.548  1.00  0.00     0.290 C 
HETATM    4  O2  UNL     1      18.398   1.912  51.327  1.00  0.00    -0.294 OA
HETATM    5  C3  UNL     1      19.325   1.108  52.003  1.00  0.00     0.061 C 
HETATM    6  C4  UNL     1      20.092   0.471  52.560  1.00  0.00    -0.015 C 
HETATM    7  C5  UNL     1      21.024  -0.269  53.229  1.00  0.00     0.127 A 
HETATM    8  N1  UNL     1      20.956  -0.917  54.338  1.00  0.00    -0.232 NA
HETATM    9  C6  UNL     1      22.142  -1.233  54.992  1.00  0.00     0.236 A 
HETATM   10  N2  UNL     1      23.287  -0.849  54.440  1.00  0.00    -0.223 NA
HETATM   11  C7  UNL     1      23.229  -0.135  53.191  1.00  0.00     0.142 A 
HETATM   12  C14 UNL     1      22.023   0.211  52.472  1.00  0.00     0.049 A 
HETATM   13  C15 UNL     1      22.733   0.895  51.313  1.00  0.00     0.036 C 
HETATM   14  C16 UNL     1      22.620   2.127  50.912  1.00  0.00     0.095 C 
HETATM   15  N4  UNL     1      21.828   3.180  51.416  1.00  0.00    -0.326 N 
ENDROOT
BRANCH  11  16
HETATM   16  N3  UNL     1      24.569   0.221  52.799  1.00  0.00    -0.340 N 
HETATM   17  H4  UNL     1      24.313   0.929  52.090  1.00  0.00     0.167 HD
BRANCH  16  18
HETATM   18  C8  UNL     1      25.965   0.037  52.981  1.00  0.00     0.033 A 
HETATM   19  C9  UNL     1      26.528  -1.234  52.769  1.00  0.00     0.031 A 
HETATM   20  C10 UNL     1      27.891  -1.555  52.928  1.00  0.00     0.026 A 
HETATM   21  C11 UNL     1      28.376  -0.434  53.283  1.00  0.00     0.034 A 
HETATM   22 CL1  UNL     1      30.150  -0.711  53.563  1.00  0.00    -0.084 Cl
HETATM   23  C12 UNL     1      28.271   0.907  53.586  1.00  0.00     0.026 A 
HETATM   24  C13 UNL     1      26.888   1.021  53.372  1.00  0.00     0.031 A 
ENDBRANCH  16  18
ENDBRANCH  11  16
BRANCH  15  25
HETATM   25  C17 UNL     1      21.634   4.379  52.101  1.00  0.00     0.133 C 
BRANCH  25  26
HETATM   26  C18 UNL     1      21.979   5.659  51.346  1.00  0.00     0.050 C 
BRANCH  26  27
HETATM   27  C19 UNL     1      23.473   5.615  51.150  1.00  0.00     0.277 C 
BRANCH  27  28
HETATM   28  N5  UNL     1      23.968   6.449  50.062  1.00  0.00     0.113 N 
HETATM   29  C20 UNL     1      25.449   6.303  50.076  1.00  0.00     0.301 C 
HETATM   30  C21 UNL     1      25.562   4.794  49.871  1.00  0.00     0.200 C 
HETATM   31  O3  UNL     1      24.450   4.438  49.131  1.00  0.00    -0.361 OA
HETATM   32  C22 UNL     1      23.769   5.595  48.832  1.00  0.00     0.440 C 
ENDBRANCH  27  28
ENDBRANCH  26  27
ENDBRANCH  25  26
ENDBRANCH  15  25
TORSDOF 6
ENDMDL
MODEL 3
REMARK VINA RESULT:      -8.1      3.005      5.815
REMARK  6 active torsions:
REMARK  status: ('A' for Active; 'I' for Inactive)
REMARK    1  A    between atoms: C7_11  and  N3_12 
REMARK    2  A    between atoms: N3_12  and  C8_13 
REMARK    3  A    between atoms: N4_23  and  C17_24 
REMARK    4  A    between atoms: C17_24  and  C18_25 
REMARK    5  A    between atoms: C18_25  and  C19_26 
REMARK    6  A    between atoms: C19_26  and  N5_27 
ROOT
HETATM    1  O1  UNL     1      21.347   4.521  51.883  1.00  0.00    -0.271 OA
HETATM    2  C1  UNL     1      21.221   3.506  51.297  1.00  0.00     0.248 C 
HETATM    3  C2  UNL     1      20.224   3.937  50.199  1.00  0.00     0.290 C 
HETATM    4  O2  UNL     1      20.719   5.436  50.142  1.00  0.00    -0.294 OA
HETATM    5  C3  UNL     1      22.107   5.251  50.103  1.00  0.00     0.061 C 
HETATM    6  C4  UNL     1      23.235   5.078  50.072  1.00  0.00    -0.015 C 
HETATM    7  C5  UNL     1      24.580   4.845  50.037  1.00  0.00     0.127 A 
HETATM    8  N1  UNL     1      25.446   5.006  49.099  1.00  0.00    -0.232 NA
HETATM    9  C6  UNL     1      26.648   4.315  49.185  1.00  0.00     0.236 A 
HETATM   10  N2  UNL     1      26.845   3.519  50.230  1.00  0.00    -0.223 NA
HETATM   11  C7  UNL     1      25.800   3.430  51.216  1.00  0.00     0.142 A 
HETATM   12  C14 UNL     1      24.537   4.132  51.174  1.00  0.00     0.049 A 
HETATM   13  C15 UNL     1      24.013   3.573  52.488  1.00  0.00     0.036 C 
HETATM   14  C16 UNL     1      22.940   2.867  52.694  1.00  0.00     0.095 C 
HETATM   15  N4  UNL     1      21.961   2.413  51.785  1.00  0.00    -0.326 N 
ENDROOT
BRANCH  11  16
HETATM   16  N3  UNL     1      26.200   2.487  52.229  1.00  0.00    -0.340 N 
HETATM   17  H4  UNL     1      25.526   2.781  52.955  1.00  0.00     0.167 HD
BRANCH  16  18
HETATM   18  C8  UNL     1      27.042   1.406  52.602  1.00  0.00     0.033 A 
HETATM   19  C9  UNL     1      28.269   1.672  53.235  1.00  0.00     0.031 A 
HETATM   20  C10 UNL     1      29.201   0.696  53.642  1.00  0.00     0.026 A 
HETATM   21  C11 UNL     1      28.618  -0.377  53.285  1.00  0.00     0.034 A 
HETATM   22 CL1  UNL     1      29.740  -1.737  53.722  1.00  0.00    -0.084 Cl
HETATM   23  C12 UNL     1      27.570  -1.074  52.721  1.00  0.00     0.026 A 
HETATM   24  C13 UNL     1      26.781   0.041  52.396  1.00  0.00     0.031 A 
ENDBRANCH  16  18
ENDBRANCH  11  16
BRANCH  15  25
HETATM   25  C17 UNL     1      21.317   1.434  51.027  1.00  0.00     0.133 C 
BRANCH  25  26
HETATM   26  C18 UNL     1      20.579   0.348  51.802  1.00  0.00     0.050 C 
BRANCH  26  27
HETATM   27  C19 UNL     1      21.412   0.101  53.033  1.00  0.00     0.277 C 
BRANCH  27  28
HETATM   28  N5  UNL     1      22.256  -1.087  52.969  1.00  0.00     0.113 N 
HETATM   29  C20 UNL     1      23.389  -0.836  53.899  1.00  0.00     0.301 C 
HETATM   30  C21 UNL     1      22.614  -0.631  55.200  1.00  0.00     0.200 C 
HETATM   31  O3  UNL     1      21.473  -1.399  55.074  1.00  0.00    -0.361 OA
HETATM   32  C22 UNL     1      21.562  -2.074  53.878  1.00  0.00     0.440 C 
ENDBRANCH  27  28
ENDBRANCH  26  27
ENDBRANCH  25  26
ENDBRANCH  15  25
TORSDOF 6
ENDMDL
MODEL 4
REMARK VINA RESULT:      -7.8      1.270      1.784
REMARK  6 active torsions:
REMARK  status: ('A' for Active; 'I' for Inactive)
REMARK    1  A    between atoms: C7_11  and  N3_12 
REMARK    2  A    between atoms: N3_12  and  C8_13 
REMARK    3  A    between atoms: N4_23  and  C17_24 
REMARK    4  A    between atoms: C17_24  and  C18_25 
REMARK    5  A    between atoms: C18_25  and  C19_26 
REMARK    6  A    between atoms: C19_26  and  N5_27 
ROOT
HETATM    1  O1  UNL     1      20.569   1.660  53.243  1.00  0.00    -0.271 OA
HETATM    2  C1  UNL     1      21.351   0.818  52.983  1.00  0.00     0.248 C 
HETATM    3  C2  UNL     1      20.445  -0.432  53.032  1.00  0.00     0.290 C 
HETATM    4  O2  UNL     1      19.132   0.329  52.589  1.00  0.00    -0.294 OA
HETATM    5  C3  UNL     1      19.617   1.071  51.503  1.00  0.00     0.061 C 
HETATM    6  C4  UNL     1      20.032   1.667  50.622  1.00  0.00    -0.015 C 
HETATM    7  C5  UNL     1      20.552   2.370  49.574  1.00  0.00     0.127 A 
HETATM    8  N1  UNL     1      20.367   2.264  48.305  1.00  0.00    -0.232 NA
HETATM    9  C6  UNL     1      21.316   2.814  47.452  1.00  0.00     0.236 A 
HETATM   10  N2  UNL     1      22.368   3.423  47.987  1.00  0.00    -0.223 NA
HETATM   11  C7  UNL     1      22.455   3.481  49.423  1.00  0.00     0.142 A 
HETATM   12  C14 UNL     1      21.494   2.929  50.350  1.00  0.00     0.049 A 
HETATM   13  C15 UNL     1      22.224   3.379  51.607  1.00  0.00     0.036 C 
HETATM   14  C16 UNL     1      22.692   2.648  52.574  1.00  0.00     0.095 C 
HETATM   15  N4  UNL     1      22.670   1.247  52.749  1.00  0.00    -0.326 N 
ENDROOT
BRANCH  11  16
HETATM   16  N3  UNL     1      23.685   4.139  49.785  1.00  0.00    -0.340 N 
HETATM   17  H4  UNL     1      23.495   4.223  50.797  1.00  0.00     0.167 HD
BRANCH  16  18
HETATM   18  C8  UNL     1      24.944   4.650  49.371  1.00  0.00     0.033 A 
HETATM   19  C9  UNL     1      25.035   5.977  48.915  1.00  0.00     0.031 A 
HETATM   20  C10 UNL     1      26.215   6.602  48.464  1.00  0.00     0.026 A 
HETATM   21  C11 UNL     1      27.065   5.664  48.597  1.00  0.00     0.034 A 
HETATM   22 CL1  UNL     1      28.651   6.327  48.009  1.00  0.00    -0.084 Cl
HETATM   23  C12 UNL     1      27.433   4.382  48.948  1.00  0.00     0.026 A 
HETATM   24  C13 UNL     1      26.161   3.949  49.357  1.00  0.00     0.031 A 
ENDBRANCH  16  18
ENDBRANCH  11  16
BRANCH  15  25
HETATM   25  C17 UNL     1      23.256  -0.018  52.774  1.00  0.00     0.133 C 
BRANCH  25  26
HETATM   26  C18 UNL     1      24.255  -0.285  53.895  1.00  0.00     0.050 C 
BRANCH  26  27
HETATM   27  C19 UNL     1      25.547   0.339  53.434  1.00  0.00     0.277 C 
BRANCH  27  28
HETATM   28  N5  UNL     1      26.735  -0.470  53.680  1.00  0.00     0.113 N 
HETATM   29  C20 UNL     1      27.768   0.020  52.728  1.00  0.00     0.301 C 
HETATM   30  C21 UNL     1      27.848   1.482  53.164  1.00  0.00     0.200 C 
HETATM   31  O3  UNL     1      27.535   1.483  54.509  1.00  0.00    -0.361 OA
HETATM   32  C22 UNL     1      27.366   0.173  54.892  1.00  0.00     0.440 C 
ENDBRANCH  27  28
ENDBRANCH  26  27
ENDBRANCH  25  26
ENDBRANCH  15  25
TORSDOF 6
ENDMDL
MODEL 5
REMARK VINA RESULT:      -7.7      2.374      5.537
REMARK  6 active torsions:
REMARK  status: ('A' for Active; 'I' for Inactive)
REMARK    1  A    between atoms: C7_11  and  N3_12 
REMARK    2  A    between atoms: N3_12  and  C8_13 
REMARK    3  A    between atoms: N4_23  and  C17_24 
REMARK    4  A    between atoms: C17_24  and  C18_25 
REMARK    5  A    between atoms: C18_25  and  C19_26 
REMARK    6  A    between atoms: C19_26  and  N5_27 
ROOT
HETATM    1  O1  UNL     1      21.379  -0.438  51.875  1.00  0.00    -0.271 OA
HETATM    2  C1  UNL     1      20.975   0.507  52.452  1.00  0.00     0.248 C 
HETATM    3  C2  UNL     1      20.331  -0.168  53.682  1.00  0.00     0.290 C 
HETATM    4  O2  UNL     1      21.323  -1.398  53.703  1.00  0.00    -0.294 OA
HETATM    5  C3  UNL     1      22.552  -0.742  53.552  1.00  0.00     0.061 C 
HETATM    6  C4  UNL     1      23.543  -0.189  53.429  1.00  0.00    -0.015 C 
HETATM    7  C5  UNL     1      24.714   0.496  53.279  1.00  0.00     0.127 A 
HETATM    8  N1  UNL     1      25.687   0.705  54.095  1.00  0.00    -0.232 NA
HETATM    9  C6  UNL     1      26.551   1.762  53.835  1.00  0.00     0.236 A 
HETATM   10  N2  UNL     1      26.331   2.506  52.758  1.00  0.00    -0.223 NA
HETATM   11  C7  UNL     1      25.213   2.164  51.919  1.00  0.00     0.142 A 
HETATM   12  C14 UNL     1      24.290   1.074  52.143  1.00  0.00     0.049 A 
HETATM   13  C15 UNL     1      23.451   1.330  50.900  1.00  0.00     0.036 C 
HETATM   14  C16 UNL     1      22.183   1.608  50.825  1.00  0.00     0.095 C 
HETATM   15  N4  UNL     1      21.222   1.754  51.848  1.00  0.00    -0.326 N 
ENDROOT
BRANCH  11  16
HETATM   16  N3  UNL     1      25.134   3.119  50.842  1.00  0.00    -0.340 N 
HETATM   17  H4  UNL     1      24.149   2.941  50.582  1.00  0.00     0.167 HD
BRANCH  16  18
HETATM   18  C8  UNL     1      25.780   4.125  50.076  1.00  0.00     0.033 A 
HETATM   19  C9  UNL     1      25.196   5.400  49.978  1.00  0.00     0.031 A 
HETATM   20  C10 UNL     1      25.723   6.481  49.242  1.00  0.00     0.026 A 
HETATM   21  C11 UNL     1      26.782   5.965  48.759  1.00  0.00     0.034 A 
HETATM   22 CL1  UNL     1      27.558   7.255  47.741  1.00  0.00    -0.084 Cl
HETATM   23  C12 UNL     1      27.670   4.925  48.583  1.00  0.00     0.026 A 
HETATM   24  C13 UNL     1      26.985   3.984  49.369  1.00  0.00     0.031 A 
ENDBRANCH  16  18
ENDBRANCH  11  16
BRANCH  15  25
HETATM   25  C17 UNL     1      20.370   2.498  52.665  1.00  0.00     0.133 C 
BRANCH  25  26
HETATM   26  C18 UNL     1      19.304   3.330  51.960  1.00  0.00     0.050 C 
BRANCH  26  27
HETATM   27  C19 UNL     1      20.062   4.377  51.187  1.00  0.00     0.277 C 
BRANCH  27  28
HETATM   28  N5  UNL     1      19.306   5.005  50.110  1.00  0.00     0.113 N 
HETATM   29  C20 UNL     1      20.139   6.140  49.631  1.00  0.00     0.301 C 
HETATM   30  C21 UNL     1      21.397   5.378  49.214  1.00  0.00     0.200 C 
HETATM   31  O3  UNL     1      20.958   4.126  48.831  1.00  0.00    -0.361 OA
HETATM   32  C22 UNL     1      19.585   4.128  48.912  1.00  0.00     0.440 C 
ENDBRANCH  27  28
ENDBRANCH  26  27
ENDBRANCH  25  26
ENDBRANCH  15  25
TORSDOF 6
ENDMDL
MODEL 6
REMARK VINA RESULT:      -7.6      3.134      6.320
REMARK  6 active torsions:
REMARK  status: ('A' for Active; 'I' for Inactive)
REMARK    1  A    between atoms: C7_11  and  N3_12 
REMARK    2  A    between atoms: N3_12  and  C8_13 
REMARK    3  A    between atoms: N4_23  and  C17_24 
REMARK    4  A    between atoms: C17_24  and  C18_25 
REMARK    5  A    between atoms: C18_25  and  C19_26 
REMARK    6  A    between atoms: C19_26  and  N5_27 
ROOT
HETATM    1  O1  UNL     1      21.403   2.742  50.559  1.00  0.00    -0.271 OA
HETATM    2  C1  UNL     1      21.565   3.800  51.053  1.00  0.00     0.248 C 
HETATM    3  C2  UNL     1      20.679   3.662  52.310  1.00  0.00     0.290 C 
HETATM    4  O2  UNL     1      20.875   2.100  52.449  1.00  0.00    -0.294 OA
HETATM    5  C3  UNL     1      22.263   1.998  52.287  1.00  0.00     0.061 C 
HETATM    6  C4  UNL     1      23.395   1.936  52.152  1.00  0.00    -0.015 C 
HETATM    7  C5  UNL     1      24.749   1.889  51.987  1.00  0.00     0.127 A 
HETATM    8  N1  UNL     1      25.697   1.618  52.813  1.00  0.00    -0.232 NA
HETATM    9  C6  UNL     1      26.985   2.039  52.502  1.00  0.00     0.236 A 
HETATM   10  N2  UNL     1      27.174   2.701  51.367  1.00  0.00    -0.223 NA
HETATM   11  C7  UNL     1      26.032   2.935  50.523  1.00  0.00     0.142 A 
HETATM   12  C14 UNL     1      24.677   2.513  50.800  1.00  0.00     0.049 A 
HETATM   13  C15 UNL     1      24.082   3.075  49.518  1.00  0.00     0.036 C 
HETATM   14  C16 UNL     1      23.148   3.971  49.386  1.00  0.00     0.095 C 
HETATM   15  N4  UNL     1      22.422   4.680  50.367  1.00  0.00    -0.326 N 
ENDROOT
BRANCH  11  16
HETATM   16  N3  UNL     1      26.452   3.702  49.378  1.00  0.00    -0.340 N 
HETATM   17  H4  UNL     1      26.174   3.018  48.654  1.00  0.00     0.167 HD
BRANCH  16  18
HETATM   18  C8  UNL     1      27.015   4.904  48.876  1.00  0.00     0.033 A 
HETATM   19  C9  UNL     1      26.209   6.050  48.761  1.00  0.00     0.031 A 
HETATM   20  C10 UNL     1      26.637   7.299  48.267  1.00  0.00     0.026 A 
HETATM   21  C11 UNL     1      27.857   7.060  47.997  1.00  0.00     0.034 A 
HETATM   22 CL1  UNL     1      28.537   8.597  47.307  1.00  0.00    -0.084 Cl
HETATM   23  C12 UNL     1      28.962   6.237  47.938  1.00  0.00     0.026 A 
HETATM   24  C13 UNL     1      28.344   5.087  48.457  1.00  0.00     0.031 A 
ENDBRANCH  16  18
ENDBRANCH  11  16
BRANCH  15  25
HETATM   25  C17 UNL     1      22.101   5.821  51.102  1.00  0.00     0.133 C 
BRANCH  25  26
HETATM   26  C18 UNL     1      22.904   7.079  50.793  1.00  0.00     0.050 C 
BRANCH  26  27
HETATM   27  C19 UNL     1      22.013   7.913  49.907  1.00  0.00     0.277 C 
BRANCH  27  28
HETATM   28  N5  UNL     1      22.721   8.837  49.029  1.00  0.00     0.113 N 
HETATM   29  C20 UNL     1      23.000   8.081  47.779  1.00  0.00     0.301 C 
HETATM   30  C21 UNL     1      21.572   7.724  47.368  1.00  0.00     0.200 C 
HETATM   31  O3  UNL     1      20.783   8.747  47.856  1.00  0.00    -0.361 OA
HETATM   32  C22 UNL     1      21.621   9.678  48.426  1.00  0.00     0.440 C 
ENDBRANCH  27  28
ENDBRANCH  26  27
ENDBRANCH  25  26
ENDBRANCH  15  25
TORSDOF 6
ENDMDL
MODEL 7
REMARK VINA RESULT:      -7.6      3.297      6.990
REMARK  6 active torsions:
REMARK  status: ('A' for Active; 'I' for Inactive)
REMARK    1  A    between atoms: C7_11  and  N3_12 
REMARK    2  A    between atoms: N3_12  and  C8_13 
REMARK    3  A    between atoms: N4_23  and  C17_24 
REMARK    4  A    between atoms: C17_24  and  C18_25 
REMARK    5  A    between atoms: C18_25  and  C19_26 
REMARK    6  A    between atoms: C19_26  and  N5_27 
ROOT
HETATM    1  O1  UNL     1      21.756   5.860  50.543  1.00  0.00    -0.271 OA
HETATM    2  C1  UNL     1      21.557   4.971  49.797  1.00  0.00     0.248 C 
HETATM    3  C2  UNL     1      20.878   5.726  48.633  1.00  0.00     0.290 C 
HETATM    4  O2  UNL     1      21.640   7.087  48.887  1.00  0.00    -0.294 OA
HETATM    5  C3  UNL     1      22.954   6.625  49.040  1.00  0.00     0.061 C 
HETATM    6  C4  UNL     1      24.017   6.227  49.161  1.00  0.00    -0.015 C 
HETATM    7  C5  UNL     1      25.279   5.726  49.304  1.00  0.00     0.127 A 
HETATM    8  N1  UNL     1      26.318   5.816  48.552  1.00  0.00    -0.232 NA
HETATM    9  C6  UNL     1      27.337   4.886  48.719  1.00  0.00     0.236 A 
HETATM   10  N2  UNL     1      27.188   3.948  49.648  1.00  0.00    -0.223 NA
HETATM   11  C7  UNL     1      25.980   3.960  50.431  1.00  0.00     0.142 A 
HETATM   12  C14 UNL     1      24.896   4.908  50.297  1.00  0.00     0.049 A 
HETATM   13  C15 UNL     1      24.044   4.316  51.410  1.00  0.00     0.036 C 
HETATM   14  C16 UNL     1      22.842   3.828  51.333  1.00  0.00     0.095 C 
HETATM   15  N4  UNL     1      21.981   3.698  50.221  1.00  0.00    -0.326 N 
ENDROOT
BRANCH  11  16
HETATM   16  N3  UNL     1      26.006   2.840  51.338  1.00  0.00    -0.340 N 
HETATM   17  H4  UNL     1      24.989   2.796  51.519  1.00  0.00     0.167 HD
BRANCH  16  18
HETATM   18  C8  UNL     1      26.774   1.850  52.005  1.00  0.00     0.033 A 
HETATM   19  C9  UNL     1      27.857   2.242  52.811  1.00  0.00     0.031 A 
HETATM   20  C10 UNL     1      28.706   1.364  53.515  1.00  0.00     0.026 A 
HETATM   21  C11 UNL     1      28.211   0.233  53.207  1.00  0.00     0.034 A 
HETATM   22 CL1  UNL     1      29.245  -1.016  54.028  1.00  0.00    -0.084 Cl
HETATM   23  C12 UNL     1      27.296  -0.571  52.561  1.00  0.00     0.026 A 
HETATM   24  C13 UNL     1      26.570   0.461  51.945  1.00  0.00     0.031 A 
ENDBRANCH  16  18
ENDBRANCH  11  16
BRANCH  15  25
HETATM   25  C17 UNL     1      21.322   2.971  49.231  1.00  0.00     0.133 C 
BRANCH  25  26
HETATM   26  C18 UNL     1      21.341   1.453  49.371  1.00  0.00     0.050 C 
BRANCH  26  27
HETATM   27  C19 UNL     1      19.962   1.079  49.848  1.00  0.00     0.277 C 
BRANCH  27  28
HETATM   28  N5  UNL     1      19.930   0.376  51.125  1.00  0.00     0.113 N 
HETATM   29  C20 UNL     1      19.960   1.430  52.175  1.00  0.00     0.301 C 
HETATM   30  C21 UNL     1      18.696   2.203  51.801  1.00  0.00     0.200 C 
HETATM   31  O3  UNL     1      17.849   1.271  51.233  1.00  0.00    -0.361 OA
HETATM   32  C22 UNL     1      18.468   0.046  51.320  1.00  0.00     0.440 C 
ENDBRANCH  27  28
ENDBRANCH  26  27
ENDBRANCH  25  26
ENDBRANCH  15  25
TORSDOF 6
ENDMDL
MODEL 8
REMARK VINA RESULT:      -7.4      6.253      9.960
REMARK  6 active torsions:
REMARK  status: ('A' for Active; 'I' for Inactive)
REMARK    1  A    between atoms: C7_11  and  N3_12 
REMARK    2  A    between atoms: N3_12  and  C8_13 
REMARK    3  A    between atoms: N4_23  and  C17_24 
REMARK    4  A    between atoms: C17_24  and  C18_25 
REMARK    5  A    between atoms: C18_25  and  C19_26 
REMARK    6  A    between atoms: C19_26  and  N5_27 
ROOT
HETATM    1  O1  UNL     1      31.121   8.803  46.114  1.00  0.00    -0.271 OA
HETATM    2  C1  UNL     1      31.715   8.482  47.080  1.00  0.00     0.248 C 
HETATM    3  C2  UNL     1      32.702   9.663  47.208  1.00  0.00     0.290 C 
HETATM    4  O2  UNL     1      31.734  10.726  46.551  1.00  0.00    -0.294 OA
HETATM    5  C3  UNL     1      30.541  10.446  47.230  1.00  0.00     0.061 C 
HETATM    6  C4  UNL     1      29.579  10.202  47.795  1.00  0.00    -0.015 C 
HETATM    7  C5  UNL     1      28.442   9.890  48.483  1.00  0.00     0.127 A 
HETATM    8  N1  UNL     1      27.791  10.536  49.385  1.00  0.00    -0.232 NA
HETATM    9  C6  UNL     1      26.920   9.828  50.205  1.00  0.00     0.236 A 
HETATM   10  N2  UNL     1      26.802   8.519  50.018  1.00  0.00    -0.223 NA
HETATM   11  C7  UNL     1      27.581   7.914  48.969  1.00  0.00     0.142 A 
HETATM   12  C14 UNL     1      28.495   8.608  48.089  1.00  0.00     0.049 A 
HETATM   13  C15 UNL     1      28.896   7.375  47.292  1.00  0.00     0.036 C 
HETATM   14  C16 UNL     1      30.080   6.858  47.147  1.00  0.00     0.095 C 
HETATM   15  N4  UNL     1      31.324   7.269  47.674  1.00  0.00    -0.326 N 
ENDROOT
BRANCH  11  16
HETATM   16  N3  UNL     1      27.337   6.494  48.972  1.00  0.00    -0.340 N 
HETATM   17  H4  UNL     1      28.306   6.195  48.775  1.00  0.00     0.167 HD
BRANCH  16  18
HETATM   18  C8  UNL     1      26.408   5.433  49.141  1.00  0.00     0.033 A 
HETATM   19  C9  UNL     1      25.043   5.665  48.901  1.00  0.00     0.031 A 
HETATM   20  C10 UNL     1      24.018   4.707  49.043  1.00  0.00     0.026 A 
HETATM   21  C11 UNL     1      24.678   3.685  49.417  1.00  0.00     0.034 A 
HETATM   22 CL1  UNL     1      23.461   2.361  49.678  1.00  0.00    -0.084 Cl
HETATM   23  C12 UNL     1      25.847   3.032  49.747  1.00  0.00     0.026 A 
HETATM   24  C13 UNL     1      26.710   4.122  49.544  1.00  0.00     0.031 A 
ENDBRANCH  16  18
ENDBRANCH  11  16
BRANCH  15  25
HETATM   25  C17 UNL     1      32.413   7.155  48.537  1.00  0.00     0.133 C 
BRANCH  25  26
HETATM   26  C18 UNL     1      32.709   5.762  49.082  1.00  0.00     0.050 C 
BRANCH  26  27
HETATM   27  C19 UNL     1      33.438   5.047  47.973  1.00  0.00     0.277 C 
BRANCH  27  28
HETATM   28  N5  UNL     1      33.072   3.645  47.809  1.00  0.00     0.113 N 
HETATM   29  C20 UNL     1      32.017   3.618  46.760  1.00  0.00     0.301 C 
HETATM   30  C21 UNL     1      32.787   4.251  45.603  1.00  0.00     0.200 C 
HETATM   31  O3  UNL     1      34.110   3.911  45.811  1.00  0.00    -0.361 OA
HETATM   32  C22 UNL     1      34.154   3.090  46.914  1.00  0.00     0.440 C 
ENDBRANCH  27  28
ENDBRANCH  26  27
ENDBRANCH  25  26
ENDBRANCH  15  25
TORSDOF 6
ENDMDL
MODEL 9
REMARK VINA RESULT:      -7.3      3.889      7.873
REMARK  6 active torsions:
REMARK  status: ('A' for Active; 'I' for Inactive)
REMARK    1  A    between atoms: C7_11  and  N3_12 
REMARK    2  A    between atoms: N3_12  and  C8_13 
REMARK    3  A    between atoms: N4_23  and  C17_24 
REMARK    4  A    between atoms: C17_24  and  C18_25 
REMARK    5  A    between atoms: C18_25  and  C19_26 
REMARK    6  A    between atoms: C19_26  and  N5_27 
ROOT
HETATM    1  O1  UNL     1      23.486   8.705  49.576  1.00  0.00    -0.271 OA
HETATM    2  C1  UNL     1      22.965   8.033  48.759  1.00  0.00     0.248 C 
HETATM    3  C2  UNL     1      22.958   9.005  47.559  1.00  0.00     0.290 C 
HETATM    4  O2  UNL     1      24.270   9.772  47.991  1.00  0.00    -0.294 OA
HETATM    5  C3  UNL     1      25.112   8.694  48.297  1.00  0.00     0.061 C 
HETATM    6  C4  UNL     1      25.781   7.802  48.540  1.00  0.00    -0.015 C 
HETATM    7  C5  UNL     1      26.561   6.718  48.826  1.00  0.00     0.127 A 
HETATM    8  N1  UNL     1      27.593   6.233  48.230  1.00  0.00    -0.232 NA
HETATM    9  C6  UNL     1      27.941   4.912  48.482  1.00  0.00     0.236 A 
HETATM   10  N2  UNL     1      27.191   4.213  49.326  1.00  0.00    -0.223 NA
HETATM   11  C7  UNL     1      26.066   4.873  49.935  1.00  0.00     0.142 A 
HETATM   12  C14 UNL     1      25.668   6.244  49.709  1.00  0.00     0.049 A 
HETATM   13  C15 UNL     1      24.479   6.212  50.659  1.00  0.00     0.036 C 
HETATM   14  C16 UNL     1      23.225   6.424  50.389  1.00  0.00     0.095 C 
HETATM   15  N4  UNL     1      22.597   6.737  49.165  1.00  0.00    -0.326 N 
ENDROOT
BRANCH  11  16
HETATM   16  N3  UNL     1      25.372   3.927  50.772  1.00  0.00    -0.340 N 
HETATM   17  H4  UNL     1      24.465   4.421  50.802  1.00  0.00     0.167 HD
BRANCH  16  18
HETATM   18  C8  UNL     1      25.407   2.700  51.486  1.00  0.00     0.033 A 
HETATM   19  C9  UNL     1      24.306   2.330  52.278  1.00  0.00     0.031 A 
HETATM   20  C10 UNL     1      24.217   1.151  53.046  1.00  0.00     0.026 A 
HETATM   21  C11 UNL     1      25.340   0.605  52.801  1.00  0.00     0.034 A 
HETATM   22 CL1  UNL     1      25.380  -0.932  53.770  1.00  0.00    -0.084 Cl
HETATM   23  C12 UNL     1      26.575   0.559  52.189  1.00  0.00     0.026 A 
HETATM   24  C13 UNL     1      26.465   1.776  51.498  1.00  0.00     0.031 A 
ENDBRANCH  16  18
ENDBRANCH  11  16
BRANCH  15  25
HETATM   25  C17 UNL     1      21.809   6.440  48.053  1.00  0.00     0.133 C 
BRANCH  25  26
HETATM   26  C18 UNL     1      22.372   5.416  47.072  1.00  0.00     0.050 C 
BRANCH  26  27
HETATM   27  C19 UNL     1      22.464   4.128  47.850  1.00  0.00     0.277 C 
BRANCH  27  28
HETATM   28  N5  UNL     1      21.647   3.041  47.324  1.00  0.00     0.113 N 
HETATM   29  C20 UNL     1      22.318   1.783  47.747  1.00  0.00     0.301 C 
HETATM   30  C21 UNL     1      22.289   1.972  49.263  1.00  0.00     0.200 C 
HETATM   31  O3  UNL     1      21.165   2.733  49.517  1.00  0.00    -0.361 OA
HETATM   32  C22 UNL     1      20.517   2.923  48.319  1.00  0.00     0.440 C 
ENDBRANCH  27  28
ENDBRANCH  26  27
ENDBRANCH  25  26
ENDBRANCH  15  25
TORSDOF 6
ENDMDL
