MODEL 1
REMARK VINA RESULT:      -9.9      0.000      0.000
REMARK  3 active torsions:
REMARK  status: ('A' for Active; 'I' for Inactive)
REMARK    1  A    between atoms: N1_1  and  C1_2 
REMARK    2  A    between atoms: C3_6  and  C4_7 
REMARK    3  A    between atoms: C4_7  and  C5_8 
ROOT
HETATM    1  C1  UNL     1      26.783  -1.256  52.962  1.00  0.00     0.718 C 
HETATM    2  N2  UNL     1      27.392  -0.240  52.452  1.00  0.00    -0.064 NA
HETATM    3  C2  UNL     1      26.806   1.000  52.287  1.00  0.00     0.397 C 
HETATM    4  N3  UNL     1      26.737   1.733  51.083  1.00  0.00     0.122 N 
HETATM    5  C3  UNL     1      25.820   2.871  51.473  1.00  0.00     0.261 C 
HETATM    6  C11 UNL     1      24.749   2.071  52.178  1.00  0.00    -0.010 A 
HETATM    7  C12 UNL     1      23.407   2.177  52.492  1.00  0.00     0.048 A 
HETATM    8  C13 UNL     1      22.753   1.107  53.120  1.00  0.00     0.088 A 
HETATM    9  C14 UNL     1      23.383  -0.086  53.455  1.00  0.00     0.028 A 
HETATM   10  C15 UNL     1      24.707  -0.201  53.149  1.00  0.00     0.099 A 
HETATM   11  C16 UNL     1      25.321   0.846  52.550  1.00  0.00     0.035 A 
HETATM   12  N4  UNL     1      25.391  -1.280  53.342  1.00  0.00    -0.062 NA
HETATM   13  C17 UNL     1      22.742  -1.081  54.047  1.00  0.00     0.018 A 
HETATM   14  C18 UNL     1      21.326  -0.892  54.347  1.00  0.00     0.026 A 
HETATM   15  C19 UNL     1      20.666   0.236  54.047  1.00  0.00     0.142 A 
HETATM   16  O1  UNL     1      21.387   1.270  53.417  1.00  0.00    -0.322 OA
HETATM   17  H4  UNL     1      26.245   1.177  50.351  1.00  0.00     0.320 HD
ENDROOT
BRANCH   5  18
HETATM   18  C4  UNL     1      25.253   3.446  50.238  1.00  0.00     0.081 C 
BRANCH  18  19
HETATM   19  C5  UNL     1      25.898   4.665  49.720  1.00  0.00    -0.034 A 
HETATM   20  C6  UNL     1      27.070   4.363  49.020  1.00  0.00     0.010 A 
HETATM   21  C7  UNL     1      27.865   5.323  48.429  1.00  0.00     0.024 A 
HETATM   22  C8  UNL     1      27.516   6.653  48.514  1.00  0.00     0.035 A 
HETATM   23 CL1  UNL     1      28.453   7.937  47.802  1.00  0.00    -0.084 Cl
HETATM   24  C9  UNL     1      26.364   6.975  49.199  1.00  0.00     0.048 A 
HETATM   25  C10 UNL     1      25.593   5.993  49.777  1.00  0.00     0.042 A 
HETATM   26 CL2  UNL     1      24.150   6.403  50.629  1.00  0.00    -0.084 Cl
ENDBRANCH  18  19
ENDBRANCH   5  18
BRANCH   1  27
HETATM   27  N1  UNL     1      27.387  -2.548  53.146  1.00  0.00    -0.231 N 
HETATM   28  H1  UNL     1      27.773  -3.311  52.527  1.00  0.00     0.174 HD
HETATM   29  H2  UNL     1      27.656  -3.177  53.914  1.00  0.00     0.174 HD
ENDBRANCH   1  27
TORSDOF 3
ENDMDL
MODEL 2
REMARK VINA RESULT:      -9.7      4.134      7.293
REMARK  3 active torsions:
REMARK  status: ('A' for Active; 'I' for Inactive)
REMARK    1  A    between atoms: N1_1  and  C1_2 
REMARK    2  A    between atoms: C3_6  and  C4_7 
REMARK    3  A    between atoms: C4_7  and  C5_8 
ROOT
HETATM    1  C1  UNL     1      26.296   3.633  50.209  1.00  0.00     0.718 C 
HETATM    2  N2  UNL     1      25.011   3.541  50.141  1.00  0.00    -0.064 NA
HETATM    3  C2  UNL     1      24.244   2.843  51.054  1.00  0.00     0.397 C 
HETATM    4  N3  UNL     1      23.307   1.831  50.751  1.00  0.00     0.122 N 
HETATM    5  C3  UNL     1      22.961   1.316  52.130  1.00  0.00     0.261 C 
HETATM    6  C11 UNL     1      24.360   1.199  52.690  1.00  0.00    -0.010 A 
HETATM    7  C12 UNL     1      25.037   0.487  53.662  1.00  0.00     0.048 A 
HETATM    8  C13 UNL     1      26.424   0.640  53.797  1.00  0.00     0.088 A 
HETATM    9  C14 UNL     1      27.184   1.483  52.995  1.00  0.00     0.028 A 
HETATM   10  C15 UNL     1      26.526   2.189  52.032  1.00  0.00     0.099 A 
HETATM   11  C16 UNL     1      25.187   2.033  51.923  1.00  0.00     0.035 A 
HETATM   12  N4  UNL     1      27.123   2.951  51.176  1.00  0.00    -0.062 NA
HETATM   13  C17 UNL     1      28.493   1.608  53.144  1.00  0.00     0.018 A 
HETATM   14  C18 UNL     1      29.135   0.823  54.194  1.00  0.00     0.026 A 
HETATM   15  C19 UNL     1      28.453  -0.007  54.998  1.00  0.00     0.142 A 
HETATM   16  O1  UNL     1      27.060  -0.109  54.804  1.00  0.00    -0.322 OA
HETATM   17  H4  UNL     1      23.773   1.051  50.238  1.00  0.00     0.320 HD
ENDROOT
BRANCH   5  18
HETATM   18  C4  UNL     1      22.389  -0.036  51.984  1.00  0.00     0.081 C 
BRANCH  18  19
HETATM   19  C5  UNL     1      20.949  -0.178  52.261  1.00  0.00    -0.034 A 
HETATM   20  C6  UNL     1      20.177   0.344  51.218  1.00  0.00     0.010 A 
HETATM   21  C7  UNL     1      18.797   0.334  51.223  1.00  0.00     0.024 A 
HETATM   22  C8  UNL     1      18.116  -0.208  52.292  1.00  0.00     0.035 A 
HETATM   23 CL1  UNL     1      16.378  -0.267  52.390  1.00  0.00    -0.084 Cl
HETATM   24  C9  UNL     1      18.857  -0.728  53.331  1.00  0.00     0.048 A 
HETATM   25  C10 UNL     1      20.232  -0.703  53.295  1.00  0.00     0.042 A 
HETATM   26 CL2  UNL     1      21.153  -1.362  54.597  1.00  0.00    -0.084 Cl
ENDBRANCH  18  19
ENDBRANCH   5  18
BRANCH   1  27
HETATM   27  N1  UNL     1      27.101   4.363  49.269  1.00  0.00    -0.231 N 
HETATM   28  H1  UNL     1      27.955   4.983  49.306  1.00  0.00     0.174 HD
HETATM   29  H2  UNL     1      27.143   4.542  48.257  1.00  0.00     0.174 HD
ENDBRANCH   1  27
TORSDOF 3
ENDMDL
MODEL 3
REMARK VINA RESULT:      -9.6      3.302      7.278
REMARK  3 active torsions:
REMARK  status: ('A' for Active; 'I' for Inactive)
REMARK    1  A    between atoms: N1_1  and  C1_2 
REMARK    2  A    between atoms: C3_6  and  C4_7 
REMARK    3  A    between atoms: C4_7  and  C5_8 
ROOT
HETATM    1  C1  UNL     1      26.668  -0.191  54.263  1.00  0.00     0.718 C 
HETATM    2  N2  UNL     1      25.609  -0.849  54.592  1.00  0.00    -0.064 NA
HETATM    3  C2  UNL     1      24.406  -0.750  53.921  1.00  0.00     0.397 C 
HETATM    4  N3  UNL     1      23.154  -0.448  54.499  1.00  0.00     0.122 N 
HETATM    5  C3  UNL     1      22.287  -0.275  53.271  1.00  0.00     0.261 C 
HETATM    6  C11 UNL     1      23.212   0.602  52.459  1.00  0.00    -0.010 A 
HETATM    7  C12 UNL     1      23.136   1.537  51.445  1.00  0.00     0.048 A 
HETATM    8  C13 UNL     1      24.296   2.203  51.023  1.00  0.00     0.088 A 
HETATM    9  C14 UNL     1      25.552   1.978  51.574  1.00  0.00     0.028 A 
HETATM   10  C15 UNL     1      25.638   1.057  52.576  1.00  0.00     0.099 A 
HETATM   11  C16 UNL     1      24.508   0.421  52.963  1.00  0.00     0.035 A 
HETATM   12  N4  UNL     1      26.730   0.806  53.220  1.00  0.00    -0.062 NA
HETATM   13  C17 UNL     1      26.631   2.620  51.158  1.00  0.00     0.018 A 
HETATM   14  C18 UNL     1      26.469   3.592  50.081  1.00  0.00     0.026 A 
HETATM   15  C19 UNL     1      25.283   3.851  49.511  1.00  0.00     0.142 A 
HETATM   16  O1  UNL     1      24.159   3.144  49.986  1.00  0.00    -0.322 OA
HETATM   17  H4  UNL     1      23.194   0.476  54.982  1.00  0.00     0.320 HD
ENDROOT
BRANCH   5  18
HETATM   18  C4  UNL     1      21.099   0.510  53.657  1.00  0.00     0.081 C 
BRANCH  18  19
HETATM   19  C5  UNL     1      19.816   0.102  53.058  1.00  0.00    -0.034 A 
HETATM   20  C6  UNL     1      19.312  -1.050  53.671  1.00  0.00     0.010 A 
HETATM   21  C7  UNL     1      18.121  -1.641  53.303  1.00  0.00     0.024 A 
HETATM   22  C8  UNL     1      17.367  -1.095  52.287  1.00  0.00     0.035 A 
HETATM   23 CL1  UNL     1      15.852  -1.766  51.752  1.00  0.00    -0.084 Cl
HETATM   24  C9  UNL     1      17.843   0.041  51.669  1.00  0.00     0.048 A 
HETATM   25  C10 UNL     1      19.035   0.606  52.060  1.00  0.00     0.042 A 
HETATM   26 CL2  UNL     1      19.623   2.031  51.286  1.00  0.00    -0.084 Cl
ENDBRANCH  18  19
ENDBRANCH   5  18
BRANCH   1  27
HETATM   27  N1  UNL     1      27.926  -0.293  54.950  1.00  0.00    -0.231 N 
HETATM   28  H1  UNL     1      28.943  -0.126  54.721  1.00  0.00     0.174 HD
HETATM   29  H2  UNL     1      28.285  -0.555  55.878  1.00  0.00     0.174 HD
ENDBRANCH   1  27
TORSDOF 3
ENDMDL
MODEL 4
REMARK VINA RESULT:      -9.3      1.728      2.085
REMARK  3 active torsions:
REMARK  status: ('A' for Active; 'I' for Inactive)
REMARK    1  A    between atoms: N1_1  and  C1_2 
REMARK    2  A    between atoms: C3_6  and  C4_7 
REMARK    3  A    between atoms: C4_7  and  C5_8 
ROOT
HETATM    1  C1  UNL     1      25.438   0.232  53.830  1.00  0.00     0.718 C 
HETATM    2  N2  UNL     1      26.338   1.100  53.514  1.00  0.00    -0.064 NA
HETATM    3  C2  UNL     1      26.132   2.124  52.610  1.00  0.00     0.397 C 
HETATM    4  N3  UNL     1      26.925   2.406  51.477  1.00  0.00     0.122 N 
HETATM    5  C3  UNL     1      26.101   3.469  50.786  1.00  0.00     0.261 C 
HETATM    6  C11 UNL     1      24.747   2.804  50.874  1.00  0.00    -0.010 A 
HETATM    7  C12 UNL     1      23.535   2.818  50.211  1.00  0.00     0.048 A 
HETATM    8  C13 UNL     1      22.519   1.932  50.598  1.00  0.00     0.088 A 
HETATM    9  C14 UNL     1      22.656   1.014  51.633  1.00  0.00     0.028 A 
HETATM   10  C15 UNL     1      23.849   0.991  52.293  1.00  0.00     0.099 A 
HETATM   11  C16 UNL     1      24.813   1.859  51.908  1.00  0.00     0.035 A 
HETATM   12  N4  UNL     1      24.131   0.141  53.224  1.00  0.00    -0.062 NA
HETATM   13  C17 UNL     1      21.681   0.189  51.978  1.00  0.00     0.018 A 
HETATM   14  C18 UNL     1      20.430   0.266  51.231  1.00  0.00     0.026 A 
HETATM   15  C19 UNL     1      20.241   1.131  50.223  1.00  0.00     0.142 A 
HETATM   16  O1  UNL     1      21.306   1.992  49.889  1.00  0.00    -0.322 OA
HETATM   17  H4  UNL     1      26.955   1.578  50.844  1.00  0.00     0.320 HD
ENDROOT
BRANCH   5  18
HETATM   18  C4  UNL     1      26.518   3.524  49.372  1.00  0.00     0.081 C 
BRANCH  18  19
HETATM   19  C5  UNL     1      26.888   4.848  48.844  1.00  0.00    -0.034 A 
HETATM   20  C6  UNL     1      28.255   4.917  48.557  1.00  0.00     0.010 A 
HETATM   21  C7  UNL     1      28.863   6.045  48.046  1.00  0.00     0.024 A 
HETATM   22  C8  UNL     1      28.116   7.176  47.795  1.00  0.00     0.035 A 
HETATM   23 CL1  UNL     1      28.791   8.647  47.151  1.00  0.00    -0.084 Cl
HETATM   24  C9  UNL     1      26.766   7.131  48.069  1.00  0.00     0.048 A 
HETATM   25  C10 UNL     1      26.191   5.990  48.578  1.00  0.00     0.042 A 
HETATM   26 CL2  UNL     1      24.499   5.939  48.915  1.00  0.00    -0.084 Cl
ENDBRANCH  18  19
ENDBRANCH   5  18
BRANCH   1  27
HETATM   27  N1  UNL     1      25.641  -0.831  54.775  1.00  0.00    -0.231 N 
HETATM   28  H1  UNL     1      26.006  -0.924  55.761  1.00  0.00     0.174 HD
HETATM   29  H2  UNL     1      25.510  -1.850  54.838  1.00  0.00     0.174 HD
ENDBRANCH   1  27
TORSDOF 3
ENDMDL
MODEL 5
REMARK VINA RESULT:      -9.2      2.958      3.831
REMARK  3 active torsions:
REMARK  status: ('A' for Active; 'I' for Inactive)
REMARK    1  A    between atoms: N1_1  and  C1_2 
REMARK    2  A    between atoms: C3_6  and  C4_7 
REMARK    3  A    between atoms: C4_7  and  C5_8 
ROOT
HETATM    1  C1  UNL     1      19.920   1.258  49.714  1.00  0.00     0.718 C 
HETATM    2  N2  UNL     1      20.764   1.983  49.062  1.00  0.00    -0.064 NA
HETATM    3  C2  UNL     1      22.100   2.093  49.398  1.00  0.00     0.397 C 
HETATM    4  N3  UNL     1      22.803   3.296  49.625  1.00  0.00     0.122 N 
HETATM    5  C3  UNL     1      24.124   2.779  50.149  1.00  0.00     0.261 C 
HETATM    6  C11 UNL     1      23.598   1.768  51.141  1.00  0.00    -0.010 A 
HETATM    7  C12 UNL     1      24.006   1.137  52.301  1.00  0.00     0.048 A 
HETATM    8  C13 UNL     1      23.122   0.284  52.977  1.00  0.00     0.088 A 
HETATM    9  C14 UNL     1      21.827   0.024  52.545  1.00  0.00     0.028 A 
HETATM   10  C15 UNL     1      21.414   0.642  51.402  1.00  0.00     0.099 A 
HETATM   11  C16 UNL     1      22.285   1.455  50.761  1.00  0.00     0.035 A 
HETATM   12  N4  UNL     1      20.215   0.542  50.932  1.00  0.00    -0.062 NA
HETATM   13  C17 UNL     1      21.013  -0.786  53.203  1.00  0.00     0.018 A 
HETATM   14  C18 UNL     1      21.517  -1.415  54.419  1.00  0.00     0.026 A 
HETATM   15  C19 UNL     1      22.757  -1.201  54.884  1.00  0.00     0.142 A 
HETATM   16  O1  UNL     1      23.591  -0.331  54.153  1.00  0.00    -0.322 OA
HETATM   17  H4  UNL     1      22.354   3.835  50.396  1.00  0.00     0.320 HD
ENDROOT
BRANCH   5  18
HETATM   18  C4  UNL     1      24.784   3.874  50.886  1.00  0.00     0.081 C 
BRANCH  18  19
HETATM   19  C5  UNL     1      25.630   4.786  50.096  1.00  0.00    -0.034 A 
HETATM   20  C6  UNL     1      26.652   4.092  49.441  1.00  0.00     0.010 A 
HETATM   21  C7  UNL     1      27.583   4.708  48.631  1.00  0.00     0.024 A 
HETATM   22  C8  UNL     1      27.532   6.071  48.436  1.00  0.00     0.035 A 
HETATM   23 CL1  UNL     1      28.661   6.939  47.433  1.00  0.00    -0.084 Cl
HETATM   24  C9  UNL     1      26.533   6.776  49.072  1.00  0.00     0.048 A 
HETATM   25  C10 UNL     1      25.619   6.131  49.873  1.00  0.00     0.042 A 
HETATM   26 CL2  UNL     1      24.368   7.019  50.662  1.00  0.00    -0.084 Cl
ENDBRANCH  18  19
ENDBRANCH   5  18
BRANCH   1  27
HETATM   27  N1  UNL     1      18.531   1.131  49.367  1.00  0.00    -0.231 N 
HETATM   28  H1  UNL     1      17.823   1.684  48.814  1.00  0.00     0.174 HD
HETATM   29  H2  UNL     1      17.749   0.480  49.521  1.00  0.00     0.174 HD
ENDBRANCH   1  27
TORSDOF 3
ENDMDL
MODEL 6
REMARK VINA RESULT:      -8.9      4.331      6.105
REMARK  3 active torsions:
REMARK  status: ('A' for Active; 'I' for Inactive)
REMARK    1  A    between atoms: N1_1  and  C1_2 
REMARK    2  A    between atoms: C3_6  and  C4_7 
REMARK    3  A    between atoms: C4_7  and  C5_8 
ROOT
HETATM    1  C1  UNL     1      20.190   2.183  48.559  1.00  0.00     0.718 C 
HETATM    2  N2  UNL     1      21.471   2.299  48.666  1.00  0.00    -0.064 NA
HETATM    3  C2  UNL     1      22.219   1.662  49.638  1.00  0.00     0.397 C 
HETATM    4  N3  UNL     1      23.116   2.282  50.534  1.00  0.00     0.122 N 
HETATM    5  C3  UNL     1      23.453   1.138  51.465  1.00  0.00     0.261 C 
HETATM    6  C11 UNL     1      22.055   0.618  51.705  1.00  0.00    -0.010 A 
HETATM    7  C12 UNL     1      21.360  -0.095  52.663  1.00  0.00     0.048 A 
HETATM    8  C13 UNL     1      19.980  -0.296  52.517  1.00  0.00     0.088 A 
HETATM    9  C14 UNL     1      19.245   0.191  51.441  1.00  0.00     0.028 A 
HETATM   10  C15 UNL     1      19.921   0.897  50.491  1.00  0.00     0.099 A 
HETATM   11  C16 UNL     1      21.254   1.072  50.648  1.00  0.00     0.035 A 
HETATM   12  N4  UNL     1      19.346   1.462  49.481  1.00  0.00    -0.062 NA
HETATM   13  C17 UNL     1      17.942  -0.012  51.328  1.00  0.00     0.018 A 
HETATM   14  C18 UNL     1      17.279  -0.776  52.380  1.00  0.00     0.026 A 
HETATM   15  C19 UNL     1      17.937  -1.270  53.440  1.00  0.00     0.142 A 
HETATM   16  O1  UNL     1      19.324  -1.030  53.522  1.00  0.00    -0.322 OA
HETATM   17  H4  UNL     1      22.620   3.004  51.099  1.00  0.00     0.320 HD
ENDROOT
BRANCH   5  18
HETATM   18  C4  UNL     1      23.975   1.709  52.721  1.00  0.00     0.081 C 
BRANCH  18  19
HETATM   19  C5  UNL     1      25.315   1.262  53.142  1.00  0.00    -0.034 A 
HETATM   20  C6  UNL     1      26.316   2.065  52.587  1.00  0.00     0.010 A 
HETATM   21  C7  UNL     1      27.661   1.867  52.825  1.00  0.00     0.024 A 
HETATM   22  C8  UNL     1      28.070   0.836  53.644  1.00  0.00     0.035 A 
HETATM   23 CL1  UNL     1      29.742   0.506  54.004  1.00  0.00    -0.084 Cl
HETATM   24  C9  UNL     1      27.101   0.032  54.202  1.00  0.00     0.048 A 
HETATM   25  C10 UNL     1      25.768   0.257  53.945  1.00  0.00     0.042 A 
HETATM   26 CL2  UNL     1      24.559  -0.750  54.652  1.00  0.00    -0.084 Cl
ENDBRANCH  18  19
ENDBRANCH   5  18
BRANCH   1  27
HETATM   27  N1  UNL     1      19.406   2.834  47.546  1.00  0.00    -0.231 N 
HETATM   28  H1  UNL     1      18.813   2.538  46.724  1.00  0.00     0.174 HD
HETATM   29  H2  UNL     1      19.142   3.787  47.262  1.00  0.00     0.174 HD
ENDBRANCH   1  27
TORSDOF 3
ENDMDL
MODEL 7
REMARK VINA RESULT:      -8.8      3.855      6.250
REMARK  3 active torsions:
REMARK  status: ('A' for Active; 'I' for Inactive)
REMARK    1  A    between atoms: N1_1  and  C1_2 
REMARK    2  A    between atoms: C3_6  and  C4_7 
REMARK    3  A    between atoms: C4_7  and  C5_8 
ROOT
HETATM    1  C1  UNL     1      21.806   5.645  50.994  1.00  0.00     0.718 C 
HETATM    2  N2  UNL     1      23.084   5.521  51.113  1.00  0.00    -0.064 NA
HETATM    3  C2  UNL     1      23.720   4.314  51.334  1.00  0.00     0.397 C 
HETATM    4  N3  UNL     1      24.625   4.030  52.380  1.00  0.00     0.122 N 
HETATM    5  C3  UNL     1      24.807   2.537  52.226  1.00  0.00     0.261 C 
HETATM    6  C11 UNL     1      23.356   2.143  52.072  1.00  0.00    -0.010 A 
HETATM    7  C12 UNL     1      22.550   1.038  52.271  1.00  0.00     0.048 A 
HETATM    8  C13 UNL     1      21.166   1.140  52.066  1.00  0.00     0.088 A 
HETATM    9  C14 UNL     1      20.535   2.313  51.667  1.00  0.00     0.028 A 
HETATM   10  C15 UNL     1      21.321   3.409  51.469  1.00  0.00     0.099 A 
HETATM   11  C16 UNL     1      22.655   3.287  51.665  1.00  0.00     0.035 A 
HETATM   12  N4  UNL     1      20.853   4.575  51.166  1.00  0.00    -0.062 NA
HETATM   13  C17 UNL     1      19.227   2.381  51.481  1.00  0.00     0.018 A 
HETATM   14  C18 UNL     1      18.444   1.171  51.710  1.00  0.00     0.026 A 
HETATM   15  C19 UNL     1      18.998   0.012  52.097  1.00  0.00     0.142 A 
HETATM   16  O1  UNL     1      20.395  -0.016  52.283  1.00  0.00    -0.322 OA
HETATM   17  H4  UNL     1      24.169   4.193  53.304  1.00  0.00     0.320 HD
ENDROOT
BRANCH   5  18
HETATM   18  C4  UNL     1      25.315   2.004  53.504  1.00  0.00     0.081 C 
BRANCH  18  19
HETATM   19  C5  UNL     1      26.390   0.999  53.420  1.00  0.00    -0.034 A 
HETATM   20  C6  UNL     1      25.873  -0.284  53.215  1.00  0.00     0.010 A 
HETATM   21  C7  UNL     1      26.666  -1.406  53.096  1.00  0.00     0.024 A 
HETATM   22  C8  UNL     1      28.037  -1.293  53.177  1.00  0.00     0.035 A 
HETATM   23 CL1  UNL     1      29.120  -2.650  53.038  1.00  0.00    -0.084 Cl
HETATM   24  C9  UNL     1      28.569  -0.038  53.378  1.00  0.00     0.048 A 
HETATM   25  C10 UNL     1      27.750   1.062  53.493  1.00  0.00     0.042 A 
HETATM   26 CL2  UNL     1      28.424   2.631  53.739  1.00  0.00    -0.084 Cl
ENDBRANCH  18  19
ENDBRANCH   5  18
BRANCH   1  27
HETATM   27  N1  UNL     1      21.137   6.894  50.755  1.00  0.00    -0.231 N 
HETATM   28  H1  UNL     1      21.418   7.884  50.520  1.00  0.00     0.174 HD
HETATM   29  H2  UNL     1      20.179   7.268  50.726  1.00  0.00     0.174 HD
ENDBRANCH   1  27
TORSDOF 3
ENDMDL
MODEL 8
REMARK VINA RESULT:      -8.8      4.108      8.449
REMARK  3 active torsions:
REMARK  status: ('A' for Active; 'I' for Inactive)
REMARK    1  A    between atoms: N1_1  and  C1_2 
REMARK    2  A    between atoms: C3_6  and  C4_7 
REMARK    3  A    between atoms: C4_7  and  C5_8 
ROOT
HETATM    1  C1  UNL     1      23.257   7.902  49.416  1.00  0.00     0.718 C 
HETATM    2  N2  UNL     1      22.611   7.076  50.166  1.00  0.00    -0.064 NA
HETATM    3  C2  UNL     1      23.155   5.910  50.669  1.00  0.00     0.397 C 
HETATM    4  N3  UNL     1      22.616   4.613  50.531  1.00  0.00     0.122 N 
HETATM    5  C3  UNL     1      23.733   3.759  51.086  1.00  0.00     0.261 C 
HETATM    6  C11 UNL     1      24.895   4.402  50.365  1.00  0.00    -0.010 A 
HETATM    7  C12 UNL     1      26.171   4.076  49.946  1.00  0.00     0.048 A 
HETATM    8  C13 UNL     1      26.915   4.999  49.197  1.00  0.00     0.088 A 
HETATM    9  C14 UNL     1      26.439   6.255  48.836  1.00  0.00     0.028 A 
HETATM   10  C15 UNL     1      25.181   6.586  49.243  1.00  0.00     0.099 A 
HETATM   11  C16 UNL     1      24.483   5.684  49.972  1.00  0.00     0.035 A 
HETATM   12  N4  UNL     1      24.595   7.690  48.916  1.00  0.00    -0.062 NA
HETATM   13  C17 UNL     1      27.163   7.106  48.128  1.00  0.00     0.018 A 
HETATM   14  C18 UNL     1      28.502   6.689  47.724  1.00  0.00     0.026 A 
HETATM   15  C19 UNL     1      29.013   5.490  48.043  1.00  0.00     0.142 A 
HETATM   16  O1  UNL     1      28.208   4.614  48.799  1.00  0.00    -0.322 OA
HETATM   17  H4  UNL     1      22.514   4.371  49.521  1.00  0.00     0.320 HD
ENDROOT
BRANCH   5  18
HETATM   18  C4  UNL     1      23.556   2.385  50.578  1.00  0.00     0.081 C 
BRANCH  18  19
HETATM   19  C5  UNL     1      23.304   1.337  51.583  1.00  0.00    -0.034 A 
HETATM   20  C6  UNL     1      21.961   0.947  51.585  1.00  0.00     0.010 A 
HETATM   21  C7  UNL     1      21.459  -0.023  52.428  1.00  0.00     0.024 A 
HETATM   22  C8  UNL     1      22.293  -0.657  53.323  1.00  0.00     0.035 A 
HETATM   23 CL1  UNL     1      21.754  -1.892  54.426  1.00  0.00    -0.084 Cl
HETATM   24  C9  UNL     1      23.621  -0.288  53.338  1.00  0.00     0.048 A 
HETATM   25  C10 UNL     1      24.091   0.682  52.484  1.00  0.00     0.042 A 
HETATM   26 CL2  UNL     1      25.755   1.135  52.505  1.00  0.00    -0.084 Cl
ENDBRANCH  18  19
ENDBRANCH   5  18
BRANCH   1  27
HETATM   27  N1  UNL     1      22.702   9.121  48.895  1.00  0.00    -0.231 N 
HETATM   28  H1  UNL     1      21.768   9.443  48.522  1.00  0.00     0.174 HD
HETATM   29  H2  UNL     1      22.996  10.088  48.703  1.00  0.00     0.174 HD
ENDBRANCH   1  27
TORSDOF 3
ENDMDL
MODEL 9
REMARK VINA RESULT:      -8.7      2.334      3.812
REMARK  3 active torsions:
REMARK  status: ('A' for Active; 'I' for Inactive)
REMARK    1  A    between atoms: N1_1  and  C1_2 
REMARK    2  A    between atoms: C3_6  and  C4_7 
REMARK    3  A    between atoms: C4_7  and  C5_8 
ROOT
HETATM    1  C1  UNL     1      22.971  -0.451  53.149  1.00  0.00     0.718 C 
HETATM    2  N2  UNL     1      22.424   0.417  52.368  1.00  0.00    -0.064 NA
HETATM    3  C2  UNL     1      23.135   1.372  51.667  1.00  0.00     0.397 C 
HETATM    4  N3  UNL     1      22.903   2.765  51.691  1.00  0.00     0.122 N 
HETATM    5  C3  UNL     1      24.097   3.284  50.921  1.00  0.00     0.261 C 
HETATM    6  C11 UNL     1      25.178   2.474  51.600  1.00  0.00    -0.010 A 
HETATM    7  C12 UNL     1      26.536   2.548  51.843  1.00  0.00     0.048 A 
HETATM    8  C13 UNL     1      27.157   1.564  52.627  1.00  0.00     0.088 A 
HETATM    9  C14 UNL     1      26.476   0.491  53.191  1.00  0.00     0.028 A 
HETATM   10  C15 UNL     1      25.135   0.411  52.958  1.00  0.00     0.099 A 
HETATM   11  C16 UNL     1      24.557   1.366  52.194  1.00  0.00     0.035 A 
HETATM   12  N4  UNL     1      24.375  -0.494  53.482  1.00  0.00    -0.062 NA
HETATM   13  C17 UNL     1      27.087  -0.423  53.927  1.00  0.00     0.018 A 
HETATM   14  C18 UNL     1      28.524  -0.277  54.138  1.00  0.00     0.026 A 
HETATM   15  C19 UNL     1      29.232   0.737  53.618  1.00  0.00     0.142 A 
HETATM   16  O1  UNL     1      28.542   1.689  52.841  1.00  0.00    -0.322 OA
HETATM   17  H4  UNL     1      22.982   3.126  52.666  1.00  0.00     0.320 HD
ENDROOT
BRANCH   5  18
HETATM   18  C4  UNL     1      24.278   4.707  51.264  1.00  0.00     0.081 C 
BRANCH  18  19
HETATM   19  C5  UNL     1      24.576   5.622  50.148  1.00  0.00    -0.034 A 
HETATM   20  C6  UNL     1      25.850   5.384  49.622  1.00  0.00     0.010 A 
HETATM   21  C7  UNL     1      26.375   6.100  48.566  1.00  0.00     0.024 A 
HETATM   22  C8  UNL     1      25.636   7.104  47.978  1.00  0.00     0.035 A 
HETATM   23 CL1  UNL     1      26.212   8.061  46.642  1.00  0.00    -0.084 Cl
HETATM   24  C9  UNL     1      24.378   7.355  48.480  1.00  0.00     0.048 A 
HETATM   25  C10 UNL     1      23.883   6.623  49.534  1.00  0.00     0.042 A 
HETATM   26 CL2  UNL     1      22.304   6.941  50.154  1.00  0.00    -0.084 Cl
ENDBRANCH  18  19
ENDBRANCH   5  18
BRANCH   1  27
HETATM   27  N1  UNL     1      22.241  -1.454  53.875  1.00  0.00    -0.231 N 
HETATM   28  H1  UNL     1      22.253  -1.860  54.850  1.00  0.00     0.174 HD
HETATM   29  H2  UNL     1      21.469  -2.116  53.721  1.00  0.00     0.174 HD
ENDBRANCH   1  27
TORSDOF 3
ENDMDL
