MODEL 1
REMARK VINA RESULT:      -8.1      0.000      0.000
REMARK  4 active torsions:
REMARK  status: ('A' for Active; 'I' for Inactive)
REMARK    1  A    between atoms: C2_2  and  O1_3 
REMARK    2  A    between atoms: O1_3  and  C3_4 
REMARK    3  A    between atoms: C7_8  and  C8_9 
REMARK    4  A    between atoms: N2_12  and  C10_13 
ROOT
HETATM    1  C8  UNL     1      21.859   0.466  53.018  1.00  0.00     0.101 C 
HETATM    2  C9  UNL     1      22.385  -0.437  53.804  1.00  0.00     0.140 C 
HETATM    3  N1  UNL     1      23.619  -0.753  53.656  1.00  0.00    -0.162 NA
HETATM    4  N2  UNL     1      24.503   0.290  53.365  1.00  0.00    -0.229 N 
HETATM    5  C16 UNL     1      23.966   1.491  52.863  1.00  0.00     0.235 C 
HETATM    6  N3  UNL     1      22.672   1.604  52.684  1.00  0.00    -0.239 NA
ENDROOT
BRANCH   1   7
HETATM    7  C7  UNL     1      20.496   0.155  52.602  1.00  0.00    -0.002 A 
HETATM    8  C6  UNL     1      20.207   0.745  51.370  1.00  0.00     0.014 A 
HETATM    9  C5  UNL     1      18.952   0.579  50.777  1.00  0.00     0.004 A 
HETATM   10  C4  UNL     1      17.990  -0.184  51.432  1.00  0.00     0.037 A 
HETATM   11  C3  UNL     1      18.308  -0.754  52.648  1.00  0.00     0.069 A 
HETATM   12  C17 UNL     1      19.540  -0.600  53.246  1.00  0.00     0.050 A 
BRANCH  11  13
HETATM   13  O1  UNL     1      17.375  -1.523  53.334  1.00  0.00    -0.351 OA
BRANCH  13  14
HETATM   14  C2  UNL     1      17.842  -2.782  53.798  1.00  0.00     0.171 C 
HETATM   15  C1  UNL     1      16.950  -3.925  53.437  1.00  0.00     0.034 C 
ENDBRANCH  13  14
ENDBRANCH  11  13
ENDBRANCH   1   7
BRANCH   4  16
HETATM   16  C10 UNL     1      25.891   0.134  53.571  1.00  0.00     0.061 C 
HETATM   17  C11 UNL     1      26.451  -0.837  52.837  1.00  0.00     0.029 C 
HETATM   18  C12 UNL     1      27.872  -1.158  52.903  1.00  0.00     0.000 C 
HETATM   19  C13 UNL     1      28.852  -0.763  53.719  1.00  0.00    -0.001 C 
HETATM   20  C14 UNL     1      28.605   0.198  54.836  1.00  0.00     0.195 C 
HETATM   21  O2  UNL     1      27.849   1.256  54.338  1.00  0.00    -0.382 OA
HETATM   22  C15 UNL     1      26.487   1.069  54.562  1.00  0.00     0.227 C 
ENDBRANCH   4  16
TORSDOF 4
ENDMDL
MODEL 2
REMARK VINA RESULT:      -7.7      1.521      8.311
REMARK  4 active torsions:
REMARK  status: ('A' for Active; 'I' for Inactive)
REMARK    1  A    between atoms: C2_2  and  O1_3 
REMARK    2  A    between atoms: O1_3  and  C3_4 
REMARK    3  A    between atoms: C7_8  and  C8_9 
REMARK    4  A    between atoms: N2_12  and  C10_13 
ROOT
HETATM    1  C8  UNL     1      22.858   0.148  53.277  1.00  0.00     0.101 C 
HETATM    2  C9  UNL     1      22.198   0.918  52.451  1.00  0.00     0.140 C 
HETATM    3  N1  UNL     1      21.116   0.483  51.917  1.00  0.00    -0.162 NA
HETATM    4  N2  UNL     1      20.275  -0.276  52.736  1.00  0.00    -0.229 N 
HETATM    5  C16 UNL     1      20.823  -0.843  53.902  1.00  0.00     0.235 C 
HETATM    6  N3  UNL     1      22.087  -0.650  54.191  1.00  0.00    -0.239 NA
ENDROOT
BRANCH   1   7
HETATM    7  C7  UNL     1      24.305   0.234  53.124  1.00  0.00    -0.002 A 
HETATM    8  C6  UNL     1      24.646   1.162  52.137  1.00  0.00     0.014 A 
HETATM    9  C5  UNL     1      25.984   1.408  51.821  1.00  0.00     0.004 A 
HETATM   10  C4  UNL     1      26.980   0.714  52.503  1.00  0.00     0.037 A 
HETATM   11  C3  UNL     1      26.609  -0.196  53.473  1.00  0.00     0.069 A 
HETATM   12  C17 UNL     1      25.295  -0.450  53.796  1.00  0.00     0.050 A 
BRANCH  11  13
HETATM   13  O1  UNL     1      27.573  -0.909  54.177  1.00  0.00    -0.351 OA
BRANCH  13  14
HETATM   14  C2  UNL     1      28.824  -0.255  54.334  1.00  0.00     0.171 C 
HETATM   15  C1  UNL     1      29.969  -0.991  53.716  1.00  0.00     0.034 C 
ENDBRANCH  13  14
ENDBRANCH  11  13
ENDBRANCH   1   7
BRANCH   4  16
HETATM   16  C10 UNL     1      18.918  -0.463  52.394  1.00  0.00     0.061 C 
HETATM   17  C11 UNL     1      18.559   0.101  51.233  1.00  0.00     0.029 C 
HETATM   18  C12 UNL     1      17.203   0.023  50.702  1.00  0.00     0.000 C 
HETATM   19  C13 UNL     1      16.052  -0.412  51.220  1.00  0.00    -0.001 C 
HETATM   20  C14 UNL     1      15.972  -0.957  52.608  1.00  0.00     0.195 C 
HETATM   21  O2  UNL     1      17.022  -1.855  52.782  1.00  0.00    -0.382 OA
HETATM   22  C15 UNL     1      18.126  -1.249  53.377  1.00  0.00     0.227 C 
ENDBRANCH   4  16
TORSDOF 4
ENDMDL
MODEL 3
REMARK VINA RESULT:      -7.7      3.919      5.238
REMARK  4 active torsions:
REMARK  status: ('A' for Active; 'I' for Inactive)
REMARK    1  A    between atoms: C2_2  and  O1_3 
REMARK    2  A    between atoms: O1_3  and  C3_4 
REMARK    3  A    between atoms: C7_8  and  C8_9 
REMARK    4  A    between atoms: N2_12  and  C10_13 
ROOT
HETATM    1  C8  UNL     1      24.114   1.125  51.957  1.00  0.00     0.101 C 
HETATM    2  C9  UNL     1      23.489   1.803  51.030  1.00  0.00     0.140 C 
HETATM    3  N1  UNL     1      23.897   2.982  50.733  1.00  0.00    -0.162 NA
HETATM    4  N2  UNL     1      25.281   3.177  50.703  1.00  0.00    -0.229 N 
HETATM    5  C16 UNL     1      26.095   2.242  51.370  1.00  0.00     0.235 C 
HETATM    6  N3  UNL     1      25.548   1.226  51.992  1.00  0.00    -0.239 NA
ENDROOT
BRANCH   1   7
HETATM    7  C7  UNL     1      23.223   0.361  52.822  1.00  0.00    -0.002 A 
HETATM    8  C6  UNL     1      23.947  -0.312  53.809  1.00  0.00     0.014 A 
HETATM    9  C5  UNL     1      23.295  -1.110  54.752  1.00  0.00     0.004 A 
HETATM   10  C4  UNL     1      21.909  -1.227  54.697  1.00  0.00     0.037 A 
HETATM   11  C3  UNL     1      21.223  -0.548  53.710  1.00  0.00     0.069 A 
HETATM   12  C17 UNL     1      21.851   0.242  52.772  1.00  0.00     0.050 A 
BRANCH  11  13
HETATM   13  O1  UNL     1      19.839  -0.640  53.621  1.00  0.00    -0.351 OA
BRANCH  13  14
HETATM   14  C2  UNL     1      19.257  -0.017  52.485  1.00  0.00     0.171 C 
HETATM   15  C1  UNL     1      17.901  -0.543  52.139  1.00  0.00     0.034 C 
ENDBRANCH  13  14
ENDBRANCH  11  13
ENDBRANCH   1   7
BRANCH   4  16
HETATM   16  C10 UNL     1      25.835   4.282  50.022  1.00  0.00     0.061 C 
HETATM   17  C11 UNL     1      26.952   4.004  49.337  1.00  0.00     0.029 C 
HETATM   18  C12 UNL     1      27.679   5.007  48.567  1.00  0.00     0.000 C 
HETATM   19  C13 UNL     1      27.565   6.335  48.476  1.00  0.00    -0.001 C 
HETATM   20  C14 UNL     1      26.539   7.090  49.254  1.00  0.00     0.195 C 
HETATM   21  O2  UNL     1      25.320   6.429  49.121  1.00  0.00    -0.382 OA
HETATM   22  C15 UNL     1      25.087   5.558  50.182  1.00  0.00     0.227 C 
ENDBRANCH   4  16
TORSDOF 4
ENDMDL
MODEL 4
REMARK VINA RESULT:      -7.6      1.251      2.078
REMARK  4 active torsions:
REMARK  status: ('A' for Active; 'I' for Inactive)
REMARK    1  A    between atoms: C2_2  and  O1_3 
REMARK    2  A    between atoms: O1_3  and  C3_4 
REMARK    3  A    between atoms: C7_8  and  C8_9 
REMARK    4  A    between atoms: N2_12  and  C10_13 
ROOT
HETATM    1  C8  UNL     1      21.948   0.497  52.633  1.00  0.00     0.101 C 
HETATM    2  C9  UNL     1      22.395  -0.058  53.730  1.00  0.00     0.140 C 
HETATM    3  N1  UNL     1      23.599  -0.496  53.764  1.00  0.00    -0.162 NA
HETATM    4  N2  UNL     1      24.567   0.281  53.119  1.00  0.00    -0.229 N 
HETATM    5  C16 UNL     1      24.131   1.222  52.167  1.00  0.00     0.235 C 
HETATM    6  N3  UNL     1      22.852   1.348  51.909  1.00  0.00    -0.239 NA
ENDROOT
BRANCH   1   7
HETATM    7  C7  UNL     1      20.567   0.146  52.324  1.00  0.00    -0.002 A 
HETATM    8  C6  UNL     1      19.978  -0.541  53.388  1.00  0.00     0.014 A 
HETATM    9  C5  UNL     1      18.653  -0.976  53.310  1.00  0.00     0.004 A 
HETATM   10  C4  UNL     1      17.922  -0.716  52.154  1.00  0.00     0.037 A 
HETATM   11  C3  UNL     1      18.532  -0.034  51.121  1.00  0.00     0.069 A 
HETATM   12  C17 UNL     1      19.838   0.401  51.182  1.00  0.00     0.050 A 
BRANCH  11  13
HETATM   13  O1  UNL     1      17.836   0.244  49.951  1.00  0.00    -0.351 OA
BRANCH  13  14
HETATM   14  C2  UNL     1      16.434   0.028  50.007  1.00  0.00     0.171 C 
HETATM   15  C1  UNL     1      15.925  -0.900  48.952  1.00  0.00     0.034 C 
ENDBRANCH  13  14
ENDBRANCH  11  13
ENDBRANCH   1   7
BRANCH   4  16
HETATM   16  C10 UNL     1      25.936   0.119  53.421  1.00  0.00     0.061 C 
HETATM   17  C11 UNL     1      26.539  -0.862  52.736  1.00  0.00     0.029 C 
HETATM   18  C12 UNL     1      27.950  -1.190  52.903  1.00  0.00     0.000 C 
HETATM   19  C13 UNL     1      28.875  -0.793  53.780  1.00  0.00    -0.001 C 
HETATM   20  C14 UNL     1      28.557   0.179  54.869  1.00  0.00     0.195 C 
HETATM   21  O2  UNL     1      27.844   1.237  54.311  1.00  0.00    -0.382 OA
HETATM   22  C15 UNL     1      26.469   1.059  54.443  1.00  0.00     0.227 C 
ENDBRANCH   4  16
TORSDOF 4
ENDMDL
MODEL 5
REMARK VINA RESULT:      -7.5      4.728      7.774
REMARK  4 active torsions:
REMARK  status: ('A' for Active; 'I' for Inactive)
REMARK    1  A    between atoms: C2_2  and  O1_3 
REMARK    2  A    between atoms: O1_3  and  C3_4 
REMARK    3  A    between atoms: C7_8  and  C8_9 
REMARK    4  A    between atoms: N2_12  and  C10_13 
ROOT
HETATM    1  C8  UNL     1      25.307   3.206  50.408  1.00  0.00     0.101 C 
HETATM    2  C9  UNL     1      26.224   2.489  51.003  1.00  0.00     0.140 C 
HETATM    3  N1  UNL     1      25.959   1.946  52.134  1.00  0.00    -0.162 NA
HETATM    4  N2  UNL     1      24.675   1.414  52.287  1.00  0.00    -0.229 N 
HETATM    5  C16 UNL     1      23.669   1.850  51.403  1.00  0.00     0.235 C 
HETATM    6  N3  UNL     1      23.953   2.728  50.472  1.00  0.00    -0.239 NA
ENDROOT
BRANCH   1   7
HETATM    7  C7  UNL     1      25.831   4.403  49.761  1.00  0.00    -0.002 A 
HETATM    8  C6  UNL     1      27.082   4.153  49.192  1.00  0.00     0.014 A 
HETATM    9  C5  UNL     1      27.774   5.162  48.518  1.00  0.00     0.004 A 
HETATM   10  C4  UNL     1      27.199   6.427  48.419  1.00  0.00     0.037 A 
HETATM   11  C3  UNL     1      25.962   6.641  48.991  1.00  0.00     0.069 A 
HETATM   12  C17 UNL     1      25.267   5.657  49.659  1.00  0.00     0.050 A 
BRANCH  11  13
HETATM   13  O1  UNL     1      25.355   7.889  48.914  1.00  0.00    -0.351 OA
BRANCH  13  14
HETATM   14  C2  UNL     1      24.429   8.183  49.950  1.00  0.00     0.171 C 
HETATM   15  C1  UNL     1      23.083   8.603  49.452  1.00  0.00     0.034 C 
ENDBRANCH  13  14
ENDBRANCH  11  13
ENDBRANCH   1   7
BRANCH   4  16
HETATM   16  C10 UNL     1      24.405   0.470  53.301  1.00  0.00     0.061 C 
HETATM   17  C11 UNL     1      23.118   0.111  53.391  1.00  0.00     0.029 C 
HETATM   18  C12 UNL     1      22.632  -0.852  54.373  1.00  0.00     0.000 C 
HETATM   19  C13 UNL     1      23.206  -1.437  55.427  1.00  0.00    -0.001 C 
HETATM   20  C14 UNL     1      24.622  -1.153  55.808  1.00  0.00     0.195 C 
HETATM   21  O2  UNL     1      25.403  -1.218  54.657  1.00  0.00    -0.382 OA
HETATM   22  C15 UNL     1      25.591   0.039  54.089  1.00  0.00     0.227 C 
ENDBRANCH   4  16
TORSDOF 4
ENDMDL
MODEL 6
REMARK VINA RESULT:      -7.5      4.983      8.203
REMARK  4 active torsions:
REMARK  status: ('A' for Active; 'I' for Inactive)
REMARK    1  A    between atoms: C2_2  and  O1_3 
REMARK    2  A    between atoms: O1_3  and  C3_4 
REMARK    3  A    between atoms: C7_8  and  C8_9 
REMARK    4  A    between atoms: N2_12  and  C10_13 
ROOT
HETATM    1  C8  UNL     1      25.765   2.363  51.201  1.00  0.00     0.101 C 
HETATM    2  C9  UNL     1      24.661   3.060  51.133  1.00  0.00     0.140 C 
HETATM    3  N1  UNL     1      24.726   4.315  50.878  1.00  0.00    -0.162 NA
HETATM    4  N2  UNL     1      25.674   4.713  49.930  1.00  0.00    -0.229 N 
HETATM    5  C16 UNL     1      26.728   3.826  49.637  1.00  0.00     0.235 C 
HETATM    6  N3  UNL     1      26.796   2.667  50.246  1.00  0.00    -0.239 NA
ENDROOT
BRANCH   1   7
HETATM    7  C7  UNL     1      25.762   1.368  52.267  1.00  0.00    -0.002 A 
HETATM    8  C6  UNL     1      24.467   0.907  52.512  1.00  0.00     0.014 A 
HETATM    9  C5  UNL     1      24.226  -0.055  53.496  1.00  0.00     0.004 A 
HETATM   10  C4  UNL     1      25.298  -0.550  54.235  1.00  0.00     0.037 A 
HETATM   11  C3  UNL     1      26.565  -0.075  53.967  1.00  0.00     0.069 A 
HETATM   12  C17 UNL     1      26.819   0.874  53.001  1.00  0.00     0.050 A 
BRANCH  11  13
HETATM   13  O1  UNL     1      27.661  -0.544  54.682  1.00  0.00    -0.351 OA
BRANCH  13  14
HETATM   14  C2  UNL     1      28.916   0.009  54.312  1.00  0.00     0.171 C 
HETATM   15  C1  UNL     1      29.860  -0.986  53.720  1.00  0.00     0.034 C 
ENDBRANCH  13  14
ENDBRANCH  11  13
ENDBRANCH   1   7
BRANCH   4  16
HETATM   16  C10 UNL     1      25.570   5.968  49.294  1.00  0.00     0.061 C 
HETATM   17  C11 UNL     1      26.601   6.268  48.494  1.00  0.00     0.029 C 
HETATM   18  C12 UNL     1      26.685   7.517  47.745  1.00  0.00     0.000 C 
HETATM   19  C13 UNL     1      25.958   8.637  47.770  1.00  0.00    -0.001 C 
HETATM   20  C14 UNL     1      24.795   8.798  48.692  1.00  0.00     0.195 C 
HETATM   21  O2  UNL     1      24.017   7.645  48.615  1.00  0.00    -0.382 OA
HETATM   22  C15 UNL     1      24.339   6.737  49.620  1.00  0.00     0.227 C 
ENDBRANCH   4  16
TORSDOF 4
ENDMDL
MODEL 7
REMARK VINA RESULT:      -7.4      2.261      2.985
REMARK  4 active torsions:
REMARK  status: ('A' for Active; 'I' for Inactive)
REMARK    1  A    between atoms: C2_2  and  O1_3 
REMARK    2  A    between atoms: O1_3  and  C3_4 
REMARK    3  A    between atoms: C7_8  and  C8_9 
REMARK    4  A    between atoms: N2_12  and  C10_13 
ROOT
HETATM    1  C8  UNL     1      22.701   1.736  52.812  1.00  0.00     0.101 C 
HETATM    2  C9  UNL     1      23.085   0.554  53.219  1.00  0.00     0.140 C 
HETATM    3  N1  UNL     1      24.272   0.153  52.946  1.00  0.00    -0.162 NA
HETATM    4  N2  UNL     1      25.290   1.108  53.025  1.00  0.00    -0.229 N 
HETATM    5  C16 UNL     1      24.924   2.467  52.989  1.00  0.00     0.235 C 
HETATM    6  N3  UNL     1      23.662   2.803  52.885  1.00  0.00    -0.239 NA
ENDROOT
BRANCH   1   7
HETATM    7  C7  UNL     1      21.322   1.769  52.339  1.00  0.00    -0.002 A 
HETATM    8  C6  UNL     1      20.945   0.529  51.819  1.00  0.00     0.014 A 
HETATM    9  C5  UNL     1      19.660   0.331  51.307  1.00  0.00     0.004 A 
HETATM   10  C4  UNL     1      18.756   1.389  51.320  1.00  0.00     0.037 A 
HETATM   11  C3  UNL     1      19.159   2.602  51.842  1.00  0.00     0.069 A 
HETATM   12  C17 UNL     1      20.422   2.814  52.350  1.00  0.00     0.050 A 
BRANCH  11  13
HETATM   13  O1  UNL     1      18.286   3.683  51.873  1.00  0.00    -0.351 OA
BRANCH  13  14
HETATM   14  C2  UNL     1      16.964   3.414  51.429  1.00  0.00     0.171 C 
HETATM   15  C1  UNL     1      15.905   4.030  52.285  1.00  0.00     0.034 C 
ENDBRANCH  13  14
ENDBRANCH  11  13
ENDBRANCH   1   7
BRANCH   4  16
HETATM   16  C10 UNL     1      26.640   0.711  53.136  1.00  0.00     0.061 C 
HETATM   17  C11 UNL     1      26.843  -0.604  52.981  1.00  0.00     0.029 C 
HETATM   18  C12 UNL     1      28.164  -1.215  53.059  1.00  0.00     0.000 C 
HETATM   19  C13 UNL     1      29.358  -0.745  53.430  1.00  0.00    -0.001 C 
HETATM   20  C14 UNL     1      29.541   0.667  53.879  1.00  0.00     0.195 C 
HETATM   21  O2  UNL     1      28.885   1.498  52.975  1.00  0.00    -0.382 OA
HETATM   22  C15 UNL     1      27.599   1.816  53.405  1.00  0.00     0.227 C 
ENDBRANCH   4  16
TORSDOF 4
ENDMDL
MODEL 8
REMARK VINA RESULT:      -7.4      4.971      8.772
REMARK  4 active torsions:
REMARK  status: ('A' for Active; 'I' for Inactive)
REMARK    1  A    between atoms: C2_2  and  O1_3 
REMARK    2  A    between atoms: O1_3  and  C3_4 
REMARK    3  A    between atoms: C7_8  and  C8_9 
REMARK    4  A    between atoms: N2_12  and  C10_13 
ROOT
HETATM    1  C8  UNL     1      24.395   4.213  50.612  1.00  0.00     0.101 C 
HETATM    2  C9  UNL     1      24.227   2.998  50.160  1.00  0.00     0.140 C 
HETATM    3  N1  UNL     1      24.008   2.045  50.990  1.00  0.00    -0.162 NA
HETATM    4  N2  UNL     1      23.173   2.337  52.073  1.00  0.00    -0.229 N 
HETATM    5  C16 UNL     1      22.972   3.691  52.405  1.00  0.00     0.235 C 
HETATM    6  N3  UNL     1      23.559   4.630  51.705  1.00  0.00    -0.239 NA
ENDROOT
BRANCH   1   7
HETATM    7  C7  UNL     1      25.432   4.959  49.910  1.00  0.00    -0.002 A 
HETATM    8  C6  UNL     1      26.429   4.100  49.439  1.00  0.00     0.014 A 
HETATM    9  C5  UNL     1      27.526   4.600  48.734  1.00  0.00     0.004 A 
HETATM   10  C4  UNL     1      27.616   5.970  48.504  1.00  0.00     0.037 A 
HETATM   11  C3  UNL     1      26.615   6.791  48.981  1.00  0.00     0.069 A 
HETATM   12  C17 UNL     1      25.526   6.314  49.679  1.00  0.00     0.050 A 
BRANCH  11  13
HETATM   13  O1  UNL     1      26.668   8.164  48.773  1.00  0.00    -0.351 OA
BRANCH  13  14
HETATM   14  C2  UNL     1      27.180   8.928  49.856  1.00  0.00     0.171 C 
HETATM   15  C1  UNL     1      28.567   9.438  49.630  1.00  0.00     0.034 C 
ENDBRANCH  13  14
ENDBRANCH  11  13
ENDBRANCH   1   7
BRANCH   4  16
HETATM   16  C10 UNL     1      22.557   1.300  52.805  1.00  0.00     0.061 C 
HETATM   17  C11 UNL     1      23.408   0.385  53.287  1.00  0.00     0.029 C 
HETATM   18  C12 UNL     1      22.972  -0.766  54.070  1.00  0.00     0.000 C 
HETATM   19  C13 UNL     1      21.766  -1.269  54.344  1.00  0.00    -0.001 C 
HETATM   20  C14 UNL     1      20.516  -0.643  53.819  1.00  0.00     0.195 C 
HETATM   21  O2  UNL     1      20.595   0.730  54.034  1.00  0.00    -0.382 OA
HETATM   22  C15 UNL     1      21.077   1.402  52.913  1.00  0.00     0.227 C 
ENDBRANCH   4  16
TORSDOF 4
ENDMDL
MODEL 9
REMARK VINA RESULT:      -7.4      5.787      9.371
REMARK  4 active torsions:
REMARK  status: ('A' for Active; 'I' for Inactive)
REMARK    1  A    between atoms: C2_2  and  O1_3 
REMARK    2  A    between atoms: O1_3  and  C3_4 
REMARK    3  A    between atoms: C7_8  and  C8_9 
REMARK    4  A    between atoms: N2_12  and  C10_13 
ROOT
HETATM    1  C8  UNL     1      26.161   4.372  49.462  1.00  0.00     0.101 C 
HETATM    2  C9  UNL     1      26.708   3.185  49.439  1.00  0.00     0.140 C 
HETATM    3  N1  UNL     1      26.634   2.441  50.481  1.00  0.00    -0.162 NA
HETATM    4  N2  UNL     1      25.424   2.464  51.182  1.00  0.00    -0.229 N 
HETATM    5  C16 UNL     1      24.557   3.552  50.966  1.00  0.00     0.235 C 
HETATM    6  N3  UNL     1      24.894   4.501  50.128  1.00  0.00    -0.239 NA
ENDROOT
BRANCH   1   7
HETATM    7  C7  UNL     1      26.955   5.393  48.788  1.00  0.00    -0.002 A 
HETATM    8  C6  UNL     1      26.162   6.490  48.441  1.00  0.00     0.014 A 
HETATM    9  C5  UNL     1      26.715   7.591  47.783  1.00  0.00     0.004 A 
HETATM   10  C4  UNL     1      28.073   7.582  47.475  1.00  0.00     0.037 A 
HETATM   11  C3  UNL     1      28.829   6.484  47.832  1.00  0.00     0.069 A 
HETATM   12  C17 UNL     1      28.298   5.391  48.480  1.00  0.00     0.050 A 
BRANCH  11  13
HETATM   13  O1  UNL     1      30.187   6.438  47.541  1.00  0.00    -0.351 OA
BRANCH  13  14
HETATM   14  C2  UNL     1      31.035   6.102  48.631  1.00  0.00     0.171 C 
HETATM   15  C1  UNL     1      31.592   7.290  49.348  1.00  0.00     0.034 C 
ENDBRANCH  13  14
ENDBRANCH  11  13
ENDBRANCH   1   7
BRANCH   4  16
HETATM   16  C10 UNL     1      25.093   1.425  52.078  1.00  0.00     0.061 C 
HETATM   17  C11 UNL     1      23.779   1.275  52.287  1.00  0.00     0.029 C 
HETATM   18  C12 UNL     1      23.230   0.258  53.177  1.00  0.00     0.000 C 
HETATM   19  C13 UNL     1      23.794  -0.579  54.051  1.00  0.00    -0.001 C 
HETATM   20  C14 UNL     1      25.270  -0.601  54.277  1.00  0.00     0.195 C 
HETATM   21  O2  UNL     1      25.899  -0.605  53.034  1.00  0.00    -0.382 OA
HETATM   22  C15 UNL     1      26.256   0.680  52.631  1.00  0.00     0.227 C 
ENDBRANCH   4  16
TORSDOF 4
ENDMDL
