MODEL 1
REMARK VINA RESULT:      -7.2      0.000      0.000
REMARK  8 active torsions:
REMARK  status: ('A' for Active; 'I' for Inactive)
REMARK    1  A    between atoms: N1_1  and  C1_2 
REMARK    2  A    between atoms: C2_4  and  N3_5 
REMARK    3  A    between atoms: N3_5  and  C3_6 
REMARK    4  A    between atoms: C3_6  and  C4_7 
REMARK    5  A    between atoms: C5_8  and  C6_9 
REMARK    6  A    between atoms: C5_8  and  C7_11 
REMARK    7  A    between atoms: C10_15  and  C11_16 
REMARK    8  A    between atoms: C11_16  and  C12_17 
ROOT
HETATM    1  C1  UNL     1      22.631   5.519  50.849  1.00  0.00     0.714 C 
HETATM    2  N2  UNL     1      22.400   4.961  49.604  1.00  0.00    -0.046 NA
HETATM    3  C2  UNL     1      22.603   3.458  49.455  1.00  0.00     0.151 C 
HETATM    4  C8  UNL     1      23.800   3.069  49.966  1.00  0.00     0.010 C 
HETATM    5  C9  UNL     1      24.271   1.960  50.907  1.00  0.00     0.039 C 
HETATM    6  C10 UNL     1      24.789   2.778  51.954  1.00  0.00     0.034 C 
HETATM    7  N4  UNL     1      24.551   4.121  51.369  1.00  0.00    -0.278 N 
HETATM    8  C18 UNL     1      25.133   3.926  49.959  1.00  0.00     0.192 C 
HETATM    9  N5  UNL     1      23.727   5.190  51.870  1.00  0.00    -0.128 N 
HETATM   10  H19 UNL     1      24.157   5.339  52.777  1.00  0.00     0.206 HD
ENDROOT
BRANCH   3  11
HETATM   11  N3  UNL     1      22.087   2.204  49.062  1.00  0.00    -0.370 N 
HETATM   12  H3  UNL     1      22.744   1.654  48.477  1.00  0.00     0.161 HD
BRANCH  11  13
HETATM   13  C3  UNL     1      20.734   1.966  49.585  1.00  0.00     0.149 C 
BRANCH  13  14
HETATM   14  C4  UNL     1      20.754   0.880  50.598  1.00  0.00     0.000 C 
HETATM   15  C5  UNL     1      20.610   1.041  51.901  1.00  0.00    -0.026 C 
BRANCH  15  16
HETATM   16  C6  UNL     1      20.397   2.278  52.695  1.00  0.00     0.258 C 
HETATM   17  F1  UNL     1      21.573   3.042  52.687  1.00  0.00    -0.251 F 
ENDBRANCH  15  16
BRANCH  15  18
HETATM   18  C7  UNL     1      20.642  -0.102  52.850  1.00  0.00     0.258 C 
HETATM   19  F2  UNL     1      21.141   0.269  54.095  1.00  0.00    -0.251 F 
ENDBRANCH  15  18
ENDBRANCH  13  14
ENDBRANCH  11  13
ENDBRANCH   3  11
BRANCH   1  20
HETATM   20  N1  UNL     1      21.932   6.508  51.582  1.00  0.00    -0.231 N 
HETATM   21  H1  UNL     1      20.878   6.473  51.679  1.00  0.00     0.174 HD
HETATM   22  H2  UNL     1      22.609   7.199  51.962  1.00  0.00     0.174 HD
ENDBRANCH   1  20
BRANCH   6  23
HETATM   23  C11 UNL     1      25.247   2.568  53.312  1.00  0.00     0.099 C 
BRANCH  23  24
HETATM   24  C12 UNL     1      26.290   1.540  53.430  1.00  0.00    -0.031 A 
HETATM   25  C13 UNL     1      27.593   2.066  53.353  1.00  0.00     0.011 A 
HETATM   26  C14 UNL     1      28.770   1.363  53.446  1.00  0.00     0.024 A 
HETATM   27  C15 UNL     1      28.689   0.004  53.634  1.00  0.00     0.035 A 
HETATM   28 CL1  UNL     1      30.143  -0.953  53.762  1.00  0.00    -0.084 Cl
HETATM   29  C16 UNL     1      27.444  -0.583  53.718  1.00  0.00     0.048 A 
HETATM   30  C17 UNL     1      26.338   0.200  53.614  1.00  0.00     0.042 A 
HETATM   31 CL2  UNL     1      24.793  -0.570  53.704  1.00  0.00    -0.084 Cl
ENDBRANCH  23  24
ENDBRANCH   6  23
TORSDOF 8
ENDMDL
MODEL 2
REMARK VINA RESULT:      -7.2      3.680      5.935
REMARK  8 active torsions:
REMARK  status: ('A' for Active; 'I' for Inactive)
REMARK    1  A    between atoms: N1_1  and  C1_2 
REMARK    2  A    between atoms: C2_4  and  N3_5 
REMARK    3  A    between atoms: N3_5  and  C3_6 
REMARK    4  A    between atoms: C3_6  and  C4_7 
REMARK    5  A    between atoms: C5_8  and  C6_9 
REMARK    6  A    between atoms: C5_8  and  C7_11 
REMARK    7  A    between atoms: C10_15  and  C11_16 
REMARK    8  A    between atoms: C11_16  and  C12_17 
ROOT
HETATM    1  C1  UNL     1      27.400  -0.182  53.871  1.00  0.00     0.714 C 
HETATM    2  N2  UNL     1      26.250  -0.478  54.582  1.00  0.00    -0.046 NA
HETATM    3  C2  UNL     1      24.913  -0.265  53.884  1.00  0.00     0.151 C 
HETATM    4  C8  UNL     1      24.846   0.965  53.311  1.00  0.00     0.010 C 
HETATM    5  C9  UNL     1      24.434   1.506  51.942  1.00  0.00     0.039 C 
HETATM    6  C10 UNL     1      25.683   2.074  51.556  1.00  0.00     0.034 C 
HETATM    7  N4  UNL     1      26.482   1.784  52.772  1.00  0.00    -0.278 N 
HETATM    8  C18 UNL     1      25.526   2.284  53.868  1.00  0.00     0.192 C 
HETATM    9  N5  UNL     1      27.667   0.977  52.903  1.00  0.00    -0.128 N 
HETATM   10  H19 UNL     1      28.285   1.459  52.256  1.00  0.00     0.206 HD
ENDROOT
BRANCH   3  11
HETATM   11  N3  UNL     1      23.663  -0.787  53.486  1.00  0.00    -0.370 N 
HETATM   12  H3  UNL     1      23.583  -0.926  52.461  1.00  0.00     0.161 HD
BRANCH  11  13
HETATM   13  C3  UNL     1      22.765  -1.021  54.624  1.00  0.00     0.149 C 
BRANCH  13  14
HETATM   14  C4  UNL     1      21.402  -1.370  54.147  1.00  0.00     0.000 C 
HETATM   15  C5  UNL     1      20.481  -0.510  53.754  1.00  0.00    -0.026 C 
BRANCH  15  16
HETATM   16  C6  UNL     1      20.526   0.973  53.676  1.00  0.00     0.258 C 
HETATM   17  F1  UNL     1      21.170   1.354  52.490  1.00  0.00    -0.251 F 
ENDBRANCH  15  16
BRANCH  15  18
HETATM   18  C7  UNL     1      19.138  -0.942  53.288  1.00  0.00     0.258 C 
HETATM   19  F2  UNL     1      18.797  -2.201  53.775  1.00  0.00    -0.251 F 
ENDBRANCH  15  18
ENDBRANCH  13  14
ENDBRANCH  11  13
ENDBRANCH   3  11
BRANCH   1  20
HETATM   20  N1  UNL     1      28.644  -0.848  53.770  1.00  0.00    -0.231 N 
HETATM   21  H1  UNL     1      28.771  -1.828  54.151  1.00  0.00     0.174 HD
HETATM   22  H2  UNL     1      29.330  -0.230  53.293  1.00  0.00     0.174 HD
ENDBRANCH   1  20
BRANCH   6  23
HETATM   23  C11 UNL     1      26.251   2.614  50.337  1.00  0.00     0.099 C 
BRANCH  23  24
HETATM   24  C12 UNL     1      25.901   4.021  50.097  1.00  0.00    -0.031 A 
HETATM   25  C13 UNL     1      24.724   4.417  50.758  1.00  0.00     0.011 A 
HETATM   26  C14 UNL     1      24.153   5.666  50.740  1.00  0.00     0.024 A 
HETATM   27  C15 UNL     1      24.781   6.646  50.009  1.00  0.00     0.035 A 
HETATM   28 CL1  UNL     1      24.113   8.257  49.942  1.00  0.00    -0.084 Cl
HETATM   29  C16 UNL     1      25.941   6.331  49.333  1.00  0.00     0.048 A 
HETATM   30  C17 UNL     1      26.427   5.064  49.412  1.00  0.00     0.042 A 
HETATM   31 CL2  UNL     1      27.871   4.697  48.538  1.00  0.00    -0.084 Cl
ENDBRANCH  23  24
ENDBRANCH   6  23
TORSDOF 8
ENDMDL
MODEL 3
REMARK VINA RESULT:      -7.2      1.768      2.418
REMARK  8 active torsions:
REMARK  status: ('A' for Active; 'I' for Inactive)
REMARK    1  A    between atoms: N1_1  and  C1_2 
REMARK    2  A    between atoms: C2_4  and  N3_5 
REMARK    3  A    between atoms: N3_5  and  C3_6 
REMARK    4  A    between atoms: C3_6  and  C4_7 
REMARK    5  A    between atoms: C5_8  and  C6_9 
REMARK    6  A    between atoms: C5_8  and  C7_11 
REMARK    7  A    between atoms: C10_15  and  C11_16 
REMARK    8  A    between atoms: C11_16  and  C12_17 
ROOT
HETATM    1  C1  UNL     1      22.930   5.152  51.348  1.00  0.00     0.714 C 
HETATM    2  N2  UNL     1      21.879   4.409  50.841  1.00  0.00    -0.046 NA
HETATM    3  C2  UNL     1      21.581   3.067  51.499  1.00  0.00     0.151 C 
HETATM    4  C8  UNL     1      22.709   2.319  51.627  1.00  0.00     0.010 C 
HETATM    5  C9  UNL     1      23.360   1.519  52.755  1.00  0.00     0.039 C 
HETATM    6  C10 UNL     1      24.577   2.254  52.859  1.00  0.00     0.034 C 
HETATM    7  N4  UNL     1      24.373   3.241  51.770  1.00  0.00    -0.278 N 
HETATM    8  C18 UNL     1      23.935   2.314  50.623  1.00  0.00     0.192 C 
HETATM    9  N5  UNL     1      24.297   4.676  51.854  1.00  0.00    -0.128 N 
HETATM   10  H19 UNL     1      25.202   4.880  52.267  1.00  0.00     0.206 HD
ENDROOT
BRANCH   3  11
HETATM   11  N3  UNL     1      20.648   2.206  52.117  1.00  0.00    -0.370 N 
HETATM   12  H3  UNL     1      20.360   2.522  53.062  1.00  0.00     0.161 HD
BRANCH  11  13
HETATM   13  C3  UNL     1      20.293   1.061  51.267  1.00  0.00     0.149 C 
BRANCH  13  14
HETATM   14  C4  UNL     1      19.160   0.307  51.861  1.00  0.00     0.000 C 
HETATM   15  C5  UNL     1      19.234  -0.500  52.903  1.00  0.00    -0.026 C 
BRANCH  15  16
HETATM   16  C6  UNL     1      20.400  -0.871  53.745  1.00  0.00     0.258 C 
HETATM   17  F1  UNL     1      20.631   0.141  54.688  1.00  0.00    -0.251 F 
ENDBRANCH  15  16
BRANCH  15  18
HETATM   18  C7  UNL     1      18.047  -1.219  53.437  1.00  0.00     0.258 C 
HETATM   19  F2  UNL     1      18.270  -2.589  53.536  1.00  0.00    -0.251 F 
ENDBRANCH  15  18
ENDBRANCH  13  14
ENDBRANCH  11  13
ENDBRANCH   3  11
BRANCH   1  20
HETATM   20  N1  UNL     1      23.069   6.538  51.600  1.00  0.00    -0.231 N 
HETATM   21  H1  UNL     1      22.264   7.206  51.436  1.00  0.00     0.174 HD
HETATM   22  H2  UNL     1      24.031   6.732  51.941  1.00  0.00     0.174 HD
ENDBRANCH   1  20
BRANCH   6  23
HETATM   23  C11 UNL     1      25.683   2.312  53.793  1.00  0.00     0.099 C 
BRANCH  23  24
HETATM   24  C12 UNL     1      26.652   1.220  53.627  1.00  0.00    -0.031 A 
HETATM   25  C13 UNL     1      26.043  -0.033  53.432  1.00  0.00     0.011 A 
HETATM   26  C14 UNL     1      26.679  -1.234  53.233  1.00  0.00     0.024 A 
HETATM   27  C15 UNL     1      28.054  -1.234  53.217  1.00  0.00     0.035 A 
HETATM   28 CL1  UNL     1      28.929  -2.723  52.968  1.00  0.00    -0.084 Cl
HETATM   29  C16 UNL     1      28.721  -0.041  53.402  1.00  0.00     0.048 A 
HETATM   30  C17 UNL     1      28.000   1.095  53.593  1.00  0.00     0.042 A 
HETATM   31 CL2  UNL     1      28.867   2.569  53.841  1.00  0.00    -0.084 Cl
ENDBRANCH  23  24
ENDBRANCH   6  23
TORSDOF 8
ENDMDL
MODEL 4
REMARK VINA RESULT:      -7.1      3.581      5.867
REMARK  8 active torsions:
REMARK  status: ('A' for Active; 'I' for Inactive)
REMARK    1  A    between atoms: N1_1  and  C1_2 
REMARK    2  A    between atoms: C2_4  and  N3_5 
REMARK    3  A    between atoms: N3_5  and  C3_6 
REMARK    4  A    between atoms: C3_6  and  C4_7 
REMARK    5  A    between atoms: C5_8  and  C6_9 
REMARK    6  A    between atoms: C5_8  and  C7_11 
REMARK    7  A    between atoms: C10_15  and  C11_16 
REMARK    8  A    between atoms: C11_16  and  C12_17 
ROOT
HETATM    1  C1  UNL     1      27.285  -0.323  53.801  1.00  0.00     0.714 C 
HETATM    2  N2  UNL     1      26.131  -0.536  54.534  1.00  0.00    -0.046 NA
HETATM    3  C2  UNL     1      24.797  -0.287  53.841  1.00  0.00     0.151 C 
HETATM    4  C8  UNL     1      24.782   0.923  53.222  1.00  0.00     0.010 C 
HETATM    5  C9  UNL     1      24.381   1.430  51.837  1.00  0.00     0.039 C 
HETATM    6  C10 UNL     1      25.650   1.923  51.417  1.00  0.00     0.034 C 
HETATM    7  N4  UNL     1      26.449   1.641  52.635  1.00  0.00    -0.278 N 
HETATM    8  C18 UNL     1      25.530   2.228  53.720  1.00  0.00     0.192 C 
HETATM    9  N5  UNL     1      27.596   0.784  52.786  1.00  0.00    -0.128 N 
HETATM   10  H19 UNL     1      28.228   1.211  52.114  1.00  0.00     0.206 HD
ENDROOT
BRANCH   3  11
HETATM   11  N3  UNL     1      23.519  -0.763  53.476  1.00  0.00    -0.370 N 
HETATM   12  H3  UNL     1      23.393  -0.855  52.450  1.00  0.00     0.161 HD
BRANCH  11  13
HETATM   13  C3  UNL     1      22.665  -1.028  54.641  1.00  0.00     0.149 C 
BRANCH  13  14
HETATM   14  C4  UNL     1      21.272  -1.311  54.209  1.00  0.00     0.000 C 
HETATM   15  C5  UNL     1      20.429  -0.429  53.705  1.00  0.00    -0.026 C 
BRANCH  15  16
HETATM   16  C6  UNL     1      20.608   1.020  53.433  1.00  0.00     0.258 C 
HETATM   17  F1  UNL     1      21.087   1.190  52.127  1.00  0.00    -0.251 F 
ENDBRANCH  15  16
BRANCH  15  18
HETATM   18  C7  UNL     1      19.048  -0.796  53.295  1.00  0.00     0.258 C 
HETATM   19  F2  UNL     1      18.847  -0.625  51.929  1.00  0.00    -0.251 F 
ENDBRANCH  15  18
ENDBRANCH  13  14
ENDBRANCH  11  13
ENDBRANCH   3  11
BRANCH   1  20
HETATM   20  N1  UNL     1      28.495  -1.051  53.713  1.00  0.00    -0.231 N 
HETATM   21  H1  UNL     1      28.622  -1.814  52.989  1.00  0.00     0.174 HD
HETATM   22  H2  UNL     1      29.157  -0.711  54.439  1.00  0.00     0.174 HD
ENDBRANCH   1  20
BRANCH   6  23
HETATM   23  C11 UNL     1      26.229   2.388  50.173  1.00  0.00     0.099 C 
BRANCH  23  24
HETATM   24  C12 UNL     1      25.593   3.604  49.646  1.00  0.00    -0.031 A 
HETATM   25  C13 UNL     1      26.456   4.715  49.634  1.00  0.00     0.011 A 
HETATM   26  C14 UNL     1      26.160   5.980  49.188  1.00  0.00     0.024 A 
HETATM   27  C15 UNL     1      24.895   6.204  48.696  1.00  0.00     0.035 A 
HETATM   28 CL1  UNL     1      24.449   7.787  48.110  1.00  0.00    -0.084 Cl
HETATM   29  C16 UNL     1      23.994   5.161  48.676  1.00  0.00     0.048 A 
HETATM   30  C17 UNL     1      24.385   3.945  49.142  1.00  0.00     0.042 A 
HETATM   31 CL2  UNL     1      23.225   2.663  49.121  1.00  0.00    -0.084 Cl
ENDBRANCH  23  24
ENDBRANCH   6  23
TORSDOF 8
ENDMDL
MODEL 5
REMARK VINA RESULT:      -6.9      2.542      4.664
REMARK  8 active torsions:
REMARK  status: ('A' for Active; 'I' for Inactive)
REMARK    1  A    between atoms: N1_1  and  C1_2 
REMARK    2  A    between atoms: C2_4  and  N3_5 
REMARK    3  A    between atoms: N3_5  and  C3_6 
REMARK    4  A    between atoms: C3_6  and  C4_7 
REMARK    5  A    between atoms: C5_8  and  C6_9 
REMARK    6  A    between atoms: C5_8  and  C7_11 
REMARK    7  A    between atoms: C10_15  and  C11_16 
REMARK    8  A    between atoms: C11_16  and  C12_17 
ROOT
HETATM    1  C1  UNL     1      20.621   4.183  49.480  1.00  0.00     0.714 C 
HETATM    2  N2  UNL     1      20.549   5.335  50.243  1.00  0.00    -0.046 NA
HETATM    3  C2  UNL     1      21.685   5.605  51.222  1.00  0.00     0.151 C 
HETATM    4  C8  UNL     1      21.948   4.512  51.986  1.00  0.00     0.010 C 
HETATM    5  C9  UNL     1      23.207   3.747  52.392  1.00  0.00     0.039 C 
HETATM    6  C10 UNL     1      22.891   2.491  51.798  1.00  0.00     0.034 C 
HETATM    7  N4  UNL     1      21.547   2.798  51.251  1.00  0.00    -0.278 N 
HETATM    8  C18 UNL     1      20.881   3.448  52.477  1.00  0.00     0.192 C 
HETATM    9  N5  UNL     1      21.104   2.785  49.881  1.00  0.00    -0.128 N 
HETATM   10  H19 UNL     1      21.305   1.819  49.638  1.00  0.00     0.206 HD
ENDROOT
BRANCH   3  11
HETATM   11  N3  UNL     1      22.681   6.483  51.704  1.00  0.00    -0.370 N 
HETATM   12  H3  UNL     1      22.939   6.308  52.693  1.00  0.00     0.161 HD
BRANCH  11  13
HETATM   13  C3  UNL     1      23.127   7.440  50.682  1.00  0.00     0.149 C 
BRANCH  13  14
HETATM   14  C4  UNL     1      24.545   7.187  50.319  1.00  0.00     0.000 C 
HETATM   15  C5  UNL     1      24.964   6.342  49.395  1.00  0.00    -0.026 C 
BRANCH  15  16
HETATM   16  C6  UNL     1      24.192   5.448  48.495  1.00  0.00     0.258 C 
HETATM   17  F1  UNL     1      23.963   4.226  49.143  1.00  0.00    -0.251 F 
ENDBRANCH  15  16
BRANCH  15  18
HETATM   18  C7  UNL     1      26.406   6.149  49.092  1.00  0.00     0.258 C 
HETATM   19  F2  UNL     1      26.649   4.925  48.475  1.00  0.00    -0.251 F 
ENDBRANCH  15  18
ENDBRANCH  13  14
ENDBRANCH  11  13
ENDBRANCH   3  11
BRANCH   1  20
HETATM   20  N1  UNL     1      20.326   3.935  48.118  1.00  0.00    -0.231 N 
HETATM   21  H1  UNL     1      19.577   3.240  47.839  1.00  0.00     0.174 HD
HETATM   22  H2  UNL     1      20.942   4.520  47.519  1.00  0.00     0.174 HD
ENDBRANCH   1  20
BRANCH   6  23
HETATM   23  C11 UNL     1      23.602   1.258  51.525  1.00  0.00     0.099 C 
BRANCH  23  24
HETATM   24  C12 UNL     1      24.894   1.157  52.217  1.00  0.00    -0.031 A 
HETATM   25  C13 UNL     1      24.832   0.380  53.388  1.00  0.00     0.011 A 
HETATM   26  C14 UNL     1      25.872   0.089  54.237  1.00  0.00     0.024 A 
HETATM   27  C15 UNL     1      27.111   0.600  53.928  1.00  0.00     0.035 A 
HETATM   28 CL1  UNL     1      28.478   0.271  54.961  1.00  0.00    -0.084 Cl
HETATM   29  C16 UNL     1      27.248   1.373  52.794  1.00  0.00     0.048 A 
HETATM   30  C17 UNL     1      26.156   1.604  52.018  1.00  0.00     0.042 A 
HETATM   31 CL2  UNL     1      26.358   2.592  50.615  1.00  0.00    -0.084 Cl
ENDBRANCH  23  24
ENDBRANCH   6  23
TORSDOF 8
ENDMDL
MODEL 6
REMARK VINA RESULT:      -6.8      1.769      2.648
REMARK  8 active torsions:
REMARK  status: ('A' for Active; 'I' for Inactive)
REMARK    1  A    between atoms: N1_1  and  C1_2 
REMARK    2  A    between atoms: C2_4  and  N3_5 
REMARK    3  A    between atoms: N3_5  and  C3_6 
REMARK    4  A    between atoms: C3_6  and  C4_7 
REMARK    5  A    between atoms: C5_8  and  C6_9 
REMARK    6  A    between atoms: C5_8  and  C7_11 
REMARK    7  A    between atoms: C10_15  and  C11_16 
REMARK    8  A    between atoms: C11_16  and  C12_17 
ROOT
HETATM    1  C1  UNL     1      25.663   4.758  49.794  1.00  0.00     0.714 C 
HETATM    2  N2  UNL     1      24.365   4.812  49.317  1.00  0.00    -0.046 NA
HETATM    3  C2  UNL     1      23.236   4.570  50.311  1.00  0.00     0.151 C 
HETATM    4  C8  UNL     1      23.456   3.446  51.043  1.00  0.00     0.010 C 
HETATM    5  C9  UNL     1      23.404   3.089  52.528  1.00  0.00     0.039 C 
HETATM    6  C10 UNL     1      24.771   2.728  52.706  1.00  0.00     0.034 C 
HETATM    7  N4  UNL     1      25.264   2.905  51.318  1.00  0.00    -0.278 N 
HETATM    8  C18 UNL     1      24.188   2.137  50.532  1.00  0.00     0.192 C 
HETATM    9  N5  UNL     1      26.276   3.804  50.826  1.00  0.00    -0.128 N 
HETATM   10  H19 UNL     1      27.070   3.501  51.382  1.00  0.00     0.206 HD
ENDROOT
BRANCH   3  11
HETATM   11  N3  UNL     1      22.030   5.010  50.898  1.00  0.00    -0.370 N 
HETATM   12  H3  UNL     1      22.174   5.608  51.733  1.00  0.00     0.161 HD
BRANCH  11  13
HETATM   13  C3  UNL     1      20.845   4.523  50.179  1.00  0.00     0.149 C 
BRANCH  13  14
HETATM   14  C4  UNL     1      20.068   3.590  51.034  1.00  0.00     0.000 C 
HETATM   15  C5  UNL     1      19.916   2.296  50.821  1.00  0.00    -0.026 C 
BRANCH  15  16
HETATM   16  C6  UNL     1      20.447   1.437  49.732  1.00  0.00     0.258 C 
HETATM   17  F1  UNL     1      21.277   0.451  50.283  1.00  0.00    -0.251 F 
ENDBRANCH  15  16
BRANCH  15  18
HETATM   18  C7  UNL     1      19.120   1.430  51.729  1.00  0.00     0.258 C 
HETATM   19  F2  UNL     1      19.817   1.112  52.890  1.00  0.00    -0.251 F 
ENDBRANCH  15  18
ENDBRANCH  13  14
ENDBRANCH  11  13
ENDBRANCH   3  11
BRANCH   1  20
HETATM   20  N1  UNL     1      26.797   5.563  49.533  1.00  0.00    -0.231 N 
HETATM   21  H1  UNL     1      27.772   5.226  49.773  1.00  0.00     0.174 HD
HETATM   22  H2  UNL     1      26.494   6.459  49.103  1.00  0.00     0.174 HD
ENDBRANCH   1  20
BRANCH   6  23
HETATM   23  C11 UNL     1      25.639   2.453  53.833  1.00  0.00     0.099 C 
BRANCH  23  24
HETATM   24  C12 UNL     1      26.523   1.297  53.628  1.00  0.00    -0.031 A 
HETATM   25  C13 UNL     1      25.821   0.096  53.420  1.00  0.00     0.011 A 
HETATM   26  C14 UNL     1      26.365  -1.144  53.185  1.00  0.00     0.024 A 
HETATM   27  C15 UNL     1      27.735  -1.243  53.144  1.00  0.00     0.035 A 
HETATM   28 CL1  UNL     1      28.495  -2.786  52.850  1.00  0.00    -0.084 Cl
HETATM   29  C16 UNL     1      28.491  -0.106  53.340  1.00  0.00     0.048 A 
HETATM   30  C17 UNL     1      27.857   1.075  53.566  1.00  0.00     0.042 A 
HETATM   31 CL2  UNL     1      28.833   2.477  53.827  1.00  0.00    -0.084 Cl
ENDBRANCH  23  24
ENDBRANCH   6  23
TORSDOF 8
ENDMDL
MODEL 7
REMARK VINA RESULT:      -6.8      3.213      4.912
REMARK  8 active torsions:
REMARK  status: ('A' for Active; 'I' for Inactive)
REMARK    1  A    between atoms: N1_1  and  C1_2 
REMARK    2  A    between atoms: C2_4  and  N3_5 
REMARK    3  A    between atoms: N3_5  and  C3_6 
REMARK    4  A    between atoms: C3_6  and  C4_7 
REMARK    5  A    between atoms: C5_8  and  C6_9 
REMARK    6  A    between atoms: C5_8  and  C7_11 
REMARK    7  A    between atoms: C10_15  and  C11_16 
REMARK    8  A    between atoms: C11_16  and  C12_17 
ROOT
HETATM    1  C1  UNL     1      25.981   4.557  49.702  1.00  0.00     0.714 C 
HETATM    2  N2  UNL     1      24.710   4.918  49.291  1.00  0.00    -0.046 NA
HETATM    3  C2  UNL     1      23.622   5.004  50.354  1.00  0.00     0.151 C 
HETATM    4  C8  UNL     1      23.601   3.889  51.131  1.00  0.00     0.010 C 
HETATM    5  C9  UNL     1      23.556   3.611  52.633  1.00  0.00     0.039 C 
HETATM    6  C10 UNL     1      24.799   2.924  52.757  1.00  0.00     0.034 C 
HETATM    7  N4  UNL     1      25.231   2.920  51.338  1.00  0.00    -0.278 N 
HETATM    8  C18 UNL     1      23.950   2.420  50.650  1.00  0.00     0.192 C 
HETATM    9  N5  UNL     1      26.401   3.517  50.749  1.00  0.00    -0.128 N 
HETATM   10  H19 UNL     1      27.129   3.044  51.277  1.00  0.00     0.206 HD
ENDROOT
BRANCH   3  11
HETATM   11  N3  UNL     1      22.603   5.755  50.981  1.00  0.00    -0.370 N 
HETATM   12  H3  UNL     1      22.060   5.211  51.677  1.00  0.00     0.161 HD
BRANCH  11  13
HETATM   13  C3  UNL     1      22.557   7.144  50.504  1.00  0.00     0.149 C 
BRANCH  13  14
HETATM   14  C4  UNL     1      23.877   7.800  50.690  1.00  0.00     0.000 C 
HETATM   15  C5  UNL     1      24.533   8.484  49.770  1.00  0.00    -0.026 C 
BRANCH  15  16
HETATM   16  C6  UNL     1      24.171   8.785  48.362  1.00  0.00     0.258 C 
HETATM   17  F1  UNL     1      23.532  10.033  48.305  1.00  0.00    -0.251 F 
ENDBRANCH  15  16
BRANCH  15  18
HETATM   18  C7  UNL     1      25.853   9.112  50.039  1.00  0.00     0.258 C 
HETATM   19  F2  UNL     1      26.792   8.183  50.477  1.00  0.00    -0.251 F 
ENDBRANCH  15  18
ENDBRANCH  13  14
ENDBRANCH  11  13
ENDBRANCH   3  11
BRANCH   1  20
HETATM   20  N1  UNL     1      27.261   5.040  49.341  1.00  0.00    -0.231 N 
HETATM   21  H1  UNL     1      27.740   5.796  49.908  1.00  0.00     0.174 HD
HETATM   22  H2  UNL     1      27.590   4.544  48.490  1.00  0.00     0.174 HD
ENDBRANCH   1  20
BRANCH   6  23
HETATM   23  C11 UNL     1      25.641   2.481  53.850  1.00  0.00     0.099 C 
BRANCH  23  24
HETATM   24  C12 UNL     1      26.276   1.177  53.613  1.00  0.00    -0.031 A 
HETATM   25  C13 UNL     1      27.678   1.220  53.720  1.00  0.00     0.011 A 
HETATM   26  C14 UNL     1      28.547   0.166  53.569  1.00  0.00     0.024 A 
HETATM   27  C15 UNL     1      28.011  -1.067  53.285  1.00  0.00     0.035 A 
HETATM   28 CL1  UNL     1      29.054  -2.452  53.081  1.00  0.00    -0.084 Cl
HETATM   29  C16 UNL     1      26.642  -1.186  53.164  1.00  0.00     0.048 A 
HETATM   30  C17 UNL     1      25.868  -0.082  53.331  1.00  0.00     0.042 A 
HETATM   31 CL2  UNL     1      24.158  -0.262  53.154  1.00  0.00    -0.084 Cl
ENDBRANCH  23  24
ENDBRANCH   6  23
TORSDOF 8
ENDMDL
MODEL 8
REMARK VINA RESULT:      -6.7      2.708      3.954
REMARK  8 active torsions:
REMARK  status: ('A' for Active; 'I' for Inactive)
REMARK    1  A    between atoms: N1_1  and  C1_2 
REMARK    2  A    between atoms: C2_4  and  N3_5 
REMARK    3  A    between atoms: N3_5  and  C3_6 
REMARK    4  A    between atoms: C3_6  and  C4_7 
REMARK    5  A    between atoms: C5_8  and  C6_9 
REMARK    6  A    between atoms: C5_8  and  C7_11 
REMARK    7  A    between atoms: C10_15  and  C11_16 
REMARK    8  A    between atoms: C11_16  and  C12_17 
ROOT
HETATM    1  C1  UNL     1      26.071   4.500  49.685  1.00  0.00     0.714 C 
HETATM    2  N2  UNL     1      24.810   4.715  49.158  1.00  0.00    -0.046 NA
HETATM    3  C2  UNL     1      23.629   4.697  50.121  1.00  0.00     0.151 C 
HETATM    4  C8  UNL     1      23.660   3.597  50.918  1.00  0.00     0.010 C 
HETATM    5  C9  UNL     1      23.513   3.336  52.417  1.00  0.00     0.039 C 
HETATM    6  C10 UNL     1      24.807   2.790  52.664  1.00  0.00     0.034 C 
HETATM    7  N4  UNL     1      25.360   2.814  51.287  1.00  0.00    -0.278 N 
HETATM    8  C18 UNL     1      24.205   2.168  50.503  1.00  0.00     0.192 C 
HETATM    9  N5  UNL     1      26.507   3.527  50.787  1.00  0.00    -0.128 N 
HETATM   10  H19 UNL     1      27.232   3.144  51.386  1.00  0.00     0.206 HD
ENDROOT
BRANCH   3  11
HETATM   11  N3  UNL     1      22.485   5.342  50.640  1.00  0.00    -0.370 N 
HETATM   12  H3  UNL     1      22.709   6.094  51.318  1.00  0.00     0.161 HD
BRANCH  11  13
HETATM   13  C3  UNL     1      21.237   4.798  50.088  1.00  0.00     0.149 C 
BRANCH  13  14
HETATM   14  C4  UNL     1      21.165   5.048  48.626  1.00  0.00     0.000 C 
HETATM   15  C5  UNL     1      21.229   4.125  47.684  1.00  0.00    -0.026 C 
BRANCH  15  16
HETATM   16  C6  UNL     1      21.382   2.652  47.795  1.00  0.00     0.258 C 
HETATM   17  F1  UNL     1      22.719   2.306  47.552  1.00  0.00    -0.251 F 
ENDBRANCH  15  16
BRANCH  15  18
HETATM   18  C7  UNL     1      21.148   4.460  46.238  1.00  0.00     0.258 C 
HETATM   19  F2  UNL     1      22.407   4.625  45.670  1.00  0.00    -0.251 F 
ENDBRANCH  15  18
ENDBRANCH  13  14
ENDBRANCH  11  13
ENDBRANCH   3  11
BRANCH   1  20
HETATM   20  N1  UNL     1      27.319   5.115  49.424  1.00  0.00    -0.231 N 
HETATM   21  H1  UNL     1      27.669   5.916  50.022  1.00  0.00     0.174 HD
HETATM   22  H2  UNL     1      27.765   4.658  48.604  1.00  0.00     0.174 HD
ENDBRANCH   1  20
BRANCH   6  23
HETATM   23  C11 UNL     1      25.592   2.456  53.834  1.00  0.00     0.099 C 
BRANCH  23  24
HETATM   24  C12 UNL     1      26.505   1.324  53.628  1.00  0.00    -0.031 A 
HETATM   25  C13 UNL     1      25.835   0.097  53.470  1.00  0.00     0.011 A 
HETATM   26  C14 UNL     1      26.410  -1.131  53.247  1.00  0.00     0.024 A 
HETATM   27  C15 UNL     1      27.781  -1.189  53.165  1.00  0.00     0.035 A 
HETATM   28 CL1  UNL     1      28.579  -2.714  52.882  1.00  0.00    -0.084 Cl
HETATM   29  C16 UNL     1      28.506  -0.025  53.311  1.00  0.00     0.048 A 
HETATM   30  C17 UNL     1      27.843   1.141  53.530  1.00  0.00     0.042 A 
HETATM   31 CL2  UNL     1      28.782   2.578  53.728  1.00  0.00    -0.084 Cl
ENDBRANCH  23  24
ENDBRANCH   6  23
TORSDOF 8
ENDMDL
MODEL 9
REMARK VINA RESULT:      -6.7      8.355     10.901
REMARK  8 active torsions:
REMARK  status: ('A' for Active; 'I' for Inactive)
REMARK    1  A    between atoms: N1_1  and  C1_2 
REMARK    2  A    between atoms: C2_4  and  N3_5 
REMARK    3  A    between atoms: N3_5  and  C3_6 
REMARK    4  A    between atoms: C3_6  and  C4_7 
REMARK    5  A    between atoms: C5_8  and  C6_9 
REMARK    6  A    between atoms: C5_8  and  C7_11 
REMARK    7  A    between atoms: C10_15  and  C11_16 
REMARK    8  A    between atoms: C11_16  and  C12_17 
ROOT
HETATM    1  C1  UNL     1      33.450   8.071  46.434  1.00  0.00     0.714 C 
HETATM    2  N2  UNL     1      34.282   7.697  47.474  1.00  0.00    -0.046 NA
HETATM    3  C2  UNL     1      33.792   6.601  48.412  1.00  0.00     0.151 C 
HETATM    4  C8  UNL     1      32.529   6.851  48.846  1.00  0.00     0.010 C 
HETATM    5  C9  UNL     1      31.236   6.043  48.954  1.00  0.00     0.039 C 
HETATM    6  C10 UNL     1      30.427   6.820  48.075  1.00  0.00     0.034 C 
HETATM    7  N4  UNL     1      31.392   7.889  47.718  1.00  0.00    -0.278 N 
HETATM    8  C18 UNL     1      31.908   8.285  49.112  1.00  0.00     0.192 C 
HETATM    9  N5  UNL     1      31.925   8.229  46.424  1.00  0.00    -0.128 N 
HETATM   10  H19 UNL     1      31.064   8.434  45.925  1.00  0.00     0.206 HD
ENDROOT
BRANCH   3  11
HETATM   11  N3  UNL     1      34.021   5.356  49.039  1.00  0.00    -0.370 N 
HETATM   12  H3  UNL     1      33.733   5.338  50.035  1.00  0.00     0.161 HD
BRANCH  11  13
HETATM   13  C3  UNL     1      34.610   4.369  48.124  1.00  0.00     0.149 C 
BRANCH  13  14
HETATM   14  C4  UNL     1      33.645   3.272  47.854  1.00  0.00     0.000 C 
HETATM   15  C5  UNL     1      32.923   3.136  46.758  1.00  0.00    -0.026 C 
BRANCH  15  16
HETATM   16  C6  UNL     1      32.862   3.984  45.540  1.00  0.00     0.258 C 
HETATM   17  F1  UNL     1      32.100   5.129  45.811  1.00  0.00    -0.251 F 
ENDBRANCH  15  16
BRANCH  15  18
HETATM   18  C7  UNL     1      31.978   2.005  46.565  1.00  0.00     0.258 C 
HETATM   19  F2  UNL     1      32.590   0.773  46.773  1.00  0.00    -0.251 F 
ENDBRANCH  15  18
ENDBRANCH  13  14
ENDBRANCH  11  13
ENDBRANCH   3  11
BRANCH   1  20
HETATM   20  N1  UNL     1      33.714   8.375  45.077  1.00  0.00    -0.231 N 
HETATM   21  H1  UNL     1      33.397   9.290  44.651  1.00  0.00     0.174 HD
HETATM   22  H2  UNL     1      34.230   7.585  44.641  1.00  0.00     0.174 HD
ENDBRANCH   1  20
BRANCH   6  23
HETATM   23  C11 UNL     1      29.132   6.670  47.443  1.00  0.00     0.099 C 
BRANCH  23  24
HETATM   24  C12 UNL     1      28.001   6.907  48.352  1.00  0.00    -0.031 A 
HETATM   25  C13 UNL     1      27.218   5.759  48.567  1.00  0.00     0.011 A 
HETATM   26  C14 UNL     1      26.109   5.660  49.373  1.00  0.00     0.024 A 
HETATM   27  C15 UNL     1      25.708   6.788  50.049  1.00  0.00     0.035 A 
HETATM   28 CL1  UNL     1      24.310   6.736  51.092  1.00  0.00    -0.084 Cl
HETATM   29  C16 UNL     1      26.429   7.952  49.887  1.00  0.00     0.048 A 
HETATM   30  C17 UNL     1      27.512   7.948  49.065  1.00  0.00     0.042 A 
HETATM   31 CL2  UNL     1      28.381   9.428  48.868  1.00  0.00    -0.084 Cl
ENDBRANCH  23  24
ENDBRANCH   6  23
TORSDOF 8
ENDMDL
