MODEL 1
REMARK VINA RESULT:      -7.5      0.000      0.000
REMARK  9 active torsions:
REMARK  status: ('A' for Active; 'I' for Inactive)
REMARK    1  A    between atoms: O1_2  and  C2_3 
REMARK    2  A    between atoms: C6_7  and  C7_8 
REMARK    3  A    between atoms: C7_8  and  O2_9 
REMARK    4  A    between atoms: O2_9  and  C8_10 
REMARK    5  A    between atoms: C12_14  and  N1_15 
REMARK    6  A    between atoms: N1_15  and  C13_16 
REMARK    7  A    between atoms: C13_16  and  N2_17 
REMARK    8  A    between atoms: C14_18  and  C15_19 
REMARK    9  A    between atoms: C16_20  and  N3_21 
ROOT
HETATM    1  C8  UNL     1      24.737   1.514  51.730  1.00  0.00     0.071 A 
HETATM    2  C9  UNL     1      23.452   1.400  52.210  1.00  0.00     0.037 A 
HETATM    3  C10 UNL     1      23.118   0.420  53.127  1.00  0.00     0.005 A 
HETATM    4  C11 UNL     1      24.137  -0.431  53.532  1.00  0.00     0.029 A 
HETATM    5  C12 UNL     1      25.442  -0.371  53.091  1.00  0.00     0.031 A 
HETATM    6  C17 UNL     1      25.716   0.625  52.179  1.00  0.00     0.065 A 
ENDROOT
BRANCH   1   7
HETATM    7  O2  UNL     1      25.202   2.437  50.821  1.00  0.00    -0.347 OA
BRANCH   7   8
HETATM    8  C7  UNL     1      24.418   3.380  50.135  1.00  0.00     0.214 C 
BRANCH   8   9
HETATM    9  C6  UNL     1      25.357   4.362  49.514  1.00  0.00    -0.031 A 
HETATM   10  C5  UNL     1      24.828   5.607  49.150  1.00  0.00     0.009 A 
HETATM   11  C4  UNL     1      25.588   6.609  48.565  1.00  0.00     0.003 A 
HETATM   12  C3  UNL     1      26.918   6.309  48.358  1.00  0.00     0.037 A 
HETATM   13  C2  UNL     1      27.466   5.095  48.705  1.00  0.00     0.068 A 
HETATM   14  C18 UNL     1      26.695   4.111  49.285  1.00  0.00     0.046 A 
BRANCH  13  15
HETATM   15  O1  UNL     1      28.811   4.837  48.477  1.00  0.00    -0.356 OA
HETATM   16  C1  UNL     1      29.703   5.841  48.043  1.00  0.00     0.210 C 
ENDBRANCH  13  15
ENDBRANCH   8   9
ENDBRANCH   7   8
ENDBRANCH   1   7
BRANCH   5  17
HETATM   17  N1  UNL     1      26.443  -1.266  53.538  1.00  0.00    -0.372 N 
HETATM   18  H12 UNL     1      26.343  -1.689  54.485  1.00  0.00     0.161 HD
BRANCH  17  19
HETATM   19  C13 UNL     1      27.570  -1.576  52.690  1.00  0.00     0.270 C 
BRANCH  19  20
HETATM   20  N2  UNL     1      28.677  -1.970  53.526  1.00  0.00    -0.282 NA
HETATM   21  C14 UNL     1      29.645  -1.143  53.767  1.00  0.00     0.113 C 
BRANCH  21  22
HETATM   22  C15 UNL     1      29.597   0.193  53.177  1.00  0.00     0.035 C 
HETATM   23  C16 UNL     1      29.082   1.190  53.886  1.00  0.00     0.082 C 
BRANCH  23  24
HETATM   24  N3  UNL     1      28.595   0.904  55.204  1.00  0.00    -0.408 N 
HETATM   25  H18 UNL     1      28.015   0.070  55.456  1.00  0.00     0.155 HD
HETATM   26  H19 UNL     1      28.874   1.622  55.926  1.00  0.00     0.155 HD
ENDBRANCH  23  24
ENDBRANCH  21  22
ENDBRANCH  19  20
ENDBRANCH  17  19
ENDBRANCH   5  17
TORSDOF 9
ENDMDL
MODEL 2
REMARK VINA RESULT:      -7.4      2.768      6.416
REMARK  9 active torsions:
REMARK  status: ('A' for Active; 'I' for Inactive)
REMARK    1  A    between atoms: O1_2  and  C2_3 
REMARK    2  A    between atoms: C6_7  and  C7_8 
REMARK    3  A    between atoms: C7_8  and  O2_9 
REMARK    4  A    between atoms: O2_9  and  C8_10 
REMARK    5  A    between atoms: C12_14  and  N1_15 
REMARK    6  A    between atoms: N1_15  and  C13_16 
REMARK    7  A    between atoms: C13_16  and  N2_17 
REMARK    8  A    between atoms: C14_18  and  C15_19 
REMARK    9  A    between atoms: C16_20  and  N3_21 
ROOT
HETATM    1  C8  UNL     1      24.090   2.327  51.412  1.00  0.00     0.071 A 
HETATM    2  C9  UNL     1      24.704   2.633  50.219  1.00  0.00     0.037 A 
HETATM    3  C10 UNL     1      26.063   2.883  50.159  1.00  0.00     0.005 A 
HETATM    4  C11 UNL     1      26.765   2.809  51.354  1.00  0.00     0.029 A 
HETATM    5  C12 UNL     1      26.213   2.509  52.581  1.00  0.00     0.031 A 
HETATM    6  C17 UNL     1      24.855   2.269  52.579  1.00  0.00     0.065 A 
ENDROOT
BRANCH   1   7
HETATM    7  O2  UNL     1      22.755   2.059  51.611  1.00  0.00    -0.347 OA
BRANCH   7   8
HETATM    8  C7  UNL     1      21.999   1.100  50.916  1.00  0.00     0.214 C 
BRANCH   8   9
HETATM    9  C6  UNL     1      21.240   0.316  51.937  1.00  0.00    -0.031 A 
HETATM   10  C5  UNL     1      19.846   0.285  51.809  1.00  0.00     0.009 A 
HETATM   11  C4  UNL     1      19.022  -0.404  52.688  1.00  0.00     0.003 A 
HETATM   12  C3  UNL     1      19.661  -1.070  53.712  1.00  0.00     0.037 A 
HETATM   13  C2  UNL     1      21.030  -1.056  53.863  1.00  0.00     0.068 A 
HETATM   14  C18 UNL     1      21.832  -0.367  52.981  1.00  0.00     0.046 A 
BRANCH  13  15
HETATM   15  O1  UNL     1      21.630  -1.742  54.912  1.00  0.00    -0.356 OA
HETATM   16  C1  UNL     1      22.912  -1.402  55.393  1.00  0.00     0.210 C 
ENDBRANCH  13  15
ENDBRANCH   8   9
ENDBRANCH   7   8
ENDBRANCH   1   7
BRANCH   5  17
HETATM   17  N1  UNL     1      26.977   2.448  53.771  1.00  0.00    -0.372 N 
HETATM   18  H12 UNL     1      26.502   2.653  54.676  1.00  0.00     0.161 HD
BRANCH  17  19
HETATM   19  C13 UNL     1      28.379   2.107  53.717  1.00  0.00     0.270 C 
BRANCH  19  20
HETATM   20  N2  UNL     1      28.681   1.231  54.821  1.00  0.00    -0.282 NA
HETATM   21  C14 UNL     1      28.766  -0.049  54.639  1.00  0.00     0.113 C 
BRANCH  21  22
HETATM   22  C15 UNL     1      28.550  -0.589  53.298  1.00  0.00     0.035 C 
HETATM   23  C16 UNL     1      27.361  -1.092  52.991  1.00  0.00     0.082 C 
BRANCH  23  24
HETATM   24  N3  UNL     1      26.339  -1.081  53.997  1.00  0.00    -0.408 N 
HETATM   25  H18 UNL     1      25.756  -1.909  54.262  1.00  0.00     0.155 HD
HETATM   26  H19 UNL     1      26.215  -0.144  54.467  1.00  0.00     0.155 HD
ENDBRANCH  23  24
ENDBRANCH  21  22
ENDBRANCH  19  20
ENDBRANCH  17  19
ENDBRANCH   5  17
TORSDOF 9
ENDMDL
MODEL 3
REMARK VINA RESULT:      -7.4      1.910      2.718
REMARK  9 active torsions:
REMARK  status: ('A' for Active; 'I' for Inactive)
REMARK    1  A    between atoms: O1_2  and  C2_3 
REMARK    2  A    between atoms: C6_7  and  C7_8 
REMARK    3  A    between atoms: C7_8  and  O2_9 
REMARK    4  A    between atoms: O2_9  and  C8_10 
REMARK    5  A    between atoms: C12_14  and  N1_15 
REMARK    6  A    between atoms: N1_15  and  C13_16 
REMARK    7  A    between atoms: C13_16  and  N2_17 
REMARK    8  A    between atoms: C14_18  and  C15_19 
REMARK    9  A    between atoms: C16_20  and  N3_21 
ROOT
HETATM    1  C8  UNL     1      22.918   0.580  52.721  1.00  0.00     0.071 A 
HETATM    2  C9  UNL     1      21.757  -0.029  53.139  1.00  0.00     0.037 A 
HETATM    3  C10 UNL     1      21.761  -0.928  54.190  1.00  0.00     0.005 A 
HETATM    4  C11 UNL     1      22.986  -1.179  54.793  1.00  0.00     0.029 A 
HETATM    5  C12 UNL     1      24.184  -0.605  54.424  1.00  0.00     0.031 A 
HETATM    6  C17 UNL     1      24.118   0.283  53.372  1.00  0.00     0.065 A 
ENDROOT
BRANCH   1   7
HETATM    7  O2  UNL     1      23.054   1.487  51.695  1.00  0.00    -0.347 OA
BRANCH   7   8
HETATM    8  C7  UNL     1      23.084   2.885  51.835  1.00  0.00     0.214 C 
BRANCH   8   9
HETATM    9  C6  UNL     1      24.175   3.391  50.948  1.00  0.00    -0.031 A 
HETATM   10  C5  UNL     1      25.374   2.667  50.936  1.00  0.00     0.009 A 
HETATM   11  C4  UNL     1      26.466   3.027  50.159  1.00  0.00     0.003 A 
HETATM   12  C3  UNL     1      26.304   4.156  49.384  1.00  0.00     0.037 A 
HETATM   13  C2  UNL     1      25.137   4.887  49.376  1.00  0.00     0.068 A 
HETATM   14  C18 UNL     1      24.063   4.515  50.154  1.00  0.00     0.046 A 
BRANCH  13  15
HETATM   15  O1  UNL     1      25.020   6.019  48.578  1.00  0.00    -0.356 OA
HETATM   16  C1  UNL     1      23.790   6.412  48.010  1.00  0.00     0.210 C 
ENDBRANCH  13  15
ENDBRANCH   8   9
ENDBRANCH   7   8
ENDBRANCH   1   7
BRANCH   5  17
HETATM   17  N1  UNL     1      25.406  -0.897  55.075  1.00  0.00    -0.372 N 
HETATM   18  H12 UNL     1      25.506  -1.818  55.552  1.00  0.00     0.161 HD
BRANCH  17  19
HETATM   19  C13 UNL     1      26.481   0.068  55.069  1.00  0.00     0.270 C 
BRANCH  19  20
HETATM   20  N2  UNL     1      27.682  -0.586  54.613  1.00  0.00    -0.282 NA
HETATM   21  C14 UNL     1      28.418  -0.042  53.696  1.00  0.00     0.113 C 
BRANCH  21  22
HETATM   22  C15 UNL     1      28.011   1.243  53.132  1.00  0.00     0.035 C 
HETATM   23  C16 UNL     1      28.606   2.350  53.558  1.00  0.00     0.082 C 
BRANCH  23  24
HETATM   24  N3  UNL     1      29.626   2.229  54.559  1.00  0.00    -0.408 N 
HETATM   25  H18 UNL     1      30.091   3.038  55.035  1.00  0.00     0.155 HD
HETATM   26  H19 UNL     1      29.882   1.231  54.787  1.00  0.00     0.155 HD
ENDBRANCH  23  24
ENDBRANCH  21  22
ENDBRANCH  19  20
ENDBRANCH  17  19
ENDBRANCH   5  17
TORSDOF 9
ENDMDL
MODEL 4
REMARK VINA RESULT:      -7.3      2.768      6.923
REMARK  9 active torsions:
REMARK  status: ('A' for Active; 'I' for Inactive)
REMARK    1  A    between atoms: O1_2  and  C2_3 
REMARK    2  A    between atoms: C6_7  and  C7_8 
REMARK    3  A    between atoms: C7_8  and  O2_9 
REMARK    4  A    between atoms: O2_9  and  C8_10 
REMARK    5  A    between atoms: C12_14  and  N1_15 
REMARK    6  A    between atoms: N1_15  and  C13_16 
REMARK    7  A    between atoms: C13_16  and  N2_17 
REMARK    8  A    between atoms: C14_18  and  C15_19 
REMARK    9  A    between atoms: C16_20  and  N3_21 
ROOT
HETATM    1  C8  UNL     1      24.020   2.336  50.854  1.00  0.00     0.071 A 
HETATM    2  C9  UNL     1      24.227   3.069  49.708  1.00  0.00     0.037 A 
HETATM    3  C10 UNL     1      25.473   3.589  49.409  1.00  0.00     0.005 A 
HETATM    4  C11 UNL     1      26.492   3.335  50.317  1.00  0.00     0.029 A 
HETATM    5  C12 UNL     1      26.352   2.610  51.482  1.00  0.00     0.031 A 
HETATM    6  C17 UNL     1      25.088   2.116  51.727  1.00  0.00     0.065 A 
ENDROOT
BRANCH   1   7
HETATM    7  O2  UNL     1      22.839   1.765  51.270  1.00  0.00    -0.347 OA
BRANCH   7   8
HETATM    8  C7  UNL     1      22.105   2.136  52.408  1.00  0.00     0.214 C 
BRANCH   8   9
HETATM    9  C6  UNL     1      21.545   0.882  52.997  1.00  0.00    -0.031 A 
HETATM   10  C5  UNL     1      22.428   0.063  53.711  1.00  0.00     0.009 A 
HETATM   11  C4  UNL     1      22.040  -1.128  54.307  1.00  0.00     0.003 A 
HETATM   12  C3  UNL     1      20.712  -1.469  54.156  1.00  0.00     0.037 A 
HETATM   13  C2  UNL     1      19.821  -0.684  53.460  1.00  0.00     0.068 A 
HETATM   14  C18 UNL     1      20.225   0.496  52.874  1.00  0.00     0.046 A 
BRANCH  13  15
HETATM   15  O1  UNL     1      18.493  -1.069  53.334  1.00  0.00    -0.356 OA
HETATM   16  C1  UNL     1      18.050  -2.362  53.686  1.00  0.00     0.210 C 
ENDBRANCH  13  15
ENDBRANCH   8   9
ENDBRANCH   7   8
ENDBRANCH   1   7
BRANCH   5  17
HETATM   17  N1  UNL     1      27.425   2.381  52.375  1.00  0.00    -0.372 N 
HETATM   18  H12 UNL     1      28.352   2.806  52.157  1.00  0.00     0.161 HD
BRANCH  17  19
HETATM   19  C13 UNL     1      27.228   1.574  53.556  1.00  0.00     0.270 C 
BRANCH  19  20
HETATM   20  N2  UNL     1      28.423   0.802  53.790  1.00  0.00    -0.282 NA
HETATM   21  C14 UNL     1      28.469  -0.451  53.465  1.00  0.00     0.113 C 
BRANCH  21  22
HETATM   22  C15 UNL     1      27.291  -1.070  52.862  1.00  0.00     0.035 C 
HETATM   23  C16 UNL     1      27.282  -2.383  52.666  1.00  0.00     0.082 C 
BRANCH  23  24
HETATM   24  N3  UNL     1      28.438  -3.134  53.060  1.00  0.00    -0.408 N 
HETATM   25  H18 UNL     1      29.242  -3.363  52.429  1.00  0.00     0.155 HD
HETATM   26  H19 UNL     1      28.418  -3.450  54.066  1.00  0.00     0.155 HD
ENDBRANCH  23  24
ENDBRANCH  21  22
ENDBRANCH  19  20
ENDBRANCH  17  19
ENDBRANCH   5  17
TORSDOF 9
ENDMDL
MODEL 5
REMARK VINA RESULT:      -7.2      1.443      2.554
REMARK  9 active torsions:
REMARK  status: ('A' for Active; 'I' for Inactive)
REMARK    1  A    between atoms: O1_2  and  C2_3 
REMARK    2  A    between atoms: C6_7  and  C7_8 
REMARK    3  A    between atoms: C7_8  and  O2_9 
REMARK    4  A    between atoms: O2_9  and  C8_10 
REMARK    5  A    between atoms: C12_14  and  N1_15 
REMARK    6  A    between atoms: N1_15  and  C13_16 
REMARK    7  A    between atoms: C13_16  and  N2_17 
REMARK    8  A    between atoms: C14_18  and  C15_19 
REMARK    9  A    between atoms: C16_20  and  N3_21 
ROOT
HETATM    1  C8  UNL     1      25.083   3.038  50.496  1.00  0.00     0.071 A 
HETATM    2  C9  UNL     1      23.843   2.442  50.550  1.00  0.00     0.037 A 
HETATM    3  C10 UNL     1      23.429   1.757  51.678  1.00  0.00     0.005 A 
HETATM    4  C11 UNL     1      24.320   1.706  52.740  1.00  0.00     0.029 A 
HETATM    5  C12 UNL     1      25.574   2.279  52.752  1.00  0.00     0.031 A 
HETATM    6  C17 UNL     1      25.932   2.948  51.601  1.00  0.00     0.065 A 
ENDROOT
BRANCH   1   7
HETATM    7  O2  UNL     1      25.617   3.744  49.443  1.00  0.00    -0.347 OA
BRANCH   7   8
HETATM    8  C7  UNL     1      25.390   5.104  49.168  1.00  0.00     0.214 C 
BRANCH   8   9
HETATM    9  C6  UNL     1      26.672   5.664  48.643  1.00  0.00    -0.031 A 
HETATM   10  C5  UNL     1      26.618   6.932  48.052  1.00  0.00     0.009 A 
HETATM   11  C4  UNL     1      27.733   7.569  47.525  1.00  0.00     0.003 A 
HETATM   12  C3  UNL     1      28.920   6.872  47.617  1.00  0.00     0.037 A 
HETATM   13  C2  UNL     1      29.003   5.624  48.193  1.00  0.00     0.068 A 
HETATM   14  C18 UNL     1      27.885   5.008  48.711  1.00  0.00     0.046 A 
BRANCH  13  15
HETATM   15  O1  UNL     1      30.221   4.960  48.263  1.00  0.00    -0.356 OA
HETATM   16  C1  UNL     1      31.271   5.223  47.357  1.00  0.00     0.210 C 
ENDBRANCH  13  15
ENDBRANCH   8   9
ENDBRANCH   7   8
ENDBRANCH   1   7
BRANCH   5  17
HETATM   17  N1  UNL     1      26.444   2.196  53.865  1.00  0.00    -0.372 N 
HETATM   18  H12 UNL     1      26.863   3.076  54.235  1.00  0.00     0.161 HD
BRANCH  17  19
HETATM   19  C13 UNL     1      26.737   0.914  54.463  1.00  0.00     0.270 C 
BRANCH  19  20
HETATM   20  N2  UNL     1      28.090   0.549  54.126  1.00  0.00    -0.282 NA
HETATM   21  C14 UNL     1      28.322  -0.435  53.316  1.00  0.00     0.113 C 
BRANCH  21  22
HETATM   22  C15 UNL     1      27.192  -1.169  52.752  1.00  0.00     0.035 C 
HETATM   23  C16 UNL     1      27.273  -2.489  52.639  1.00  0.00     0.082 C 
BRANCH  23  24
HETATM   24  N3  UNL     1      28.477  -3.134  53.080  1.00  0.00    -0.408 N 
HETATM   25  H18 UNL     1      29.368  -3.168  52.531  1.00  0.00     0.155 HD
HETATM   26  H19 UNL     1      28.394  -3.586  54.029  1.00  0.00     0.155 HD
ENDBRANCH  23  24
ENDBRANCH  21  22
ENDBRANCH  19  20
ENDBRANCH  17  19
ENDBRANCH   5  17
TORSDOF 9
ENDMDL
MODEL 6
REMARK VINA RESULT:      -7.1      3.209      7.129
REMARK  9 active torsions:
REMARK  status: ('A' for Active; 'I' for Inactive)
REMARK    1  A    between atoms: O1_2  and  C2_3 
REMARK    2  A    between atoms: C6_7  and  C7_8 
REMARK    3  A    between atoms: C7_8  and  O2_9 
REMARK    4  A    between atoms: O2_9  and  C8_10 
REMARK    5  A    between atoms: C12_14  and  N1_15 
REMARK    6  A    between atoms: N1_15  and  C13_16 
REMARK    7  A    between atoms: C13_16  and  N2_17 
REMARK    8  A    between atoms: C14_18  and  C15_19 
REMARK    9  A    between atoms: C16_20  and  N3_21 
ROOT
HETATM    1  C8  UNL     1      26.629   0.057  53.680  1.00  0.00     0.071 A 
HETATM    2  C9  UNL     1      27.803   0.008  54.397  1.00  0.00     0.037 A 
HETATM    3  C10 UNL     1      28.776   0.978  54.240  1.00  0.00     0.005 A 
HETATM    4  C11 UNL     1      28.507   1.992  53.331  1.00  0.00     0.029 A 
HETATM    5  C12 UNL     1      27.355   2.100  52.582  1.00  0.00     0.031 A 
HETATM    6  C17 UNL     1      26.421   1.105  52.781  1.00  0.00     0.065 A 
ENDROOT
BRANCH   1   7
HETATM    7  O2  UNL     1      25.586  -0.838  53.740  1.00  0.00    -0.347 OA
BRANCH   7   8
HETATM    8  C7  UNL     1      24.666  -0.957  54.795  1.00  0.00     0.214 C 
BRANCH   8   9
HETATM    9  C6  UNL     1      23.303  -0.774  54.212  1.00  0.00    -0.031 A 
HETATM   10  C5  UNL     1      22.245  -1.439  54.844  1.00  0.00     0.009 A 
HETATM   11  C4  UNL     1      20.931  -1.356  54.407  1.00  0.00     0.003 A 
HETATM   12  C3  UNL     1      20.718  -0.567  53.295  1.00  0.00     0.037 A 
HETATM   13  C2  UNL     1      21.739   0.098  52.653  1.00  0.00     0.068 A 
HETATM   14  C18 UNL     1      23.037   0.004  53.103  1.00  0.00     0.046 A 
BRANCH  13  15
HETATM   15  O1  UNL     1      21.476   0.881  51.536  1.00  0.00    -0.356 OA
HETATM   16  C1  UNL     1      22.507   1.389  50.718  1.00  0.00     0.210 C 
ENDBRANCH  13  15
ENDBRANCH   8   9
ENDBRANCH   7   8
ENDBRANCH   1   7
BRANCH   5  17
HETATM   17  N1  UNL     1      27.131   3.156  51.667  1.00  0.00    -0.372 N 
HETATM   18  H12 UNL     1      27.735   4.004  51.731  1.00  0.00     0.161 HD
BRANCH  17  19
HETATM   19  C13 UNL     1      26.088   3.049  50.675  1.00  0.00     0.270 C 
BRANCH  19  20
HETATM   20  N2  UNL     1      26.115   4.232  49.852  1.00  0.00    -0.282 NA
HETATM   21  C14 UNL     1      25.106   5.046  49.838  1.00  0.00     0.113 C 
BRANCH  21  22
HETATM   22  C15 UNL     1      23.943   4.744  50.669  1.00  0.00     0.035 C 
HETATM   23  C16 UNL     1      23.648   5.552  51.681  1.00  0.00     0.082 C 
BRANCH  23  24
HETATM   24  N3  UNL     1      24.493   6.688  51.910  1.00  0.00    -0.408 N 
HETATM   25  H18 UNL     1      25.317   6.945  51.317  1.00  0.00     0.155 HD
HETATM   26  H19 UNL     1      24.212   7.265  52.748  1.00  0.00     0.155 HD
ENDBRANCH  23  24
ENDBRANCH  21  22
ENDBRANCH  19  20
ENDBRANCH  17  19
ENDBRANCH   5  17
TORSDOF 9
ENDMDL
MODEL 7
REMARK VINA RESULT:      -7.1      2.625      3.356
REMARK  9 active torsions:
REMARK  status: ('A' for Active; 'I' for Inactive)
REMARK    1  A    between atoms: O1_2  and  C2_3 
REMARK    2  A    between atoms: C6_7  and  C7_8 
REMARK    3  A    between atoms: C7_8  and  O2_9 
REMARK    4  A    between atoms: O2_9  and  C8_10 
REMARK    5  A    between atoms: C12_14  and  N1_15 
REMARK    6  A    between atoms: N1_15  and  C13_16 
REMARK    7  A    between atoms: C13_16  and  N2_17 
REMARK    8  A    between atoms: C14_18  and  C15_19 
REMARK    9  A    between atoms: C16_20  and  N3_21 
ROOT
HETATM    1  C8  UNL     1      22.721   0.184  52.876  1.00  0.00     0.071 A 
HETATM    2  C9  UNL     1      21.609  -0.321  53.511  1.00  0.00     0.037 A 
HETATM    3  C10 UNL     1      21.724  -1.042  54.685  1.00  0.00     0.005 A 
HETATM    4  C11 UNL     1      23.006  -1.225  55.184  1.00  0.00     0.029 A 
HETATM    5  C12 UNL     1      24.160  -0.747  54.600  1.00  0.00     0.031 A 
HETATM    6  C17 UNL     1      23.984  -0.036  53.432  1.00  0.00     0.065 A 
ENDROOT
BRANCH   1   7
HETATM    7  O2  UNL     1      22.749   0.914  51.710  1.00  0.00    -0.347 OA
BRANCH   7   8
HETATM    8  C7  UNL     1      21.838   1.922  51.351  1.00  0.00     0.214 C 
BRANCH   8   9
HETATM    9  C6  UNL     1      22.640   3.082  50.858  1.00  0.00    -0.031 A 
HETATM   10  C5  UNL     1      23.691   2.802  49.976  1.00  0.00     0.009 A 
HETATM   11  C4  UNL     1      24.514   3.784  49.444  1.00  0.00     0.003 A 
HETATM   12  C3  UNL     1      24.236   5.077  49.838  1.00  0.00     0.037 A 
HETATM   13  C2  UNL     1      23.210   5.382  50.704  1.00  0.00     0.068 A 
HETATM   14  C18 UNL     1      22.403   4.393  51.222  1.00  0.00     0.046 A 
BRANCH  13  15
HETATM   15  O1  UNL     1      22.967   6.699  51.072  1.00  0.00    -0.356 OA
HETATM   16  C1  UNL     1      23.886   7.735  50.799  1.00  0.00     0.210 C 
ENDBRANCH  13  15
ENDBRANCH   8   9
ENDBRANCH   7   8
ENDBRANCH   1   7
BRANCH   5  17
HETATM   17  N1  UNL     1      25.445  -0.963  55.151  1.00  0.00    -0.372 N 
HETATM   18  H12 UNL     1      25.623  -1.857  55.658  1.00  0.00     0.161 HD
BRANCH  17  19
HETATM   19  C13 UNL     1      26.475   0.040  55.009  1.00  0.00     0.270 C 
BRANCH  19  20
HETATM   20  N2  UNL     1      27.650  -0.586  54.455  1.00  0.00    -0.282 NA
HETATM   21  C14 UNL     1      28.350   0.019  53.548  1.00  0.00     0.113 C 
BRANCH  21  22
HETATM   22  C15 UNL     1      27.929   1.343  53.095  1.00  0.00     0.035 C 
HETATM   23  C16 UNL     1      28.545   2.414  53.578  1.00  0.00     0.082 C 
BRANCH  23  24
HETATM   24  N3  UNL     1      29.602   2.217  54.528  1.00  0.00    -0.408 N 
HETATM   25  H18 UNL     1      30.324   2.936  54.772  1.00  0.00     0.155 HD
HETATM   26  H19 UNL     1      29.597   1.263  54.978  1.00  0.00     0.155 HD
ENDBRANCH  23  24
ENDBRANCH  21  22
ENDBRANCH  19  20
ENDBRANCH  17  19
ENDBRANCH   5  17
TORSDOF 9
ENDMDL
MODEL 8
REMARK VINA RESULT:      -7.0      2.371      4.570
REMARK  9 active torsions:
REMARK  status: ('A' for Active; 'I' for Inactive)
REMARK    1  A    between atoms: O1_2  and  C2_3 
REMARK    2  A    between atoms: C6_7  and  C7_8 
REMARK    3  A    between atoms: C7_8  and  O2_9 
REMARK    4  A    between atoms: O2_9  and  C8_10 
REMARK    5  A    between atoms: C12_14  and  N1_15 
REMARK    6  A    between atoms: N1_15  and  C13_16 
REMARK    7  A    between atoms: C13_16  and  N2_17 
REMARK    8  A    between atoms: C14_18  and  C15_19 
REMARK    9  A    between atoms: C16_20  and  N3_21 
ROOT
HETATM    1  C8  UNL     1      25.441   1.779  51.936  1.00  0.00     0.071 A 
HETATM    2  C9  UNL     1      26.663   1.179  51.735  1.00  0.00     0.037 A 
HETATM    3  C10 UNL     1      26.959  -0.046  52.305  1.00  0.00     0.005 A 
HETATM    4  C11 UNL     1      25.968  -0.630  53.081  1.00  0.00     0.029 A 
HETATM    5  C12 UNL     1      24.725  -0.084  53.323  1.00  0.00     0.031 A 
HETATM    6  C17 UNL     1      24.487   1.137  52.729  1.00  0.00     0.065 A 
ENDROOT
BRANCH   1   7
HETATM    7  O2  UNL     1      25.020   2.988  51.432  1.00  0.00    -0.347 OA
BRANCH   7   8
HETATM    8  C7  UNL     1      24.558   3.215  50.125  1.00  0.00     0.214 C 
BRANCH   8   9
HETATM    9  C6  UNL     1      25.454   4.244  49.516  1.00  0.00    -0.031 A 
HETATM   10  C5  UNL     1      24.883   5.486  49.209  1.00  0.00     0.009 A 
HETATM   11  C4  UNL     1      25.601   6.528  48.641  1.00  0.00     0.003 A 
HETATM   12  C3  UNL     1      26.933   6.272  48.390  1.00  0.00     0.037 A 
HETATM   13  C2  UNL     1      27.521   5.061  48.681  1.00  0.00     0.068 A 
HETATM   14  C18 UNL     1      26.792   4.038  49.245  1.00  0.00     0.046 A 
BRANCH  13  15
HETATM   15  O1  UNL     1      28.867   4.849  48.410  1.00  0.00    -0.356 OA
HETATM   16  C1  UNL     1      29.731   5.900  48.035  1.00  0.00     0.210 C 
ENDBRANCH  13  15
ENDBRANCH   8   9
ENDBRANCH   7   8
ENDBRANCH   1   7
BRANCH   5  17
HETATM   17  N1  UNL     1      23.750  -0.723  54.124  1.00  0.00    -0.372 N 
HETATM   18  H12 UNL     1      24.002  -0.980  55.103  1.00  0.00     0.161 HD
BRANCH  17  19
HETATM   19  C13 UNL     1      22.440  -1.008  53.585  1.00  0.00     0.270 C 
BRANCH  19  20
HETATM   20  N2  UNL     1      21.451  -0.654  54.573  1.00  0.00    -0.282 NA
HETATM   21  C14 UNL     1      20.624   0.319  54.355  1.00  0.00     0.113 C 
BRANCH  21  22
HETATM   22  C15 UNL     1      20.710   1.051  53.094  1.00  0.00     0.035 C 
HETATM   23  C16 UNL     1      19.852   0.763  52.122  1.00  0.00     0.082 C 
BRANCH  23  24
HETATM   24  N3  UNL     1      18.877  -0.261  52.362  1.00  0.00    -0.408 N 
HETATM   25  H18 UNL     1      19.083  -1.288  52.366  1.00  0.00     0.155 HD
HETATM   26  H19 UNL     1      17.905   0.110  52.538  1.00  0.00     0.155 HD
ENDBRANCH  23  24
ENDBRANCH  21  22
ENDBRANCH  19  20
ENDBRANCH  17  19
ENDBRANCH   5  17
TORSDOF 9
ENDMDL
MODEL 9
REMARK VINA RESULT:      -6.8      3.616      7.556
REMARK  9 active torsions:
REMARK  status: ('A' for Active; 'I' for Inactive)
REMARK    1  A    between atoms: O1_2  and  C2_3 
REMARK    2  A    between atoms: C6_7  and  C7_8 
REMARK    3  A    between atoms: C7_8  and  O2_9 
REMARK    4  A    between atoms: O2_9  and  C8_10 
REMARK    5  A    between atoms: C12_14  and  N1_15 
REMARK    6  A    between atoms: N1_15  and  C13_16 
REMARK    7  A    between atoms: C13_16  and  N2_17 
REMARK    8  A    between atoms: C14_18  and  C15_19 
REMARK    9  A    between atoms: C16_20  and  N3_21 
ROOT
HETATM    1  C8  UNL     1      25.011   3.999  49.497  1.00  0.00     0.071 A 
HETATM    2  C9  UNL     1      24.119   4.940  49.035  1.00  0.00     0.037 A 
HETATM    3  C10 UNL     1      24.559   6.137  48.500  1.00  0.00     0.005 A 
HETATM    4  C11 UNL     1      25.932   6.334  48.452  1.00  0.00     0.029 A 
HETATM    5  C12 UNL     1      26.877   5.434  48.897  1.00  0.00     0.031 A 
HETATM    6  C17 UNL     1      26.380   4.260  49.420  1.00  0.00     0.065 A 
ENDROOT
BRANCH   1   7
HETATM    7  O2  UNL     1      24.710   2.775  50.050  1.00  0.00    -0.347 OA
BRANCH   7   8
HETATM    8  C7  UNL     1      23.985   2.567  51.236  1.00  0.00     0.214 C 
BRANCH   8   9
HETATM    9  C6  UNL     1      24.658   1.454  51.971  1.00  0.00    -0.031 A 
HETATM   10  C5  UNL     1      23.841   0.595  52.715  1.00  0.00     0.009 A 
HETATM   11  C4  UNL     1      24.335  -0.477  53.444  1.00  0.00     0.003 A 
HETATM   12  C3  UNL     1      25.703  -0.654  53.396  1.00  0.00     0.037 A 
HETATM   13  C2  UNL     1      26.531   0.174  52.673  1.00  0.00     0.068 A 
HETATM   14  C18 UNL     1      26.021   1.233  51.955  1.00  0.00     0.046 A 
BRANCH  13  15
HETATM   15  O1  UNL     1      27.903  -0.044  52.654  1.00  0.00    -0.356 OA
HETATM   16  C1  UNL     1      28.515  -1.040  53.445  1.00  0.00     0.210 C 
ENDBRANCH  13  15
ENDBRANCH   8   9
ENDBRANCH   7   8
ENDBRANCH   1   7
BRANCH   5  17
HETATM   17  N1  UNL     1      28.268   5.686  48.825  1.00  0.00    -0.372 N 
HETATM   18  H12 UNL     1      28.907   5.114  49.417  1.00  0.00     0.161 HD
BRANCH  17  19
HETATM   19  C13 UNL     1      28.775   6.715  47.948  1.00  0.00     0.270 C 
BRANCH  19  20
HETATM   20  N2  UNL     1      29.750   7.494  48.670  1.00  0.00    -0.282 NA
HETATM   21  C14 UNL     1      29.504   8.727  48.983  1.00  0.00     0.113 C 
BRANCH  21  22
HETATM   22  C15 UNL     1      28.225   9.315  48.591  1.00  0.00     0.035 C 
HETATM   23  C16 UNL     1      27.320   9.570  49.527  1.00  0.00     0.082 C 
BRANCH  23  24
HETATM   24  N3  UNL     1      27.644   9.252  50.888  1.00  0.00    -0.408 N 
HETATM   25  H18 UNL     1      28.078   8.352  51.201  1.00  0.00     0.155 HD
HETATM   26  H19 UNL     1      27.404  10.018  51.572  1.00  0.00     0.155 HD
ENDBRANCH  23  24
ENDBRANCH  21  22
ENDBRANCH  19  20
ENDBRANCH  17  19
ENDBRANCH   5  17
TORSDOF 9
ENDMDL
