MODEL 1
REMARK VINA RESULT:      -8.1      0.000      0.000
REMARK  6 active torsions:
REMARK  status: ('A' for Active; 'I' for Inactive)
REMARK    1  A    between atoms: C6_7  and  C7_8 
REMARK    2  A    between atoms: C7_8  and  C8_9 
REMARK    3  A    between atoms: C8_9  and  N2_10 
REMARK    4  A    between atoms: N2_10  and  C9_11 
REMARK    5  A    between atoms: N2_10  and  C10_13 
REMARK    6  A    between atoms: C9_11  and  O1_12 
ROOT
HETATM    1  C10 UNL     1      23.596   2.816  51.773  1.00  0.00     0.055 C 
HETATM    2  C11 UNL     1      22.569   2.086  51.567  1.00  0.00     0.050 C 
HETATM    3  C12 UNL     1      21.381   1.407  51.363  1.00  0.00     0.019 A 
HETATM    4  N3  UNL     1      20.106   1.243  51.339  1.00  0.00    -0.231 NA
HETATM    5  C13 UNL     1      19.159   2.288  51.720  1.00  0.00     0.184 C 
HETATM    6  N4  UNL     1      19.325   3.649  51.823  1.00  0.00    -0.249 NA
HETATM    7  C14 UNL     1      20.730   3.895  51.460  1.00  0.00     0.059 C 
HETATM    8  C15 UNL     1      21.665   4.267  52.319  1.00  0.00     0.054 C 
HETATM    9  C16 UNL     1      23.011   4.203  51.755  1.00  0.00     0.170 C 
HETATM   10  F1  UNL     1      23.798   5.165  52.290  1.00  0.00    -0.231 F 
HETATM   11  C17 UNL     1      22.963   4.524  50.230  1.00  0.00     0.111 C 
HETATM   12  C18 UNL     1      22.256   3.351  49.576  1.00  0.00     0.014 C 
HETATM   13  C19 UNL     1      20.956   3.429  50.039  1.00  0.00     0.056 C 
HETATM   14  N5  UNL     1      22.332   2.090  48.710  1.00  0.00    -0.371 N 
HETATM   15  C20 UNL     1      21.216   1.145  48.893  1.00  0.00     0.087 C 
HETATM   16  C21 UNL     1      20.730   0.812  50.154  1.00  0.00     0.152 A 
HETATM   17  H26 UNL     1      23.096   2.735  48.582  1.00  0.00     0.164 HD
ENDROOT
BRANCH   1  18
HETATM   18  N2  UNL     1      24.993   2.638  51.826  1.00  0.00    -0.360 N 
BRANCH  18  19
HETATM   19  C8  UNL     1      25.593   2.475  53.127  1.00  0.00     0.127 C 
BRANCH  19  20
HETATM   20  C7  UNL     1      25.608   1.075  53.640  1.00  0.00     0.055 C 
BRANCH  20  21
HETATM   21  C6  UNL     1      26.985   0.553  53.962  1.00  0.00     0.225 C 
HETATM   22  C2  UNL     1      27.421  -0.350  52.799  1.00  0.00     0.015 C 
HETATM   23  C1  UNL     1      26.463  -1.511  52.775  1.00  0.00     0.012 C 
HETATM   24  C3  UNL     1      28.805  -0.873  53.046  1.00  0.00     0.008 C 
HETATM   25  C4  UNL     1      29.294  -0.463  54.408  1.00  0.00     0.030 C 
HETATM   26  C5  UNL     1      29.178   1.018  54.612  1.00  0.00     0.270 C 
HETATM   27  N1  UNL     1      27.971   1.582  54.042  1.00  0.00     0.088 N 
HETATM   28  H11 UNL     1      28.195   2.024  53.118  1.00  0.00     0.316 HD
ENDBRANCH  20  21
ENDBRANCH  19  20
ENDBRANCH  18  19
BRANCH  18  29
HETATM   29  C9  UNL     1      26.099   2.566  50.889  1.00  0.00     0.289 C 
BRANCH  29  30
HETATM   30  O1  UNL     1      27.203   3.132  51.476  1.00  0.00    -0.382 OA
HETATM   31  H19 UNL     1      28.017   3.092  50.922  1.00  0.00     0.211 HD
ENDBRANCH  29  30
ENDBRANCH  18  29
ENDBRANCH   1  18
TORSDOF 6
ENDMDL
MODEL 2
REMARK VINA RESULT:      -8.0      1.259      1.698
REMARK  6 active torsions:
REMARK  status: ('A' for Active; 'I' for Inactive)
REMARK    1  A    between atoms: C6_7  and  C7_8 
REMARK    2  A    between atoms: C7_8  and  C8_9 
REMARK    3  A    between atoms: C8_9  and  N2_10 
REMARK    4  A    between atoms: N2_10  and  C9_11 
REMARK    5  A    between atoms: N2_10  and  C10_13 
REMARK    6  A    between atoms: C9_11  and  O1_12 
ROOT
HETATM    1  C10 UNL     1      23.583   3.054  51.198  1.00  0.00     0.055 C 
HETATM    2  C11 UNL     1      22.470   2.928  51.809  1.00  0.00     0.050 C 
HETATM    3  C12 UNL     1      21.204   2.854  52.364  1.00  0.00     0.019 A 
HETATM    4  N3  UNL     1      19.944   3.087  52.462  1.00  0.00    -0.231 NA
HETATM    5  C13 UNL     1      19.207   3.905  51.501  1.00  0.00     0.184 C 
HETATM    6  N4  UNL     1      19.524   4.275  50.215  1.00  0.00    -0.249 NA
HETATM    7  C14 UNL     1      20.837   3.664  49.950  1.00  0.00     0.059 C 
HETATM    8  C15 UNL     1      21.965   4.346  49.841  1.00  0.00     0.054 C 
HETATM    9  C16 UNL     1      23.147   3.487  49.824  1.00  0.00     0.170 C 
HETATM   10  F1  UNL     1      24.120   4.033  49.058  1.00  0.00    -0.231 F 
HETATM   11  C17 UNL     1      22.807   2.130  49.138  1.00  0.00     0.111 C 
HETATM   12  C18 UNL     1      21.865   1.406  50.083  1.00  0.00     0.014 C 
HETATM   13  C19 UNL     1      20.707   2.161  50.063  1.00  0.00     0.056 C 
HETATM   14  N5  UNL     1      21.631   0.281  51.095  1.00  0.00    -0.371 N 
HETATM   15  C20 UNL     1      20.493   0.495  52.007  1.00  0.00     0.087 C 
HETATM   16  C21 UNL     1      20.256   1.724  52.616  1.00  0.00     0.152 A 
HETATM   17  H26 UNL     1      22.409   0.132  50.474  1.00  0.00     0.164 HD
ENDROOT
BRANCH   1  18
HETATM   18  N2  UNL     1      24.936   2.741  51.445  1.00  0.00    -0.360 N 
BRANCH  18  19
HETATM   19  C8  UNL     1      25.333   2.551  52.818  1.00  0.00     0.127 C 
BRANCH  19  20
HETATM   20  C7  UNL     1      25.385   1.130  53.266  1.00  0.00     0.055 C 
BRANCH  20  21
HETATM   21  C6  UNL     1      26.734   0.697  53.780  1.00  0.00     0.225 C 
HETATM   22  C2  UNL     1      27.332  -0.273  52.751  1.00  0.00     0.015 C 
HETATM   23  C1  UNL     1      26.426  -1.474  52.717  1.00  0.00     0.012 C 
HETATM   24  C3  UNL     1      28.697  -0.713  53.192  1.00  0.00     0.008 C 
HETATM   25  C4  UNL     1      29.013  -0.176  54.561  1.00  0.00     0.030 C 
HETATM   26  C5  UNL     1      28.821   1.309  54.628  1.00  0.00     0.270 C 
HETATM   27  N1  UNL     1      27.667   1.772  53.884  1.00  0.00     0.088 N 
HETATM   28  H11 UNL     1      27.979   2.151  52.957  1.00  0.00     0.316 HD
ENDBRANCH  20  21
ENDBRANCH  19  20
ENDBRANCH  18  19
BRANCH  18  29
HETATM   29  C9  UNL     1      26.146   2.538  50.671  1.00  0.00     0.289 C 
BRANCH  29  30
HETATM   30  O1  UNL     1      27.153   3.278  51.238  1.00  0.00    -0.382 OA
HETATM   31  H19 UNL     1      26.843   3.930  51.909  1.00  0.00     0.211 HD
ENDBRANCH  29  30
ENDBRANCH  18  29
ENDBRANCH   1  18
TORSDOF 6
ENDMDL
MODEL 3
REMARK VINA RESULT:      -7.8      2.624      3.697
REMARK  6 active torsions:
REMARK  status: ('A' for Active; 'I' for Inactive)
REMARK    1  A    between atoms: C6_7  and  C7_8 
REMARK    2  A    between atoms: C7_8  and  C8_9 
REMARK    3  A    between atoms: C8_9  and  N2_10 
REMARK    4  A    between atoms: N2_10  and  C9_11 
REMARK    5  A    between atoms: N2_10  and  C10_13 
REMARK    6  A    between atoms: C9_11  and  O1_12 
ROOT
HETATM    1  C10 UNL     1      22.073   0.266  52.237  1.00  0.00     0.055 C 
HETATM    2  C11 UNL     1      22.426   0.968  51.232  1.00  0.00     0.050 C 
HETATM    3  C12 UNL     1      22.677   1.741  50.111  1.00  0.00     0.019 A 
HETATM    4  N3  UNL     1      22.398   2.361  49.021  1.00  0.00    -0.231 NA
HETATM    5  C13 UNL     1      21.055   2.398  48.444  1.00  0.00     0.184 C 
HETATM    6  N4  UNL     1      19.831   2.145  49.015  1.00  0.00    -0.249 NA
HETATM    7  C14 UNL     1      20.123   1.801  50.417  1.00  0.00     0.059 C 
HETATM    8  C15 UNL     1      19.998   0.587  50.925  1.00  0.00     0.054 C 
HETATM    9  C16 UNL     1      20.581   0.467  52.259  1.00  0.00     0.170 C 
HETATM   10  F1  UNL     1      19.892  -0.430  53.002  1.00  0.00    -0.231 F 
HETATM   11  C17 UNL     1      20.438   1.818  53.023  1.00  0.00     0.111 C 
HETATM   12  C18 UNL     1      21.365   2.796  52.325  1.00  0.00     0.014 C 
HETATM   13  C19 UNL     1      20.796   2.983  51.079  1.00  0.00     0.056 C 
HETATM   14  N5  UNL     1      22.666   3.605  52.333  1.00  0.00    -0.371 N 
HETATM   15  C20 UNL     1      23.145   4.017  51.001  1.00  0.00     0.087 C 
HETATM   16  C21 UNL     1      23.147   3.147  49.915  1.00  0.00     0.152 A 
HETATM   17  H26 UNL     1      22.339   3.325  53.243  1.00  0.00     0.164 HD
ENDROOT
BRANCH   1  18
HETATM   18  N2  UNL     1      22.710  -0.416  53.294  1.00  0.00    -0.360 N 
BRANCH  18  19
HETATM   19  C8  UNL     1      24.009   0.059  53.702  1.00  0.00     0.127 C 
BRANCH  19  20
HETATM   20  C7  UNL     1      25.162  -0.656  53.082  1.00  0.00     0.055 C 
BRANCH  20  21
HETATM   21  C6  UNL     1      26.504  -0.053  53.407  1.00  0.00     0.225 C 
HETATM   22  C2  UNL     1      26.434   1.443  53.069  1.00  0.00     0.015 C 
HETATM   23  C1  UNL     1      26.215   1.537  51.583  1.00  0.00     0.012 C 
HETATM   24  C3  UNL     1      27.737   2.107  53.406  1.00  0.00     0.008 C 
HETATM   25  C4  UNL     1      28.754   1.092  53.849  1.00  0.00     0.030 C 
HETATM   26  C5  UNL     1      28.226   0.231  54.958  1.00  0.00     0.270 C 
HETATM   27  N1  UNL     1      26.830  -0.120  54.795  1.00  0.00     0.088 N 
HETATM   28  H11 UNL     1      26.240   0.505  55.397  1.00  0.00     0.316 HD
ENDBRANCH  20  21
ENDBRANCH  19  20
ENDBRANCH  18  19
BRANCH  18  29
HETATM   29  C9  UNL     1      22.432  -1.544  54.163  1.00  0.00     0.289 C 
BRANCH  29  30
HETATM   30  O1  UNL     1      21.894  -1.070  55.332  1.00  0.00    -0.382 OA
HETATM   31  H19 UNL     1      22.430  -0.362  55.762  1.00  0.00     0.211 HD
ENDBRANCH  29  30
ENDBRANCH  18  29
ENDBRANCH   1  18
TORSDOF 6
ENDMDL
MODEL 4
REMARK VINA RESULT:      -7.8      3.339      5.225
REMARK  6 active torsions:
REMARK  status: ('A' for Active; 'I' for Inactive)
REMARK    1  A    between atoms: C6_7  and  C7_8 
REMARK    2  A    between atoms: C7_8  and  C8_9 
REMARK    3  A    between atoms: C8_9  and  N2_10 
REMARK    4  A    between atoms: N2_10  and  C9_11 
REMARK    5  A    between atoms: N2_10  and  C10_13 
REMARK    6  A    between atoms: C9_11  and  O1_12 
ROOT
HETATM    1  C10 UNL     1      24.366   4.986  50.980  1.00  0.00     0.055 C 
HETATM    2  C11 UNL     1      24.854   6.152  50.805  1.00  0.00     0.050 C 
HETATM    3  C12 UNL     1      25.458   7.363  50.513  1.00  0.00     0.019 A 
HETATM    4  N3  UNL     1      26.290   8.157  49.941  1.00  0.00    -0.231 NA
HETATM    5  C13 UNL     1      27.289   7.706  48.974  1.00  0.00     0.184 C 
HETATM    6  N4  UNL     1      27.355   6.551  48.232  1.00  0.00    -0.249 NA
HETATM    7  C14 UNL     1      26.156   5.782  48.607  1.00  0.00     0.059 C 
HETATM    8  C15 UNL     1      26.181   4.672  49.326  1.00  0.00     0.054 C 
HETATM    9  C16 UNL     1      24.852   4.250  49.761  1.00  0.00     0.170 C 
HETATM   10  F1  UNL     1      24.784   2.900  49.840  1.00  0.00    -0.231 F 
HETATM   11  C17 UNL     1      23.792   4.644  48.688  1.00  0.00     0.111 C 
HETATM   12  C18 UNL     1      23.703   6.158  48.722  1.00  0.00     0.014 C 
HETATM   13  C19 UNL     1      24.927   6.588  48.246  1.00  0.00     0.056 C 
HETATM   14  N5  UNL     1      22.922   7.419  49.107  1.00  0.00    -0.371 N 
HETATM   15  C20 UNL     1      23.740   8.637  49.240  1.00  0.00     0.087 C 
HETATM   16  C21 UNL     1      24.967   8.634  49.896  1.00  0.00     0.152 A 
HETATM   17  H26 UNL     1      22.361   6.587  49.016  1.00  0.00     0.164 HD
ENDROOT
BRANCH   1  18
HETATM   18  N2  UNL     1      23.445   4.375  51.856  1.00  0.00    -0.360 N 
BRANCH  18  19
HETATM   19  C8  UNL     1      23.976   3.709  53.018  1.00  0.00     0.127 C 
BRANCH  19  20
HETATM   20  C7  UNL     1      24.149   2.235  52.873  1.00  0.00     0.055 C 
BRANCH  20  21
HETATM   21  C6  UNL     1      25.550   1.750  53.142  1.00  0.00     0.225 C 
HETATM   22  C2  UNL     1      25.686   0.354  52.518  1.00  0.00     0.015 C 
HETATM   23  C1  UNL     1      24.722  -0.540  53.251  1.00  0.00     0.012 C 
HETATM   24  C3  UNL     1      27.077  -0.168  52.724  1.00  0.00     0.008 C 
HETATM   25  C4  UNL     1      27.876   0.772  53.585  1.00  0.00     0.030 C 
HETATM   26  C5  UNL     1      27.844   2.172  53.050  1.00  0.00     0.270 C 
HETATM   27  N1  UNL     1      26.552   2.552  52.517  1.00  0.00     0.088 N 
HETATM   28  H11 UNL     1      26.567   2.468  51.472  1.00  0.00     0.316 HD
ENDBRANCH  20  21
ENDBRANCH  19  20
ENDBRANCH  18  19
BRANCH  18  29
HETATM   29  C9  UNL     1      22.007   4.198  51.945  1.00  0.00     0.289 C 
BRANCH  29  30
HETATM   30  O1  UNL     1      21.401   5.222  51.262  1.00  0.00    -0.382 OA
HETATM   31  H19 UNL     1      21.918   5.552  50.490  1.00  0.00     0.211 HD
ENDBRANCH  29  30
ENDBRANCH  18  29
ENDBRANCH   1  18
TORSDOF 6
ENDMDL
MODEL 5
REMARK VINA RESULT:      -7.6      2.913      4.720
REMARK  6 active torsions:
REMARK  status: ('A' for Active; 'I' for Inactive)
REMARK    1  A    between atoms: C6_7  and  C7_8 
REMARK    2  A    between atoms: C7_8  and  C8_9 
REMARK    3  A    between atoms: C8_9  and  N2_10 
REMARK    4  A    between atoms: N2_10  and  C9_11 
REMARK    5  A    between atoms: N2_10  and  C10_13 
REMARK    6  A    between atoms: C9_11  and  O1_12 
ROOT
HETATM    1  C10 UNL     1      24.961   4.090  50.963  1.00  0.00     0.055 C 
HETATM    2  C11 UNL     1      24.344   5.204  51.045  1.00  0.00     0.050 C 
HETATM    3  C12 UNL     1      23.715   6.436  51.004  1.00  0.00     0.019 A 
HETATM    4  N3  UNL     1      23.404   7.585  50.521  1.00  0.00    -0.231 NA
HETATM    5  C13 UNL     1      23.920   8.082  49.247  1.00  0.00     0.184 C 
HETATM    6  N4  UNL     1      24.487   7.410  48.190  1.00  0.00    -0.249 NA
HETATM    7  C14 UNL     1      24.490   5.993  48.591  1.00  0.00     0.059 C 
HETATM    8  C15 UNL     1      25.580   5.310  48.900  1.00  0.00     0.054 C 
HETATM    9  C16 UNL     1      25.284   4.010  49.496  1.00  0.00     0.170 C 
HETATM   10  F1  UNL     1      26.238   3.107  49.166  1.00  0.00    -0.231 F 
HETATM   11  C17 UNL     1      23.964   3.438  48.894  1.00  0.00     0.111 C 
HETATM   12  C18 UNL     1      22.847   4.322  49.418  1.00  0.00     0.014 C 
HETATM   13  C19 UNL     1      23.061   5.546  48.813  1.00  0.00     0.056 C 
HETATM   14  N5  UNL     1      21.650   4.506  50.356  1.00  0.00    -0.371 N 
HETATM   15  C20 UNL     1      21.308   5.908  50.655  1.00  0.00     0.087 C 
HETATM   16  C21 UNL     1      22.280   6.857  50.953  1.00  0.00     0.152 A 
HETATM   17  H26 UNL     1      21.881   3.547  50.152  1.00  0.00     0.164 HD
ENDROOT
BRANCH   1  18
HETATM   18  N2  UNL     1      25.211   2.986  51.804  1.00  0.00    -0.360 N 
BRANCH  18  19
HETATM   19  C8  UNL     1      24.101   2.465  52.563  1.00  0.00     0.127 C 
BRANCH  19  20
HETATM   20  C7  UNL     1      23.682   1.083  52.191  1.00  0.00     0.055 C 
BRANCH  20  21
HETATM   21  C6  UNL     1      23.303   0.219  53.367  1.00  0.00     0.225 C 
HETATM   22  C2  UNL     1      22.202  -0.743  52.899  1.00  0.00     0.015 C 
HETATM   23  C1  UNL     1      21.017   0.107  52.530  1.00  0.00     0.012 C 
HETATM   24  C3  UNL     1      21.807  -1.657  54.021  1.00  0.00     0.008 C 
HETATM   25  C4  UNL     1      22.511  -1.273  55.294  1.00  0.00     0.030 C 
HETATM   26  C5  UNL     1      23.995  -1.186  55.097  1.00  0.00     0.270 C 
HETATM   27  N1  UNL     1      24.372  -0.610  53.823  1.00  0.00     0.088 N 
HETATM   28  H11 UNL     1      24.625  -1.376  53.154  1.00  0.00     0.316 HD
ENDBRANCH  20  21
ENDBRANCH  19  20
ENDBRANCH  18  19
BRANCH  18  29
HETATM   29  C9  UNL     1      26.341   2.151  52.168  1.00  0.00     0.289 C 
BRANCH  29  30
HETATM   30  O1  UNL     1      27.494   2.864  51.955  1.00  0.00    -0.382 OA
HETATM   31  H19 UNL     1      27.541   3.295  51.069  1.00  0.00     0.211 HD
ENDBRANCH  29  30
ENDBRANCH  18  29
ENDBRANCH   1  18
TORSDOF 6
ENDMDL
MODEL 6
REMARK VINA RESULT:      -7.6      2.645      4.176
REMARK  6 active torsions:
REMARK  status: ('A' for Active; 'I' for Inactive)
REMARK    1  A    between atoms: C6_7  and  C7_8 
REMARK    2  A    between atoms: C7_8  and  C8_9 
REMARK    3  A    between atoms: C8_9  and  N2_10 
REMARK    4  A    between atoms: N2_10  and  C9_11 
REMARK    5  A    between atoms: N2_10  and  C10_13 
REMARK    6  A    between atoms: C9_11  and  O1_12 
ROOT
HETATM    1  C10 UNL     1      24.339   3.852  50.901  1.00  0.00     0.055 C 
HETATM    2  C11 UNL     1      23.939   5.053  51.060  1.00  0.00     0.050 C 
HETATM    3  C12 UNL     1      23.569   6.386  51.117  1.00  0.00     0.019 A 
HETATM    4  N3  UNL     1      23.565   7.623  50.770  1.00  0.00    -0.231 NA
HETATM    5  C13 UNL     1      24.368   8.146  49.666  1.00  0.00     0.184 C 
HETATM    6  N4  UNL     1      24.962   7.498  48.610  1.00  0.00    -0.249 NA
HETATM    7  C14 UNL     1      24.632   6.075  48.794  1.00  0.00     0.059 C 
HETATM    8  C15 UNL     1      25.507   5.149  49.145  1.00  0.00     0.054 C 
HETATM    9  C16 UNL     1      24.877   3.878  49.496  1.00  0.00     0.170 C 
HETATM   10  F1  UNL     1      25.684   2.841  49.171  1.00  0.00    -0.231 F 
HETATM   11  C17 UNL     1      23.590   3.670  48.641  1.00  0.00     0.111 C 
HETATM   12  C18 UNL     1      22.590   4.701  49.132  1.00  0.00     0.014 C 
HETATM   13  C19 UNL     1      23.128   5.915  48.749  1.00  0.00     0.056 C 
HETATM   14  N5  UNL     1      21.311   5.020  49.913  1.00  0.00    -0.371 N 
HETATM   15  C20 UNL     1      21.196   6.418  50.365  1.00  0.00     0.087 C 
HETATM   16  C21 UNL     1      22.268   7.101  50.932  1.00  0.00     0.152 A 
HETATM   17  H26 UNL     1      21.388   4.065  49.604  1.00  0.00     0.164 HD
ENDROOT
BRANCH   1  18
HETATM   18  N2  UNL     1      24.234   2.629  51.596  1.00  0.00    -0.360 N 
BRANCH  18  19
HETATM   19  C8  UNL     1      25.194   2.375  52.641  1.00  0.00     0.127 C 
BRANCH  19  20
HETATM   20  C7  UNL     1      26.614   2.314  52.187  1.00  0.00     0.055 C 
BRANCH  20  21
HETATM   21  C6  UNL     1      27.332   1.050  52.586  1.00  0.00     0.225 C 
HETATM   22  C2  UNL     1      27.936   1.282  53.979  1.00  0.00     0.015 C 
HETATM   23  C1  UNL     1      28.952   2.382  53.828  1.00  0.00     0.012 C 
HETATM   24  C3  UNL     1      28.637   0.041  54.447  1.00  0.00     0.008 C 
HETATM   25  C4  UNL     1      28.648  -1.005  53.366  1.00  0.00     0.030 C 
HETATM   26  C5  UNL     1      27.268  -1.269  52.841  1.00  0.00     0.270 C 
HETATM   27  N1  UNL     1      26.461  -0.071  52.725  1.00  0.00     0.088 N 
HETATM   28  H11 UNL     1      25.815  -0.004  53.548  1.00  0.00     0.316 HD
ENDBRANCH  20  21
ENDBRANCH  19  20
ENDBRANCH  18  19
BRANCH  18  29
HETATM   29  C9  UNL     1      23.383   1.454  51.573  1.00  0.00     0.289 C 
BRANCH  29  30
HETATM   30  O1  UNL     1      23.538   0.782  52.759  1.00  0.00    -0.382 OA
HETATM   31  H19 UNL     1      23.379  -0.189  52.694  1.00  0.00     0.211 HD
ENDBRANCH  29  30
ENDBRANCH  18  29
ENDBRANCH   1  18
TORSDOF 6
ENDMDL
MODEL 7
REMARK VINA RESULT:      -7.2      3.336      5.782
REMARK  6 active torsions:
REMARK  status: ('A' for Active; 'I' for Inactive)
REMARK    1  A    between atoms: C6_7  and  C7_8 
REMARK    2  A    between atoms: C7_8  and  C8_9 
REMARK    3  A    between atoms: C8_9  and  N2_10 
REMARK    4  A    between atoms: N2_10  and  C9_11 
REMARK    5  A    between atoms: N2_10  and  C10_13 
REMARK    6  A    between atoms: C9_11  and  O1_12 
ROOT
HETATM    1  C10 UNL     1      23.286   4.337  50.755  1.00  0.00     0.055 C 
HETATM    2  C11 UNL     1      23.775   5.508  50.891  1.00  0.00     0.050 C 
HETATM    3  C12 UNL     1      24.391   6.747  50.936  1.00  0.00     0.019 A 
HETATM    4  N3  UNL     1      25.274   7.635  50.649  1.00  0.00    -0.231 NA
HETATM    5  C13 UNL     1      26.388   7.388  49.735  1.00  0.00     0.184 C 
HETATM    6  N4  UNL     1      26.558   6.416  48.778  1.00  0.00    -0.249 NA
HETATM    7  C14 UNL     1      25.335   5.598  48.836  1.00  0.00     0.059 C 
HETATM    8  C15 UNL     1      25.290   4.361  49.301  1.00  0.00     0.054 C 
HETATM    9  C16 UNL     1      23.925   3.870  49.475  1.00  0.00     0.170 C 
HETATM   10  F1  UNL     1      23.868   2.535  49.258  1.00  0.00    -0.231 F 
HETATM   11  C17 UNL     1      22.995   4.494  48.391  1.00  0.00     0.111 C 
HETATM   12  C18 UNL     1      22.880   5.968  48.734  1.00  0.00     0.014 C 
HETATM   13  C19 UNL     1      24.146   6.475  48.510  1.00  0.00     0.056 C 
HETATM   14  N5  UNL     1      22.040   7.127  49.281  1.00  0.00    -0.371 N 
HETATM   15  C20 UNL     1      22.819   8.280  49.765  1.00  0.00     0.087 C 
HETATM   16  C21 UNL     1      23.959   8.125  50.548  1.00  0.00     0.152 A 
HETATM   17  H26 UNL     1      21.506   6.340  48.950  1.00  0.00     0.164 HD
ENDROOT
BRANCH   1  18
HETATM   18  N2  UNL     1      22.277   3.565  51.365  1.00  0.00    -0.360 N 
BRANCH  18  19
HETATM   19  C8  UNL     1      22.693   2.533  52.283  1.00  0.00     0.127 C 
BRANCH  19  20
HETATM   20  C7  UNL     1      22.679   1.152  51.722  1.00  0.00     0.055 C 
BRANCH  20  21
HETATM   21  C6  UNL     1      22.074   0.122  52.642  1.00  0.00     0.225 C 
HETATM   22  C2  UNL     1      23.006  -0.021  53.854  1.00  0.00     0.015 C 
HETATM   23  C1  UNL     1      24.312  -0.556  53.331  1.00  0.00     0.012 C 
HETATM   24  C3  UNL     1      22.436  -1.011  54.826  1.00  0.00     0.008 C 
HETATM   25  C4  UNL     1      21.199  -1.656  54.265  1.00  0.00     0.030 C 
HETATM   26  C5  UNL     1      20.201  -0.633  53.812  1.00  0.00     0.270 C 
HETATM   27  N1  UNL     1      20.809   0.516  53.172  1.00  0.00     0.088 N 
HETATM   28  H11 UNL     1      20.867   1.307  53.857  1.00  0.00     0.316 HD
ENDBRANCH  20  21
ENDBRANCH  19  20
ENDBRANCH  18  19
BRANCH  18  29
HETATM   29  C9  UNL     1      20.828   3.487  51.344  1.00  0.00     0.289 C 
BRANCH  29  30
HETATM   30  O1  UNL     1      20.340   4.633  50.768  1.00  0.00    -0.382 OA
HETATM   31  H19 UNL     1      20.955   5.049  50.120  1.00  0.00     0.211 HD
ENDBRANCH  29  30
ENDBRANCH  18  29
ENDBRANCH   1  18
TORSDOF 6
ENDMDL
MODEL 8
REMARK VINA RESULT:      -7.2      8.801     11.813
REMARK  6 active torsions:
REMARK  status: ('A' for Active; 'I' for Inactive)
REMARK    1  A    between atoms: C6_7  and  C7_8 
REMARK    2  A    between atoms: C7_8  and  C8_9 
REMARK    3  A    between atoms: C8_9  and  N2_10 
REMARK    4  A    between atoms: N2_10  and  C9_11 
REMARK    5  A    between atoms: N2_10  and  C10_13 
REMARK    6  A    between atoms: C9_11  and  O1_12 
ROOT
HETATM    1  C10 UNL     1      29.752   8.098  48.918  1.00  0.00     0.055 C 
HETATM    2  C11 UNL     1      30.936   7.637  49.042  1.00  0.00     0.050 C 
HETATM    3  C12 UNL     1      32.177   7.027  49.107  1.00  0.00     0.019 A 
HETATM    4  N3  UNL     1      33.032   6.079  48.968  1.00  0.00    -0.231 NA
HETATM    5  C13 UNL     1      32.688   4.765  48.428  1.00  0.00     0.184 C 
HETATM    6  N4  UNL     1      31.609   4.364  47.676  1.00  0.00    -0.249 NA
HETATM    7  C14 UNL     1      30.793   5.576  47.495  1.00  0.00     0.059 C 
HETATM    8  C15 UNL     1      29.620   5.775  48.073  1.00  0.00     0.054 C 
HETATM    9  C16 UNL     1      29.141   7.147  47.925  1.00  0.00     0.170 C 
HETATM   10  F1  UNL     1      27.789   7.174  47.861  1.00  0.00    -0.231 F 
HETATM   11  C17 UNL     1      29.621   7.732  46.563  1.00  0.00     0.111 C 
HETATM   12  C18 UNL     1      31.124   7.901  46.685  1.00  0.00     0.014 C 
HETATM   13  C19 UNL     1      31.613   6.610  46.755  1.00  0.00     0.056 C 
HETATM   14  N5  UNL     1      32.332   8.831  46.841  1.00  0.00    -0.371 N 
HETATM   15  C20 UNL     1      33.543   8.186  47.379  1.00  0.00     0.087 C 
HETATM   16  C21 UNL     1      33.494   7.305  48.455  1.00  0.00     0.152 A 
HETATM   17  H26 UNL     1      31.506   9.273  46.473  1.00  0.00     0.164 HD
ENDROOT
BRANCH   1  18
HETATM   18  N2  UNL     1      29.049   9.253  49.318  1.00  0.00    -0.360 N 
BRANCH  18  19
HETATM   19  C8  UNL     1      29.758  10.508  49.282  1.00  0.00     0.127 C 
BRANCH  19  20
HETATM   20  C7  UNL     1      29.201  11.517  48.336  1.00  0.00     0.055 C 
BRANCH  20  21
HETATM   21  C6  UNL     1      29.783  11.446  46.948  1.00  0.00     0.225 C 
HETATM   22  C2  UNL     1      28.658  11.773  45.956  1.00  0.00     0.015 C 
HETATM   23  C1  UNL     1      27.630  10.683  46.100  1.00  0.00     0.012 C 
HETATM   24  C3  UNL     1      29.187  11.753  44.553  1.00  0.00     0.008 C 
HETATM   25  C4  UNL     1      30.620  11.295  44.531  1.00  0.00     0.030 C 
HETATM   26  C5  UNL     1      31.469  12.098  45.472  1.00  0.00     0.270 C 
HETATM   27  N1  UNL     1      30.799  12.421  46.714  1.00  0.00     0.088 N 
HETATM   28  H11 UNL     1      30.437  13.404  46.671  1.00  0.00     0.316 HD
ENDBRANCH  20  21
ENDBRANCH  19  20
ENDBRANCH  18  19
BRANCH  18  29
HETATM   29  C9  UNL     1      27.719   9.586  49.795  1.00  0.00     0.289 C 
BRANCH  29  30
HETATM   30  O1  UNL     1      27.726   9.540  51.166  1.00  0.00    -0.382 OA
HETATM   31  H19 UNL     1      27.709   8.626  51.537  1.00  0.00     0.211 HD
ENDBRANCH  29  30
ENDBRANCH  18  29
ENDBRANCH   1  18
TORSDOF 6
ENDMDL
MODEL 9
REMARK VINA RESULT:      -7.1      6.495      9.530
REMARK  6 active torsions:
REMARK  status: ('A' for Active; 'I' for Inactive)
REMARK    1  A    between atoms: C6_7  and  C7_8 
REMARK    2  A    between atoms: C7_8  and  C8_9 
REMARK    3  A    between atoms: C8_9  and  N2_10 
REMARK    4  A    between atoms: N2_10  and  C9_11 
REMARK    5  A    between atoms: N2_10  and  C10_13 
REMARK    6  A    between atoms: C9_11  and  O1_12 
ROOT
HETATM    1  C10 UNL     1      28.633   7.603  48.112  1.00  0.00     0.055 C 
HETATM    2  C11 UNL     1      29.558   6.727  48.183  1.00  0.00     0.050 C 
HETATM    3  C12 UNL     1      30.614   5.833  48.148  1.00  0.00     0.019 A 
HETATM    4  N3  UNL     1      31.651   5.253  47.659  1.00  0.00    -0.231 NA
HETATM    5  C13 UNL     1      32.226   5.605  46.362  1.00  0.00     0.184 C 
HETATM    6  N4  UNL     1      32.078   6.738  45.598  1.00  0.00    -0.249 NA
HETATM    7  C14 UNL     1      31.166   7.604  46.365  1.00  0.00     0.059 C 
HETATM    8  C15 UNL     1      29.918   7.865  46.012  1.00  0.00     0.054 C 
HETATM    9  C16 UNL     1      29.163   8.543  47.063  1.00  0.00     0.170 C 
HETATM   10  F1  UNL     1      28.245   9.380  46.525  1.00  0.00    -0.231 F 
HETATM   11  C17 UNL     1      30.112   9.464  47.888  1.00  0.00     0.111 C 
HETATM   12  C18 UNL     1      31.028   8.535  48.664  1.00  0.00     0.014 C 
HETATM   13  C19 UNL     1      31.807   7.930  47.696  1.00  0.00     0.056 C 
HETATM   14  N5  UNL     1      31.435   7.908  50.001  1.00  0.00    -0.371 N 
HETATM   15  C20 UNL     1      32.195   6.650  49.889  1.00  0.00     0.087 C 
HETATM   16  C21 UNL     1      31.832   5.646  48.997  1.00  0.00     0.152 A 
HETATM   17  H26 UNL     1      30.916   8.768  50.080  1.00  0.00     0.164 HD
ENDROOT
BRANCH   1  18
HETATM   18  N2  UNL     1      27.468   7.934  48.835  1.00  0.00    -0.360 N 
BRANCH  18  19
HETATM   19  C8  UNL     1      26.272   7.185  48.543  1.00  0.00     0.127 C 
BRANCH  19  20
HETATM   20  C7  UNL     1      25.434   6.852  49.732  1.00  0.00     0.055 C 
BRANCH  20  21
HETATM   21  C6  UNL     1      25.371   5.379  50.045  1.00  0.00     0.225 C 
HETATM   22  C2  UNL     1      24.288   4.761  49.148  1.00  0.00     0.015 C 
HETATM   23  C1  UNL     1      22.983   5.393  49.554  1.00  0.00     0.012 C 
HETATM   24  C3  UNL     1      24.202   3.283  49.390  1.00  0.00     0.008 C 
HETATM   25  C4  UNL     1      25.106   2.875  50.521  1.00  0.00     0.030 C 
HETATM   26  C5  UNL     1      26.509   3.358  50.306  1.00  0.00     0.270 C 
HETATM   27  N1  UNL     1      26.576   4.684  49.727  1.00  0.00     0.088 N 
HETATM   28  H11 UNL     1      26.760   4.607  48.698  1.00  0.00     0.316 HD
ENDBRANCH  20  21
ENDBRANCH  19  20
ENDBRANCH  18  19
BRANCH  18  29
HETATM   29  C9  UNL     1      27.080   8.879  49.866  1.00  0.00     0.289 C 
BRANCH  29  30
HETATM   30  O1  UNL     1      28.200   9.233  50.574  1.00  0.00    -0.382 OA
HETATM   31  H19 UNL     1      28.088   9.185  51.553  1.00  0.00     0.211 HD
ENDBRANCH  29  30
ENDBRANCH  18  29
ENDBRANCH   1  18
TORSDOF 6
ENDMDL
