MODEL 1
REMARK VINA RESULT:      -6.9      0.000      0.000
REMARK  5 active torsions:
REMARK  status: ('A' for Active; 'I' for Inactive)
REMARK    1  A    between atoms: O1_2  and  C2_3 
REMARK    2  A    between atoms: C6_9  and  N3_10 
REMARK    3  A    between atoms: N3_10  and  C7_11 
REMARK    4  A    between atoms: C11_15  and  P1_16 
REMARK    5  A    between atoms: C15_21  and  O2_22 
ROOT
HETATM    1  C2  UNL     1      22.890   0.923  52.692  1.00  0.00     0.103 A 
HETATM    2  C3  UNL     1      24.021   1.026  53.470  1.00  0.00     0.072 A 
HETATM    3  C4  UNL     1      25.170   1.538  52.909  1.00  0.00     0.075 A 
HETATM    4  N1  UNL     1      26.317   1.687  53.596  1.00  0.00    -0.241 NA
HETATM    5  C5  UNL     1      27.418   2.201  53.024  1.00  0.00     0.236 A 
HETATM    6  N2  UNL     1      27.376   2.583  51.716  1.00  0.00    -0.224 NA
HETATM    7  C6  UNL     1      26.253   2.450  51.001  1.00  0.00     0.142 A 
HETATM    8  C13 UNL     1      25.122   1.923  51.585  1.00  0.00     0.042 A 
HETATM    9  C14 UNL     1      23.979   1.810  50.828  1.00  0.00     0.057 A 
HETATM   10  C15 UNL     1      22.811   1.302  51.359  1.00  0.00     0.102 A 
ENDROOT
BRANCH   7  11
HETATM   11  N3  UNL     1      26.308   2.882  49.624  1.00  0.00    -0.340 N 
HETATM   12  H6  UNL     1      26.342   2.245  48.800  1.00  0.00     0.167 HD
BRANCH  11  13
HETATM   13  C7  UNL     1      26.316   4.309  49.519  1.00  0.00     0.034 A 
HETATM   14  C8  UNL     1      27.416   4.739  48.766  1.00  0.00     0.029 A 
HETATM   15  C9  UNL     1      27.668   6.089  48.490  1.00  0.00     0.003 A 
HETATM   16  C10 UNL     1      26.769   6.996  49.001  1.00  0.00     0.013 A 
HETATM   17  C11 UNL     1      25.691   6.574  49.738  1.00  0.00    -0.021 A 
HETATM   18  C12 UNL     1      25.444   5.249  50.011  1.00  0.00     0.042 A 
BRANCH  17  19
HETATM   19  P1  UNL     1      24.488   7.788  50.402  1.00  0.00    -0.020 P 
HETATM   20 BR1  UNL     1      22.388   6.924  50.506  1.00  0.00    -0.058 Br
HETATM   21  H10 UNL     1      24.897   8.239  51.748  1.00  0.00     0.074 HD
ENDBRANCH  17  19
ENDBRANCH  11  13
ENDBRANCH   7  11
BRANCH  10  22
HETATM   22  O2  UNL     1      21.581   1.110  50.776  1.00  0.00    -0.353 OA
HETATM   23  C16 UNL     1      21.452   0.996  49.383  1.00  0.00     0.210 C 
ENDBRANCH  10  22
BRANCH   1  24
HETATM   24  O1  UNL     1      21.799   0.398  53.352  1.00  0.00    -0.353 OA
HETATM   25  C1  UNL     1      21.861  -0.413  54.484  1.00  0.00     0.210 C 
ENDBRANCH   1  24
TORSDOF 5
ENDMDL
MODEL 2
REMARK VINA RESULT:      -6.9      3.039      5.342
REMARK  5 active torsions:
REMARK  status: ('A' for Active; 'I' for Inactive)
REMARK    1  A    between atoms: O1_2  and  C2_3 
REMARK    2  A    between atoms: C6_9  and  N3_10 
REMARK    3  A    between atoms: N3_10  and  C7_11 
REMARK    4  A    between atoms: C11_15  and  P1_16 
REMARK    5  A    between atoms: C15_21  and  O2_22 
ROOT
HETATM    1  C2  UNL     1      27.233   0.063  53.749  1.00  0.00     0.103 A 
HETATM    2  C3  UNL     1      27.699   0.887  52.750  1.00  0.00     0.072 A 
HETATM    3  C4  UNL     1      26.824   1.765  52.149  1.00  0.00     0.075 A 
HETATM    4  N1  UNL     1      27.195   2.615  51.175  1.00  0.00    -0.241 NA
HETATM    5  C5  UNL     1      26.321   3.469  50.616  1.00  0.00     0.236 A 
HETATM    6  N2  UNL     1      25.027   3.476  51.045  1.00  0.00    -0.224 NA
HETATM    7  C6  UNL     1      24.623   2.646  52.012  1.00  0.00     0.142 A 
HETATM    8  C13 UNL     1      25.517   1.770  52.587  1.00  0.00     0.042 A 
HETATM    9  C14 UNL     1      25.074   0.935  53.587  1.00  0.00     0.057 A 
HETATM   10  C15 UNL     1      25.924   0.045  54.211  1.00  0.00     0.102 A 
ENDROOT
BRANCH   7  11
HETATM   11  N3  UNL     1      23.233   2.728  52.396  1.00  0.00    -0.340 N 
HETATM   12  H6  UNL     1      22.891   3.025  53.334  1.00  0.00     0.167 HD
BRANCH  11  13
HETATM   13  C7  UNL     1      22.365   2.344  51.325  1.00  0.00     0.034 A 
HETATM   14  C8  UNL     1      22.047   0.983  51.417  1.00  0.00     0.029 A 
HETATM   15  C9  UNL     1      21.201   0.337  50.506  1.00  0.00     0.003 A 
HETATM   16  C10 UNL     1      20.686   1.113  49.493  1.00  0.00     0.013 A 
HETATM   17  C11 UNL     1      20.999   2.446  49.404  1.00  0.00    -0.021 A 
HETATM   18  C12 UNL     1      21.829   3.080  50.297  1.00  0.00     0.042 A 
BRANCH  17  19
HETATM   19  P1  UNL     1      20.295   3.476  48.061  1.00  0.00    -0.020 P 
HETATM   20 BR1  UNL     1      21.739   3.691  46.317  1.00  0.00    -0.058 Br
HETATM   21  H10 UNL     1      19.026   2.896  47.574  1.00  0.00     0.074 HD
ENDBRANCH  17  19
ENDBRANCH  11  13
ENDBRANCH   7  11
BRANCH  10  22
HETATM   22  O2  UNL     1      25.678  -0.860  55.216  1.00  0.00    -0.353 OA
HETATM   23  C16 UNL     1      24.369  -1.266  55.519  1.00  0.00     0.210 C 
ENDBRANCH  10  22
BRANCH   1  24
HETATM   24  O1  UNL     1      28.190  -0.775  54.281  1.00  0.00    -0.353 OA
HETATM   25  C1  UNL     1      29.498  -0.896  53.813  1.00  0.00     0.210 C 
ENDBRANCH   1  24
TORSDOF 5
ENDMDL
MODEL 3
REMARK VINA RESULT:      -6.9      4.405      7.265
REMARK  5 active torsions:
REMARK  status: ('A' for Active; 'I' for Inactive)
REMARK    1  A    between atoms: O1_2  and  C2_3 
REMARK    2  A    between atoms: C6_9  and  N3_10 
REMARK    3  A    between atoms: N3_10  and  C7_11 
REMARK    4  A    between atoms: C11_15  and  P1_16 
REMARK    5  A    between atoms: C15_21  and  O2_22 
ROOT
HETATM    1  C2  UNL     1      27.071   7.542  49.017  1.00  0.00     0.103 A 
HETATM    2  C3  UNL     1      26.005   7.834  49.837  1.00  0.00     0.072 A 
HETATM    3  C4  UNL     1      25.229   6.800  50.311  1.00  0.00     0.075 A 
HETATM    4  N1  UNL     1      24.176   6.990  51.127  1.00  0.00    -0.241 NA
HETATM    5  C5  UNL     1      23.445   5.959  51.584  1.00  0.00     0.236 A 
HETATM    6  N2  UNL     1      23.775   4.689  51.213  1.00  0.00    -0.224 NA
HETATM    7  C6  UNL     1      24.815   4.462  50.403  1.00  0.00     0.142 A 
HETATM    8  C13 UNL     1      25.567   5.517  49.934  1.00  0.00     0.042 A 
HETATM    9  C14 UNL     1      26.638   5.251  49.112  1.00  0.00     0.057 A 
HETATM   10  C15 UNL     1      27.436   6.263  48.620  1.00  0.00     0.102 A 
ENDROOT
BRANCH   7  11
HETATM   11  N3  UNL     1      25.085   3.084  50.068  1.00  0.00    -0.340 N 
HETATM   12  H6  UNL     1      24.947   2.661  49.126  1.00  0.00     0.167 HD
BRANCH  11  13
HETATM   13  C7  UNL     1      25.565   2.350  51.199  1.00  0.00     0.034 A 
HETATM   14  C8  UNL     1      24.570   1.494  51.687  1.00  0.00     0.029 A 
HETATM   15  C9  UNL     1      24.768   0.644  52.782  1.00  0.00     0.003 A 
HETATM   16  C10 UNL     1      26.010   0.686  53.373  1.00  0.00     0.013 A 
HETATM   17  C11 UNL     1      26.985   1.525  52.894  1.00  0.00    -0.021 A 
HETATM   18  C12 UNL     1      26.790   2.360  51.820  1.00  0.00     0.042 A 
BRANCH  17  19
HETATM   19  P1  UNL     1      28.642   1.563  53.677  1.00  0.00    -0.020 P 
HETATM   20 BR1  UNL     1      29.549  -0.516  53.831  1.00  0.00    -0.058 Br
HETATM   21  H10 UNL     1      29.555   2.438  52.913  1.00  0.00     0.074 HD
ENDBRANCH  17  19
ENDBRANCH  11  13
ENDBRANCH   7  11
BRANCH  10  22
HETATM   22  O2  UNL     1      28.536   6.204  47.798  1.00  0.00    -0.353 OA
HETATM   23  C16 UNL     1      29.701   5.531  48.196  1.00  0.00     0.210 C 
ENDBRANCH  10  22
BRANCH   1  24
HETATM   24  O1  UNL     1      27.780   8.650  48.600  1.00  0.00    -0.353 OA
HETATM   25  C1  UNL     1      28.776   9.288  49.336  1.00  0.00     0.210 C 
ENDBRANCH   1  24
TORSDOF 5
ENDMDL
MODEL 4
REMARK VINA RESULT:      -6.8      3.796      5.969
REMARK  5 active torsions:
REMARK  status: ('A' for Active; 'I' for Inactive)
REMARK    1  A    between atoms: O1_2  and  C2_3 
REMARK    2  A    between atoms: C6_9  and  N3_10 
REMARK    3  A    between atoms: N3_10  and  C7_11 
REMARK    4  A    between atoms: C11_15  and  P1_16 
REMARK    5  A    between atoms: C15_21  and  O2_22 
ROOT
HETATM    1  C2  UNL     1      27.227   0.080  53.689  1.00  0.00     0.103 A 
HETATM    2  C3  UNL     1      27.644   0.793  52.588  1.00  0.00     0.072 A 
HETATM    3  C4  UNL     1      26.796   1.731  52.043  1.00  0.00     0.075 A 
HETATM    4  N1  UNL     1      27.125   2.483  50.977  1.00  0.00    -0.241 NA
HETATM    5  C5  UNL     1      26.280   3.399  50.475  1.00  0.00     0.236 A 
HETATM    6  N2  UNL     1      25.059   3.573  51.057  1.00  0.00    -0.224 NA
HETATM    7  C6  UNL     1      24.699   2.844  52.119  1.00  0.00     0.142 A 
HETATM    8  C13 UNL     1      25.563   1.905  52.637  1.00  0.00     0.042 A 
HETATM    9  C14 UNL     1      25.168   1.178  53.736  1.00  0.00     0.057 A 
HETATM   10  C15 UNL     1      25.994   0.232  54.308  1.00  0.00     0.102 A 
ENDROOT
BRANCH   7  11
HETATM   11  N3  UNL     1      23.387   3.102  52.665  1.00  0.00    -0.340 N 
HETATM   12  H6  UNL     1      23.148   3.896  53.295  1.00  0.00     0.167 HD
BRANCH  11  13
HETATM   13  C7  UNL     1      22.436   2.120  52.238  1.00  0.00     0.034 A 
HETATM   14  C8  UNL     1      22.422   2.026  50.841  1.00  0.00     0.029 A 
HETATM   15  C9  UNL     1      21.594   1.134  50.148  1.00  0.00     0.003 A 
HETATM   16  C10 UNL     1      20.776   0.337  50.914  1.00  0.00     0.013 A 
HETATM   17  C11 UNL     1      20.790   0.430  52.283  1.00  0.00    -0.021 A 
HETATM   18  C12 UNL     1      21.601   1.306  52.964  1.00  0.00     0.042 A 
BRANCH  17  19
HETATM   19  P1  UNL     1      19.708  -0.648  53.298  1.00  0.00    -0.020 P 
HETATM   20 BR1  UNL     1      17.614  -0.801  52.424  1.00  0.00    -0.058 Br
HETATM   21  H10 UNL     1      20.288  -2.002  53.414  1.00  0.00     0.074 HD
ENDBRANCH  17  19
ENDBRANCH  11  13
ENDBRANCH   7  11
BRANCH  10  22
HETATM   22  O2  UNL     1      25.787  -0.586  55.393  1.00  0.00    -0.353 OA
HETATM   23  C16 UNL     1      24.540  -1.192  55.614  1.00  0.00     0.210 C 
ENDBRANCH  10  22
BRANCH   1  24
HETATM   24  O1  UNL     1      28.153  -0.831  54.153  1.00  0.00    -0.353 OA
HETATM   25  C1  UNL     1      29.496  -0.868  53.784  1.00  0.00     0.210 C 
ENDBRANCH   1  24
TORSDOF 5
ENDMDL
MODEL 5
REMARK VINA RESULT:      -6.7      3.194      4.637
REMARK  5 active torsions:
REMARK  status: ('A' for Active; 'I' for Inactive)
REMARK    1  A    between atoms: O1_2  and  C2_3 
REMARK    2  A    between atoms: C6_9  and  N3_10 
REMARK    3  A    between atoms: N3_10  and  C7_11 
REMARK    4  A    between atoms: C11_15  and  P1_16 
REMARK    5  A    between atoms: C15_21  and  O2_22 
ROOT
HETATM    1  C2  UNL     1      27.453  -0.451  53.508  1.00  0.00     0.103 A 
HETATM    2  C3  UNL     1      26.182  -0.975  53.442  1.00  0.00     0.072 A 
HETATM    3  C4  UNL     1      25.118  -0.120  53.262  1.00  0.00     0.075 A 
HETATM    4  N1  UNL     1      23.845  -0.545  53.172  1.00  0.00    -0.241 NA
HETATM    5  C5  UNL     1      22.828   0.313  52.984  1.00  0.00     0.236 A 
HETATM    6  N2  UNL     1      23.090   1.647  52.880  1.00  0.00    -0.224 NA
HETATM    7  C6  UNL     1      24.344   2.106  52.964  1.00  0.00     0.142 A 
HETATM    8  C13 UNL     1      25.388   1.228  53.156  1.00  0.00     0.042 A 
HETATM    9  C14 UNL     1      26.668   1.729  53.227  1.00  0.00     0.057 A 
HETATM   10  C15 UNL     1      27.756   0.900  53.406  1.00  0.00     0.102 A 
ENDROOT
BRANCH   7  11
HETATM   11  N3  UNL     1      24.519   3.534  52.843  1.00  0.00    -0.340 N 
HETATM   12  H6  UNL     1      24.864   4.159  53.601  1.00  0.00     0.167 HD
BRANCH  11  13
HETATM   13  C7  UNL     1      24.153   4.002  51.541  1.00  0.00     0.034 A 
HETATM   14  C8  UNL     1      25.158   3.704  50.612  1.00  0.00     0.029 A 
HETATM   15  C9  UNL     1      25.061   4.035  49.254  1.00  0.00     0.003 A 
HETATM   16  C10 UNL     1      23.911   4.680  48.862  1.00  0.00     0.013 A 
HETATM   17  C11 UNL     1      22.927   4.972  49.773  1.00  0.00    -0.021 A 
HETATM   18  C12 UNL     1      23.022   4.649  51.105  1.00  0.00     0.042 A 
BRANCH  17  19
HETATM   19  P1  UNL     1      21.390   5.817  49.238  1.00  0.00    -0.020 P 
HETATM   20 BR1  UNL     1      21.075   7.775  50.351  1.00  0.00    -0.058 Br
HETATM   21  H10 UNL     1      21.424   6.083  47.785  1.00  0.00     0.074 HD
ENDBRANCH  17  19
ENDBRANCH  11  13
ENDBRANCH   7  11
BRANCH  10  22
HETATM   22  O2  UNL     1      29.094   1.201  53.501  1.00  0.00    -0.353 OA
HETATM   23  C16 UNL     1      29.593   1.939  54.586  1.00  0.00     0.210 C 
ENDBRANCH  10  22
BRANCH   1  24
HETATM   24  O1  UNL     1      28.442  -1.394  53.691  1.00  0.00    -0.353 OA
HETATM   25  C1  UNL     1      28.620  -2.531  52.905  1.00  0.00     0.210 C 
ENDBRANCH   1  24
TORSDOF 5
ENDMDL
MODEL 6
REMARK VINA RESULT:      -6.7      3.161      4.446
REMARK  5 active torsions:
REMARK  status: ('A' for Active; 'I' for Inactive)
REMARK    1  A    between atoms: O1_2  and  C2_3 
REMARK    2  A    between atoms: C6_9  and  N3_10 
REMARK    3  A    between atoms: N3_10  and  C7_11 
REMARK    4  A    between atoms: C11_15  and  P1_16 
REMARK    5  A    between atoms: C15_21  and  O2_22 
ROOT
HETATM    1  C2  UNL     1      25.314   0.717  53.296  1.00  0.00     0.103 A 
HETATM    2  C3  UNL     1      24.124   0.427  52.668  1.00  0.00     0.072 A 
HETATM    3  C4  UNL     1      23.277   1.462  52.338  1.00  0.00     0.075 A 
HETATM    4  N1  UNL     1      22.102   1.273  51.713  1.00  0.00    -0.241 NA
HETATM    5  C5  UNL     1      21.302   2.305  51.393  1.00  0.00     0.236 A 
HETATM    6  N2  UNL     1      21.688   3.573  51.709  1.00  0.00    -0.224 NA
HETATM    7  C6  UNL     1      22.851   3.799  52.331  1.00  0.00     0.142 A 
HETATM    8  C13 UNL     1      23.673   2.743  52.660  1.00  0.00     0.042 A 
HETATM    9  C14 UNL     1      24.868   3.007  53.289  1.00  0.00     0.057 A 
HETATM   10  C15 UNL     1      25.740   1.995  53.632  1.00  0.00     0.102 A 
ENDROOT
BRANCH   7  11
HETATM   11  N3  UNL     1      23.171   5.176  52.624  1.00  0.00    -0.340 N 
HETATM   12  H6  UNL     1      23.157   5.602  53.575  1.00  0.00     0.167 HD
BRANCH  11  13
HETATM   13  C7  UNL     1      23.510   5.902  51.439  1.00  0.00     0.034 A 
HETATM   14  C8  UNL     1      22.471   6.771  51.081  1.00  0.00     0.029 A 
HETATM   15  C9  UNL     1      22.536   7.617  49.967  1.00  0.00     0.003 A 
HETATM   16  C10 UNL     1      23.690   7.557  49.220  1.00  0.00     0.013 A 
HETATM   17  C11 UNL     1      24.708   6.706  49.571  1.00  0.00    -0.021 A 
HETATM   18  C12 UNL     1      24.644   5.875  50.664  1.00  0.00     0.042 A 
BRANCH  17  19
HETATM   19  P1  UNL     1      26.249   6.645  48.579  1.00  0.00    -0.020 P 
HETATM   20 BR1  UNL     1      27.356   4.679  48.862  1.00  0.00    -0.058 Br
HETATM   21  H10 UNL     1      25.949   6.834  47.145  1.00  0.00     0.074 HD
ENDBRANCH  17  19
ENDBRANCH  11  13
ENDBRANCH   7  11
BRANCH  10  22
HETATM   22  O2  UNL     1      26.963   2.052  54.256  1.00  0.00    -0.353 OA
HETATM   23  C16 UNL     1      28.129   2.354  53.534  1.00  0.00     0.210 C 
ENDBRANCH  10  22
BRANCH   1  24
HETATM   24  O1  UNL     1      26.085  -0.391  53.580  1.00  0.00    -0.353 OA
HETATM   25  C1  UNL     1      26.613  -1.265  52.632  1.00  0.00     0.210 C 
ENDBRANCH   1  24
TORSDOF 5
ENDMDL
MODEL 7
REMARK VINA RESULT:      -6.6      2.960      4.190
REMARK  5 active torsions:
REMARK  status: ('A' for Active; 'I' for Inactive)
REMARK    1  A    between atoms: O1_2  and  C2_3 
REMARK    2  A    between atoms: C6_9  and  N3_10 
REMARK    3  A    between atoms: N3_10  and  C7_11 
REMARK    4  A    between atoms: C11_15  and  P1_16 
REMARK    5  A    between atoms: C15_21  and  O2_22 
ROOT
HETATM    1  C2  UNL     1      25.862   0.190  53.563  1.00  0.00     0.103 A 
HETATM    2  C3  UNL     1      24.603  -0.095  53.084  1.00  0.00     0.072 A 
HETATM    3  C4  UNL     1      23.772   0.947  52.737  1.00  0.00     0.075 A 
HETATM    4  N1  UNL     1      22.532   0.761  52.250  1.00  0.00    -0.241 NA
HETATM    5  C5  UNL     1      21.748   1.798  51.909  1.00  0.00     0.236 A 
HETATM    6  N2  UNL     1      22.218   3.069  52.059  1.00  0.00    -0.224 NA
HETATM    7  C6  UNL     1      23.446   3.291  52.541  1.00  0.00     0.142 A 
HETATM    8  C13 UNL     1      24.252   2.230  52.891  1.00  0.00     0.042 A 
HETATM    9  C14 UNL     1      25.514   2.490  53.373  1.00  0.00     0.057 A 
HETATM   10  C15 UNL     1      26.373   1.470  53.728  1.00  0.00     0.102 A 
ENDROOT
BRANCH   7  11
HETATM   11  N3  UNL     1      23.852   4.671  52.664  1.00  0.00    -0.340 N 
HETATM   12  H6  UNL     1      24.134   5.133  53.555  1.00  0.00     0.167 HD
BRANCH  11  13
HETATM   13  C7  UNL     1      23.818   5.346  51.403  1.00  0.00     0.034 A 
HETATM   14  C8  UNL     1      24.784   4.818  50.537  1.00  0.00     0.029 A 
HETATM   15  C9  UNL     1      24.966   5.280  49.228  1.00  0.00     0.003 A 
HETATM   16  C10 UNL     1      24.137   6.299  48.817  1.00  0.00     0.013 A 
HETATM   17  C11 UNL     1      23.190   6.817  49.666  1.00  0.00    -0.021 A 
HETATM   18  C12 UNL     1      23.012   6.364  50.952  1.00  0.00     0.042 A 
BRANCH  17  19
HETATM   19  P1  UNL     1      22.079   8.163  49.106  1.00  0.00    -0.020 P 
HETATM   20 BR1  UNL     1      23.204   9.747  47.925  1.00  0.00    -0.058 Br
HETATM   21  H10 UNL     1      20.986   7.619  48.274  1.00  0.00     0.074 HD
ENDBRANCH  17  19
ENDBRANCH  11  13
ENDBRANCH   7  11
BRANCH  10  22
HETATM   22  O2  UNL     1      27.654   1.522  54.222  1.00  0.00    -0.353 OA
HETATM   23  C16 UNL     1      28.629   2.332  53.619  1.00  0.00     0.210 C 
ENDBRANCH  10  22
BRANCH   1  24
HETATM   24  O1  UNL     1      26.610  -0.925  53.879  1.00  0.00    -0.353 OA
HETATM   25  C1  UNL     1      27.228  -1.764  52.954  1.00  0.00     0.210 C 
ENDBRANCH   1  24
TORSDOF 5
ENDMDL
MODEL 8
REMARK VINA RESULT:      -6.6      1.970      2.256
REMARK  5 active torsions:
REMARK  status: ('A' for Active; 'I' for Inactive)
REMARK    1  A    between atoms: O1_2  and  C2_3 
REMARK    2  A    between atoms: C6_9  and  N3_10 
REMARK    3  A    between atoms: N3_10  and  C7_11 
REMARK    4  A    between atoms: C11_15  and  P1_16 
REMARK    5  A    between atoms: C15_21  and  O2_22 
ROOT
HETATM    1  C2  UNL     1      22.791   0.554  52.985  1.00  0.00     0.103 A 
HETATM    2  C3  UNL     1      24.111   0.560  53.375  1.00  0.00     0.072 A 
HETATM    3  C4  UNL     1      25.024   1.264  52.621  1.00  0.00     0.075 A 
HETATM    4  N1  UNL     1      26.330   1.335  52.934  1.00  0.00    -0.241 NA
HETATM    5  C5  UNL     1      27.195   2.041  52.186  1.00  0.00     0.236 A 
HETATM    6  N2  UNL     1      26.741   2.701  51.083  1.00  0.00    -0.224 NA
HETATM    7  C6  UNL     1      25.449   2.652  50.741  1.00  0.00     0.142 A 
HETATM    8  C13 UNL     1      24.560   1.930  51.507  1.00  0.00     0.042 A 
HETATM    9  C14 UNL     1      23.235   1.909  51.137  1.00  0.00     0.057 A 
HETATM   10  C15 UNL     1      22.294   1.215  51.869  1.00  0.00     0.102 A 
ENDROOT
BRANCH   7  11
HETATM   11  N3  UNL     1      25.066   3.383  49.557  1.00  0.00    -0.340 N 
HETATM   12  H6  UNL     1      24.630   2.960  48.710  1.00  0.00     0.167 HD
BRANCH  11  13
HETATM   13  C7  UNL     1      25.363   4.778  49.677  1.00  0.00     0.034 A 
HETATM   14  C8  UNL     1      24.500   5.386  50.598  1.00  0.00     0.029 A 
HETATM   15  C9  UNL     1      24.572   6.746  50.925  1.00  0.00     0.003 A 
HETATM   16  C10 UNL     1      25.548   7.477  50.288  1.00  0.00     0.013 A 
HETATM   17  C11 UNL     1      26.394   6.881  49.386  1.00  0.00    -0.021 A 
HETATM   18  C12 UNL     1      26.323   5.546  49.064  1.00  0.00     0.042 A 
BRANCH  17  19
HETATM   19  P1  UNL     1      27.702   7.859  48.555  1.00  0.00    -0.020 P 
HETATM   20 BR1  UNL     1      29.413   6.543  47.839  1.00  0.00    -0.058 Br
HETATM   21  H10 UNL     1      27.143   8.600  47.405  1.00  0.00     0.074 HD
ENDBRANCH  17  19
ENDBRANCH  11  13
ENDBRANCH   7  11
BRANCH  10  22
HETATM   22  O2  UNL     1      20.942   1.072  51.668  1.00  0.00    -0.353 OA
HETATM   23  C16 UNL     1      20.419   0.889  50.379  1.00  0.00     0.210 C 
ENDBRANCH  10  22
BRANCH   1  24
HETATM   24  O1  UNL     1      21.964  -0.180  53.808  1.00  0.00    -0.353 OA
HETATM   25  C1  UNL     1      22.393  -0.995  54.855  1.00  0.00     0.210 C 
ENDBRANCH   1  24
TORSDOF 5
ENDMDL
MODEL 9
REMARK VINA RESULT:      -6.5      3.981      6.149
REMARK  5 active torsions:
REMARK  status: ('A' for Active; 'I' for Inactive)
REMARK    1  A    between atoms: O1_2  and  C2_3 
REMARK    2  A    between atoms: C6_9  and  N3_10 
REMARK    3  A    between atoms: N3_10  and  C7_11 
REMARK    4  A    between atoms: C11_15  and  P1_16 
REMARK    5  A    between atoms: C15_21  and  O2_22 
ROOT
HETATM    1  C2  UNL     1      26.130  -0.053  52.676  1.00  0.00     0.103 A 
HETATM    2  C3  UNL     1      25.303  -0.802  53.482  1.00  0.00     0.072 A 
HETATM    3  C4  UNL     1      24.002  -0.388  53.666  1.00  0.00     0.075 A 
HETATM    4  N1  UNL     1      23.121  -1.064  54.425  1.00  0.00    -0.241 NA
HETATM    5  C5  UNL     1      21.854  -0.642  54.576  1.00  0.00     0.236 A 
HETATM    6  N2  UNL     1      21.449   0.497  53.945  1.00  0.00    -0.224 NA
HETATM    7  C6  UNL     1      22.298   1.194  53.182  1.00  0.00     0.142 A 
HETATM    8  C13 UNL     1      23.597   0.764  53.025  1.00  0.00     0.042 A 
HETATM    9  C14 UNL     1      24.444   1.496  52.225  1.00  0.00     0.057 A 
HETATM   10  C15 UNL     1      25.752   1.110  52.019  1.00  0.00     0.102 A 
ENDROOT
BRANCH   7  11
HETATM   11  N3  UNL     1      21.776   2.386  52.557  1.00  0.00    -0.340 N 
HETATM   12  H6  UNL     1      22.150   3.348  52.701  1.00  0.00     0.167 HD
BRANCH  11  13
HETATM   13  C7  UNL     1      20.662   2.092  51.707  1.00  0.00     0.034 A 
HETATM   14  C8  UNL     1      21.102   1.568  50.485  1.00  0.00     0.029 A 
HETATM   15  C9  UNL     1      20.226   1.177  49.465  1.00  0.00     0.003 A 
HETATM   16  C10 UNL     1      18.883   1.334  49.719  1.00  0.00     0.013 A 
HETATM   17  C11 UNL     1      18.452   1.848  50.917  1.00  0.00    -0.021 A 
HETATM   18  C12 UNL     1      19.312   2.232  51.918  1.00  0.00     0.042 A 
BRANCH  17  19
HETATM   19  P1  UNL     1      16.660   2.039  51.253  1.00  0.00    -0.020 P 
HETATM   20 BR1  UNL     1      16.137   4.168  51.856  1.00  0.00    -0.058 Br
HETATM   21  H10 UNL     1      15.867   1.660  50.065  1.00  0.00     0.074 HD
ENDBRANCH  17  19
ENDBRANCH  11  13
ENDBRANCH   7  11
BRANCH  10  22
HETATM   22  O2  UNL     1      26.741   1.696  51.266  1.00  0.00    -0.353 OA
HETATM   23  C16 UNL     1      26.534   2.935  50.640  1.00  0.00     0.210 C 
ENDBRANCH  10  22
BRANCH   1  24
HETATM   24  O1  UNL     1      27.409  -0.556  52.561  1.00  0.00    -0.353 OA
HETATM   25  C1  UNL     1      28.384  -0.500  53.555  1.00  0.00     0.210 C 
ENDBRANCH   1  24
TORSDOF 5
ENDMDL
