MODEL 1
REMARK VINA RESULT:      -8.3      0.000      0.000
REMARK  1 active torsions:
REMARK  status: ('A' for Active; 'I' for Inactive)
REMARK    1  A    between atoms: O1_2  and  C2_3 
ROOT
HETATM    1  C2  UNL     1      18.289  -0.915  52.510  1.00  0.00     0.069 A 
HETATM    2  C3  UNL     1      18.405  -0.144  51.374  1.00  0.00     0.039 A 
HETATM    3  C4  UNL     1      19.513   0.663  51.259  1.00  0.00     0.040 A 
HETATM    4  C5  UNL     1      20.490   0.727  52.221  1.00  0.00     0.085 A 
HETATM    5  C6  UNL     1      20.399  -0.046  53.385  1.00  0.00    -0.004 A 
HETATM    6  C7  UNL     1      19.279  -0.839  53.462  1.00  0.00     0.048 A 
HETATM    7  C8  UNL     1      21.461   0.035  54.421  1.00  0.00     0.160 C 
HETATM    8  N1  UNL     1      22.655  -0.720  54.065  1.00  0.00    -0.391 N 
HETATM    9  C9  UNL     1      23.981  -0.890  54.550  1.00  0.00     0.133 C 
HETATM   10  C10 UNL     1      25.021  -0.213  54.051  1.00  0.00     0.136 C 
HETATM   11  N2  UNL     1      26.218  -0.577  54.719  1.00  0.00    -0.370 N 
HETATM   12  C11 UNL     1      27.513   0.112  54.817  1.00  0.00     0.148 C 
HETATM   13  C12 UNL     1      27.905   0.570  53.456  1.00  0.00    -0.009 C 
HETATM   14  C13 UNL     1      27.349   0.938  52.331  1.00  0.00    -0.003 C 
HETATM   15  C14 UNL     1      25.932   1.049  51.947  1.00  0.00     0.130 C 
HETATM   16  C15 UNL     1      25.739   2.487  51.453  1.00  0.00     0.039 C 
HETATM   17  N3  UNL     1      24.995   0.747  53.001  1.00  0.00    -0.243 N 
HETATM   18  N4  UNL     1      23.809   1.479  53.089  1.00  0.00    -0.158 NA
HETATM   19  C16 UNL     1      22.830   1.277  52.277  1.00  0.00     0.281 C 
HETATM   20  O2  UNL     1      21.526   1.624  51.876  1.00  0.00    -0.302 OA
HETATM   21  H9  UNL     1      22.816  -1.392  53.283  1.00  0.00     0.159 HD
HETATM   22  H11 UNL     1      26.122  -1.512  55.221  1.00  0.00     0.161 HD
ENDROOT
BRANCH   1  23
HETATM   23  O1  UNL     1      17.224  -1.769  52.748  1.00  0.00    -0.356 OA
HETATM   24  C1  UNL     1      17.320  -2.962  53.464  1.00  0.00     0.210 C 
ENDBRANCH   1  23
TORSDOF 1
ENDMDL
MODEL 2
REMARK VINA RESULT:      -8.1      2.232      7.004
REMARK  1 active torsions:
REMARK  status: ('A' for Active; 'I' for Inactive)
REMARK    1  A    between atoms: O1_2  and  C2_3 
ROOT
HETATM    1  C2  UNL     1      26.600   1.174  54.021  1.00  0.00     0.069 A 
HETATM    2  C3  UNL     1      26.503   2.108  53.013  1.00  0.00     0.039 A 
HETATM    3  C4  UNL     1      25.434   2.012  52.151  1.00  0.00     0.040 A 
HETATM    4  C5  UNL     1      24.478   1.034  52.260  1.00  0.00     0.085 A 
HETATM    5  C6  UNL     1      24.550   0.072  53.275  1.00  0.00    -0.004 A 
HETATM    6  C7  UNL     1      25.630   0.202  54.114  1.00  0.00     0.048 A 
HETATM    7  C8  UNL     1      23.510  -0.984  53.379  1.00  0.00     0.160 C 
HETATM    8  N1  UNL     1      22.275  -0.502  53.984  1.00  0.00    -0.391 N 
HETATM    9  C9  UNL     1      20.950  -0.974  54.198  1.00  0.00     0.133 C 
HETATM   10  C10 UNL     1      19.936  -0.665  53.382  1.00  0.00     0.136 C 
HETATM   11  N2  UNL     1      18.735  -1.268  53.832  1.00  0.00    -0.370 N 
HETATM   12  C11 UNL     1      17.476  -1.550  53.125  1.00  0.00     0.148 C 
HETATM   13  C12 UNL     1      17.085  -0.335  52.359  1.00  0.00    -0.009 C 
HETATM   14  C13 UNL     1      17.640   0.696  51.776  1.00  0.00    -0.003 C 
HETATM   15  C14 UNL     1      19.054   1.084  51.645  1.00  0.00     0.130 C 
HETATM   16  C15 UNL     1      19.309   1.252  50.143  1.00  0.00     0.039 C 
HETATM   17  N3  UNL     1      19.992   0.148  52.215  1.00  0.00    -0.243 N 
HETATM   18  N4  UNL     1      21.214  -0.068  51.574  1.00  0.00    -0.158 NA
HETATM   19  C16 UNL     1      22.168   0.795  51.634  1.00  0.00     0.281 C 
HETATM   20  O2  UNL     1      23.482   1.144  51.264  1.00  0.00    -0.302 OA
HETATM   21  H9  UNL     1      22.068   0.404  54.457  1.00  0.00     0.159 HD
HETATM   22  H11 UNL     1      18.792  -1.548  54.858  1.00  0.00     0.161 HD
ENDROOT
BRANCH   1  23
HETATM   23  O1  UNL     1      27.625   1.160  54.952  1.00  0.00    -0.356 OA
HETATM   24  C1  UNL     1      28.667   0.233  54.957  1.00  0.00     0.210 C 
ENDBRANCH   1  23
TORSDOF 1
ENDMDL
MODEL 3
REMARK VINA RESULT:      -8.0      4.153      6.716
REMARK  1 active torsions:
REMARK  status: ('A' for Active; 'I' for Inactive)
REMARK    1  A    between atoms: O1_2  and  C2_3 
ROOT
HETATM    1  C2  UNL     1      25.667  -0.398  53.904  1.00  0.00     0.069 A 
HETATM    2  C3  UNL     1      26.889  -0.255  53.283  1.00  0.00     0.039 A 
HETATM    3  C4  UNL     1      26.980   0.647  52.248  1.00  0.00     0.040 A 
HETATM    4  C5  UNL     1      25.914   1.397  51.821  1.00  0.00     0.085 A 
HETATM    5  C6  UNL     1      24.661   1.274  52.433  1.00  0.00    -0.004 A 
HETATM    6  C7  UNL     1      24.611   0.364  53.461  1.00  0.00     0.048 A 
HETATM    7  C8  UNL     1      23.513   2.089  51.957  1.00  0.00     0.160 C 
HETATM    8  N1  UNL     1      23.562   3.465  52.433  1.00  0.00    -0.391 N 
HETATM    9  C9  UNL     1      22.871   4.687  52.205  1.00  0.00     0.133 C 
HETATM   10  C10 UNL     1      23.324   5.622  51.362  1.00  0.00     0.136 C 
HETATM   11  N2  UNL     1      22.441   6.731  51.329  1.00  0.00    -0.370 N 
HETATM   12  C11 UNL     1      22.278   7.801  50.333  1.00  0.00     0.148 C 
HETATM   13  C12 UNL     1      23.627   8.317  49.974  1.00  0.00    -0.009 C 
HETATM   14  C13 UNL     1      24.865   7.904  49.906  1.00  0.00    -0.003 C 
HETATM   15  C14 UNL     1      25.461   6.590  50.199  1.00  0.00     0.130 C 
HETATM   16  C15 UNL     1      26.212   6.173  48.931  1.00  0.00     0.039 C 
HETATM   17  N3  UNL     1      24.515   5.571  50.584  1.00  0.00    -0.243 N 
HETATM   18  N4  UNL     1      24.722   4.255  50.163  1.00  0.00    -0.158 NA
HETATM   19  C16 UNL     1      25.619   3.508  50.706  1.00  0.00     0.281 C 
HETATM   20  O2  UNL     1      26.255   2.252  50.747  1.00  0.00    -0.302 OA
HETATM   21  H9  UNL     1      24.189   3.909  53.140  1.00  0.00     0.159 HD
HETATM   22  H11 UNL     1      21.807   6.758  52.184  1.00  0.00     0.161 HD
ENDROOT
BRANCH   1  23
HETATM   23  O1  UNL     1      25.443  -1.270  54.956  1.00  0.00    -0.356 OA
HETATM   24  C1  UNL     1      24.254  -1.333  55.684  1.00  0.00     0.210 C 
ENDBRANCH   1  23
TORSDOF 1
ENDMDL
MODEL 4
REMARK VINA RESULT:      -7.8      6.869      9.496
REMARK  1 active torsions:
REMARK  status: ('A' for Active; 'I' for Inactive)
REMARK    1  A    between atoms: O1_2  and  C2_3 
ROOT
HETATM    1  C2  UNL     1      24.649   3.607  50.993  1.00  0.00     0.069 A 
HETATM    2  C3  UNL     1      25.585   2.746  50.465  1.00  0.00     0.039 A 
HETATM    3  C4  UNL     1      26.523   3.268  49.603  1.00  0.00     0.040 A 
HETATM    4  C5  UNL     1      26.555   4.595  49.258  1.00  0.00     0.085 A 
HETATM    5  C6  UNL     1      25.617   5.494  49.779  1.00  0.00    -0.004 A 
HETATM    6  C7  UNL     1      24.699   4.934  50.635  1.00  0.00     0.048 A 
HETATM    7  C8  UNL     1      25.660   6.928  49.393  1.00  0.00     0.160 C 
HETATM    8  N1  UNL     1      26.698   7.671  50.097  1.00  0.00    -0.391 N 
HETATM    9  C9  UNL     1      27.292   8.962  50.045  1.00  0.00     0.133 C 
HETATM   10  C10 UNL     1      28.437   9.201  49.396  1.00  0.00     0.136 C 
HETATM   11  N2  UNL     1      28.796  10.568  49.508  1.00  0.00    -0.370 N 
HETATM   12  C11 UNL     1      29.709  11.392  48.701  1.00  0.00     0.148 C 
HETATM   13  C12 UNL     1      30.973  10.632  48.500  1.00  0.00    -0.009 C 
HETATM   14  C13 UNL     1      31.389   9.395  48.423  1.00  0.00    -0.003 C 
HETATM   15  C14 UNL     1      30.655   8.123  48.518  1.00  0.00     0.130 C 
HETATM   16  C15 UNL     1      30.979   7.350  47.235  1.00  0.00     0.039 C 
HETATM   17  N3  UNL     1      29.228   8.260  48.679  1.00  0.00    -0.243 N 
HETATM   18  N4  UNL     1      28.381   7.343  48.052  1.00  0.00    -0.158 NA
HETATM   19  C16 UNL     1      28.231   6.146  48.503  1.00  0.00     0.281 C 
HETATM   20  O2  UNL     1      27.608   4.891  48.362  1.00  0.00    -0.302 OA
HETATM   21  H9  UNL     1      27.302   7.384  50.898  1.00  0.00     0.159 HD
HETATM   22  H11 UNL     1      28.302  11.041  50.324  1.00  0.00     0.161 HD
ENDROOT
BRANCH   1  23
HETATM   23  O1  UNL     1      23.654   3.208  51.870  1.00  0.00    -0.356 OA
HETATM   24  C1  UNL     1      23.814   2.221  52.842  1.00  0.00     0.210 C 
ENDBRANCH   1  23
TORSDOF 1
ENDMDL
MODEL 5
REMARK VINA RESULT:      -7.8      3.902      7.195
REMARK  1 active torsions:
REMARK  status: ('A' for Active; 'I' for Inactive)
REMARK    1  A    between atoms: O1_2  and  C2_3 
ROOT
HETATM    1  C2  UNL     1      26.429   0.655  54.395  1.00  0.00     0.069 A 
HETATM    2  C3  UNL     1      25.711  -0.466  54.041  1.00  0.00     0.039 A 
HETATM    3  C4  UNL     1      24.617  -0.295  53.225  1.00  0.00     0.040 A 
HETATM    4  C5  UNL     1      24.222   0.934  52.760  1.00  0.00     0.085 A 
HETATM    5  C6  UNL     1      24.932   2.091  53.103  1.00  0.00    -0.004 A 
HETATM    6  C7  UNL     1      26.018   1.878  53.918  1.00  0.00     0.048 A 
HETATM    7  C8  UNL     1      24.491   3.417  52.597  1.00  0.00     0.160 C 
HETATM    8  N1  UNL     1      24.873   3.646  51.210  1.00  0.00    -0.391 N 
HETATM    9  C9  UNL     1      24.618   4.603  50.189  1.00  0.00     0.133 C 
HETATM   10  C10 UNL     1      23.686   4.419  49.247  1.00  0.00     0.136 C 
HETATM   11  N2  UNL     1      23.647   5.526  48.363  1.00  0.00    -0.370 N 
HETATM   12  C11 UNL     1      22.599   5.980  47.436  1.00  0.00     0.148 C 
HETATM   13  C12 UNL     1      22.108   4.802  46.669  1.00  0.00    -0.009 C 
HETATM   14  C13 UNL     1      21.975   3.509  46.809  1.00  0.00    -0.003 C 
HETATM   15  C14 UNL     1      22.307   2.621  47.935  1.00  0.00     0.130 C 
HETATM   16  C15 UNL     1      21.016   1.871  48.278  1.00  0.00     0.039 C 
HETATM   17  N3  UNL     1      22.826   3.294  49.101  1.00  0.00    -0.243 N 
HETATM   18  N4  UNL     1      22.477   2.825  50.370  1.00  0.00    -0.158 NA
HETATM   19  C16 UNL     1      22.998   1.754  50.859  1.00  0.00     0.281 C 
HETATM   20  O2  UNL     1      23.073   0.854  51.940  1.00  0.00    -0.302 OA
HETATM   21  H9  UNL     1      25.501   3.093  50.586  1.00  0.00     0.159 HD
HETATM   22  H11 UNL     1      24.543   6.099  48.406  1.00  0.00     0.161 HD
ENDROOT
BRANCH   1  23
HETATM   23  O1  UNL     1      27.549   0.619  55.209  1.00  0.00    -0.356 OA
HETATM   24  C1  UNL     1      28.823   0.251  54.776  1.00  0.00     0.210 C 
ENDBRANCH   1  23
TORSDOF 1
ENDMDL
MODEL 6
REMARK VINA RESULT:      -7.6      4.087      7.848
REMARK  1 active torsions:
REMARK  status: ('A' for Active; 'I' for Inactive)
REMARK    1  A    between atoms: O1_2  and  C2_3 
ROOT
HETATM    1  C2  UNL     1      26.297   7.607  48.525  1.00  0.00     0.069 A 
HETATM    2  C3  UNL     1      24.930   7.737  48.413  1.00  0.00     0.039 A 
HETATM    3  C4  UNL     1      24.161   6.615  48.624  1.00  0.00     0.040 A 
HETATM    4  C5  UNL     1      24.701   5.393  48.935  1.00  0.00     0.085 A 
HETATM    5  C6  UNL     1      26.086   5.231  49.055  1.00  0.00    -0.004 A 
HETATM    6  C7  UNL     1      26.818   6.374  48.838  1.00  0.00     0.048 A 
HETATM    7  C8  UNL     1      26.658   3.901  49.388  1.00  0.00     0.160 C 
HETATM    8  N1  UNL     1      26.541   3.575  50.803  1.00  0.00    -0.391 N 
HETATM    9  C9  UNL     1      26.752   2.451  51.649  1.00  0.00     0.133 C 
HETATM   10  C10 UNL     1      25.760   1.634  52.020  1.00  0.00     0.136 C 
HETATM   11  N2  UNL     1      26.253   0.603  52.859  1.00  0.00    -0.370 N 
HETATM   12  C11 UNL     1      25.683  -0.707  53.210  1.00  0.00     0.148 C 
HETATM   13  C12 UNL     1      24.250  -0.515  53.564  1.00  0.00    -0.009 C 
HETATM   14  C13 UNL     1      23.254   0.284  53.283  1.00  0.00    -0.003 C 
HETATM   15  C14 UNL     1      23.175   1.449  52.387  1.00  0.00     0.130 C 
HETATM   16  C15 UNL     1      22.022   1.162  51.420  1.00  0.00     0.039 C 
HETATM   17  N3  UNL     1      24.387   1.734  51.659  1.00  0.00    -0.243 N 
HETATM   18  N4  UNL     1      24.299   2.201  50.346  1.00  0.00    -0.158 NA
HETATM   19  C16 UNL     1      23.958   3.415  50.085  1.00  0.00     0.281 C 
HETATM   20  O2  UNL     1      23.712   4.397  49.105  1.00  0.00    -0.302 OA
HETATM   21  H9  UNL     1      26.247   4.171  51.607  1.00  0.00     0.159 HD
HETATM   22  H11 UNL     1      27.194   0.856  53.287  1.00  0.00     0.161 HD
ENDROOT
BRANCH   1  23
HETATM   23  O1  UNL     1      27.181   8.658  48.338  1.00  0.00    -0.356 OA
HETATM   24  C1  UNL     1      28.460   8.715  48.891  1.00  0.00     0.210 C 
ENDBRANCH   1  23
TORSDOF 1
ENDMDL
MODEL 7
REMARK VINA RESULT:      -7.4      8.386     10.966
REMARK  1 active torsions:
REMARK  status: ('A' for Active; 'I' for Inactive)
REMARK    1  A    between atoms: O1_2  and  C2_3 
ROOT
HETATM    1  C2  UNL     1      25.540   6.171  49.724  1.00  0.00     0.069 A 
HETATM    2  C3  UNL     1      25.810   4.820  49.690  1.00  0.00     0.039 A 
HETATM    3  C4  UNL     1      26.987   4.417  49.101  1.00  0.00     0.040 A 
HETATM    4  C5  UNL     1      27.885   5.300  48.556  1.00  0.00     0.085 A 
HETATM    5  C6  UNL     1      27.637   6.677  48.577  1.00  0.00    -0.004 A 
HETATM    6  C7  UNL     1      26.453   7.039  49.174  1.00  0.00     0.048 A 
HETATM    7  C8  UNL     1      28.616   7.622  47.979  1.00  0.00     0.160 C 
HETATM    8  N1  UNL     1      29.768   7.860  48.839  1.00  0.00    -0.391 N 
HETATM    9  C9  UNL     1      31.032   8.506  48.757  1.00  0.00     0.133 C 
HETATM   10  C10 UNL     1      32.162   7.844  48.483  1.00  0.00     0.136 C 
HETATM   11  N2  UNL     1      33.266   8.732  48.462  1.00  0.00    -0.370 N 
HETATM   12  C11 UNL     1      34.603   8.592  47.863  1.00  0.00     0.148 C 
HETATM   13  C12 UNL     1      35.138   7.250  48.221  1.00  0.00    -0.009 C 
HETATM   14  C13 UNL     1      34.707   6.048  48.502  1.00  0.00    -0.003 C 
HETATM   15  C14 UNL     1      33.339   5.508  48.577  1.00  0.00     0.130 C 
HETATM   16  C15 UNL     1      33.307   4.306  47.627  1.00  0.00     0.039 C 
HETATM   17  N3  UNL     1      32.299   6.448  48.239  1.00  0.00    -0.243 N 
HETATM   18  N4  UNL     1      31.174   5.999  47.544  1.00  0.00    -0.158 NA
HETATM   19  C16 UNL     1      30.251   5.316  48.125  1.00  0.00     0.281 C 
HETATM   20  O2  UNL     1      29.016   4.648  48.014  1.00  0.00    -0.302 OA
HETATM   21  H9  UNL     1      29.935   7.579  49.830  1.00  0.00     0.159 HD
HETATM   22  H11 UNL     1      33.054   9.640  48.976  1.00  0.00     0.161 HD
ENDROOT
BRANCH   1  23
HETATM   23  O1  UNL     1      24.392   6.705  50.287  1.00  0.00    -0.356 OA
HETATM   24  C1  UNL     1      24.202   8.064  50.541  1.00  0.00     0.210 C 
ENDBRANCH   1  23
TORSDOF 1
ENDMDL
MODEL 8
REMARK VINA RESULT:      -7.1      4.045      7.469
REMARK  1 active torsions:
REMARK  status: ('A' for Active; 'I' for Inactive)
REMARK    1  A    between atoms: O1_2  and  C2_3 
ROOT
HETATM    1  C2  UNL     1      26.175   0.746  53.357  1.00  0.00     0.069 A 
HETATM    2  C3  UNL     1      25.186  -0.184  53.120  1.00  0.00     0.039 A 
HETATM    3  C4  UNL     1      23.903   0.278  52.940  1.00  0.00     0.040 A 
HETATM    4  C5  UNL     1      23.579   1.610  52.989  1.00  0.00     0.085 A 
HETATM    5  C6  UNL     1      24.562   2.578  53.227  1.00  0.00    -0.004 A 
HETATM    6  C7  UNL     1      25.830   2.077  53.401  1.00  0.00     0.048 A 
HETATM    7  C8  UNL     1      24.198   4.017  53.283  1.00  0.00     0.160 C 
HETATM    8  N1  UNL     1      24.006   4.601  51.961  1.00  0.00    -0.391 N 
HETATM    9  C9  UNL     1      23.528   5.820  51.405  1.00  0.00     0.133 C 
HETATM   10  C10 UNL     1      22.273   5.966  50.964  1.00  0.00     0.136 C 
HETATM   11  N2  UNL     1      22.071   7.277  50.464  1.00  0.00    -0.370 N 
HETATM   12  C11 UNL     1      20.834   8.037  50.230  1.00  0.00     0.148 C 
HETATM   13  C12 UNL     1      19.867   7.154  49.522  1.00  0.00    -0.009 C 
HETATM   14  C13 UNL     1      19.574   5.885  49.413  1.00  0.00    -0.003 C 
HETATM   15  C14 UNL     1      20.177   4.698  50.041  1.00  0.00     0.130 C 
HETATM   16  C15 UNL     1      19.032   3.965  50.747  1.00  0.00     0.039 C 
HETATM   17  N3  UNL     1      21.243   4.983  50.970  1.00  0.00    -0.243 N 
HETATM   18  N4  UNL     1      21.372   4.201  52.120  1.00  0.00    -0.158 NA
HETATM   19  C16 UNL     1      21.848   3.005  52.071  1.00  0.00     0.281 C 
HETATM   20  O2  UNL     1      22.200   1.836  52.773  1.00  0.00    -0.302 OA
HETATM   21  H9  UNL     1      24.209   4.207  51.017  1.00  0.00     0.159 HD
HETATM   22  H11 UNL     1      22.992   7.757  50.229  1.00  0.00     0.161 HD
ENDROOT
BRANCH   1  23
HETATM   23  O1  UNL     1      27.505   0.413  53.554  1.00  0.00    -0.356 OA
HETATM   24  C1  UNL     1      28.076   0.167  54.803  1.00  0.00     0.210 C 
ENDBRANCH   1  23
TORSDOF 1
ENDMDL
MODEL 9
REMARK VINA RESULT:      -7.0      3.337      7.141
REMARK  1 active torsions:
REMARK  status: ('A' for Active; 'I' for Inactive)
REMARK    1  A    between atoms: O1_2  and  C2_3 
ROOT
HETATM    1  C2  UNL     1      25.285   6.099  48.641  1.00  0.00     0.069 A 
HETATM    2  C3  UNL     1      26.409   5.302  48.627  1.00  0.00     0.039 A 
HETATM    3  C4  UNL     1      26.528   4.346  49.609  1.00  0.00     0.040 A 
HETATM    4  C5  UNL     1      25.581   4.161  50.585  1.00  0.00     0.085 A 
HETATM    5  C6  UNL     1      24.429   4.955  50.624  1.00  0.00    -0.004 A 
HETATM    6  C7  UNL     1      24.347   5.898  49.627  1.00  0.00     0.048 A 
HETATM    7  C8  UNL     1      23.414   4.749  51.689  1.00  0.00     0.160 C 
HETATM    8  N1  UNL     1      22.559   3.597  51.438  1.00  0.00    -0.391 N 
HETATM    9  C9  UNL     1      21.566   2.848  52.128  1.00  0.00     0.133 C 
HETATM   10  C10 UNL     1      21.844   1.711  52.776  1.00  0.00     0.136 C 
HETATM   11  N2  UNL     1      20.673   1.179  53.372  1.00  0.00    -0.370 N 
HETATM   12  C11 UNL     1      20.505   0.206  54.462  1.00  0.00     0.148 C 
HETATM   13  C12 UNL     1      21.418  -0.943  54.210  1.00  0.00    -0.009 C 
HETATM   14  C13 UNL     1      22.562  -1.196  53.632  1.00  0.00    -0.003 C 
HETATM   15  C14 UNL     1      23.499  -0.313  52.917  1.00  0.00     0.130 C 
HETATM   16  C15 UNL     1      24.853  -0.481  53.613  1.00  0.00     0.039 C 
HETATM   17  N3  UNL     1      23.114   1.077  52.888  1.00  0.00    -0.243 N 
HETATM   18  N4  UNL     1      24.102   2.060  52.979  1.00  0.00    -0.158 NA
HETATM   19  C16 UNL     1      24.869   2.338  51.982  1.00  0.00     0.281 C 
HETATM   20  O2  UNL     1      25.926   3.120  51.477  1.00  0.00    -0.302 OA
HETATM   21  H9  UNL     1      22.471   2.999  50.587  1.00  0.00     0.159 HD
HETATM   22  H11 UNL     1      19.789   1.573  52.928  1.00  0.00     0.161 HD
ENDROOT
BRANCH   1  23
HETATM   23  O1  UNL     1      25.045   7.097  47.711  1.00  0.00    -0.356 OA
HETATM   24  C1  UNL     1      23.800   7.350  47.134  1.00  0.00     0.210 C 
ENDBRANCH   1  23
TORSDOF 1
ENDMDL
