MODEL 1
REMARK VINA RESULT:      -8.7      0.000      0.000
REMARK  7 active torsions:
REMARK  status: ('A' for Active; 'I' for Inactive)
REMARK    1  A    between atoms: O1_2  and  C2_3 
REMARK    2  A    between atoms: C6_9  and  N3_10 
REMARK    3  A    between atoms: N3_10  and  C7_11 
REMARK    4  A    between atoms: C15_21  and  C16_22 
REMARK    5  A    between atoms: C16_22  and  C17_23 
REMARK    6  A    between atoms: C17_23  and  C18_24 
REMARK    7  A    between atoms: C18_24  and  N4_25 
ROOT
HETATM    1  C2  UNL     1      19.578  -0.118  52.256  1.00  0.00     0.076 A 
HETATM    2  C3  UNL     1      19.939  -0.698  53.452  1.00  0.00     0.070 A 
HETATM    3  C4  UNL     1      21.263  -0.754  53.824  1.00  0.00     0.074 A 
HETATM    4  N1  UNL     1      21.528  -1.348  55.020  1.00  0.00    -0.241 NA
HETATM    5  C5  UNL     1      22.809  -1.437  55.443  1.00  0.00     0.236 A 
HETATM    6  N2  UNL     1      23.731  -0.932  54.652  1.00  0.00    -0.224 NA
HETATM    7  C6  UNL     1      23.601  -0.335  53.477  1.00  0.00     0.142 A 
HETATM    8  C13 UNL     1      22.302  -0.251  53.060  1.00  0.00     0.039 A 
HETATM    9  C14 UNL     1      21.878   0.314  51.881  1.00  0.00     0.027 A 
HETATM   10  C15 UNL     1      20.567   0.402  51.450  1.00  0.00    -0.024 A 
ENDROOT
BRANCH   7  11
HETATM   11  N3  UNL     1      24.626   0.192  52.663  1.00  0.00    -0.340 N 
HETATM   12  H6  UNL     1      24.431   0.729  51.806  1.00  0.00     0.167 HD
BRANCH  11  13
HETATM   13  C7  UNL     1      26.020   0.080  52.871  1.00  0.00     0.035 A 
HETATM   14  C8  UNL     1      26.702  -1.110  52.771  1.00  0.00     0.032 A 
HETATM   15  C9  UNL     1      28.064  -1.245  52.979  1.00  0.00     0.046 A 
HETATM   16  C10 UNL     1      28.802  -0.136  53.309  1.00  0.00     0.138 A 
HETATM   17  F1  UNL     1      30.139  -0.169  53.531  1.00  0.00    -0.204 F 
HETATM   18  C11 UNL     1      28.194   1.095  53.431  1.00  0.00     0.074 A 
HETATM   19 CL1  UNL     1      29.067   2.550  53.849  1.00  0.00    -0.081 Cl
HETATM   20  C12 UNL     1      26.837   1.135  53.205  1.00  0.00     0.056 A 
ENDBRANCH  11  13
ENDBRANCH   7  11
BRANCH  10  21
HETATM   21  C16 UNL     1      20.267   1.044  50.128  1.00  0.00     0.043 C 
BRANCH  21  22
HETATM   22  C17 UNL     1      21.508   1.212  49.305  1.00  0.00     0.024 C 
BRANCH  22  23
HETATM   23  C18 UNL     1      21.891   2.607  48.979  1.00  0.00     0.117 C 
BRANCH  23  24
HETATM   24  N4  UNL     1      22.775   3.288  49.803  1.00  0.00    -0.408 N 
HETATM   25  C19 UNL     1      22.341   4.231  50.736  1.00  0.00     0.143 C 
HETATM   26  C20 UNL     1      23.013   3.901  52.078  1.00  0.00     0.187 C 
HETATM   27  O2  UNL     1      24.081   3.038  51.935  1.00  0.00    -0.388 OA
HETATM   28  C21 UNL     1      24.906   3.368  50.862  1.00  0.00     0.187 C 
HETATM   29  C22 UNL     1      24.164   3.195  49.542  1.00  0.00     0.143 C 
ENDBRANCH  23  24
ENDBRANCH  22  23
ENDBRANCH  21  22
ENDBRANCH  10  21
BRANCH   1  30
HETATM   30  O1  UNL     1      18.263  -0.035  51.836  1.00  0.00    -0.355 OA
HETATM   31  C1  UNL     1      17.218  -0.824  52.378  1.00  0.00     0.210 C 
ENDBRANCH   1  30
TORSDOF 7
ENDMDL
MODEL 2
REMARK VINA RESULT:      -8.0      3.081      5.680
REMARK  7 active torsions:
REMARK  status: ('A' for Active; 'I' for Inactive)
REMARK    1  A    between atoms: O1_2  and  C2_3 
REMARK    2  A    between atoms: C6_9  and  N3_10 
REMARK    3  A    between atoms: N3_10  and  C7_11 
REMARK    4  A    between atoms: C15_21  and  C16_22 
REMARK    5  A    between atoms: C16_22  and  C17_23 
REMARK    6  A    between atoms: C17_23  and  C18_24 
REMARK    7  A    between atoms: C18_24  and  N4_25 
ROOT
HETATM    1  C2  UNL     1      21.424   0.498  52.634  1.00  0.00     0.076 A 
HETATM    2  C3  UNL     1      20.531   1.374  52.059  1.00  0.00     0.070 A 
HETATM    3  C4  UNL     1      20.935   2.639  51.699  1.00  0.00     0.074 A 
HETATM    4  N1  UNL     1      19.984   3.439  51.141  1.00  0.00    -0.241 NA
HETATM    5  C5  UNL     1      20.315   4.695  50.767  1.00  0.00     0.236 A 
HETATM    6  N2  UNL     1      21.561   5.066  50.973  1.00  0.00    -0.224 NA
HETATM    7  C6  UNL     1      22.568   4.388  51.501  1.00  0.00     0.142 A 
HETATM    8  C13 UNL     1      22.221   3.120  51.876  1.00  0.00     0.039 A 
HETATM    9  C14 UNL     1      23.063   2.200  52.453  1.00  0.00     0.027 A 
HETATM   10  C15 UNL     1      22.721   0.917  52.837  1.00  0.00    -0.024 A 
ENDROOT
BRANCH   7  11
HETATM   11  N3  UNL     1      23.892   4.832  51.702  1.00  0.00    -0.340 N 
HETATM   12  H6  UNL     1      24.216   5.219  52.600  1.00  0.00     0.167 HD
BRANCH  11  13
HETATM   13  C7  UNL     1      24.945   4.823  50.759  1.00  0.00     0.035 A 
HETATM   14  C8  UNL     1      25.679   3.699  50.463  1.00  0.00     0.032 A 
HETATM   15  C9  UNL     1      26.720   3.668  49.550  1.00  0.00     0.046 A 
HETATM   16  C10 UNL     1      27.061   4.821  48.888  1.00  0.00     0.138 A 
HETATM   17  F1  UNL     1      28.063   4.888  47.978  1.00  0.00    -0.204 F 
HETATM   18  C11 UNL     1      26.375   5.991  49.127  1.00  0.00     0.074 A 
HETATM   19 CL1  UNL     1      26.752   7.497  48.324  1.00  0.00    -0.081 Cl
HETATM   20  C12 UNL     1      25.355   5.928  50.050  1.00  0.00     0.056 A 
ENDBRANCH  11  13
ENDBRANCH   7  11
BRANCH  10  21
HETATM   21  C16 UNL     1      23.759   0.033  53.464  1.00  0.00     0.043 C 
BRANCH  21  22
HETATM   22  C17 UNL     1      25.044   0.066  52.695  1.00  0.00     0.024 C 
BRANCH  22  23
HETATM   23  C18 UNL     1      26.232  -0.495  53.385  1.00  0.00     0.117 C 
BRANCH  23  24
HETATM   24  N4  UNL     1      27.457   0.145  53.273  1.00  0.00    -0.408 N 
HETATM   25  C19 UNL     1      27.588   1.390  52.656  1.00  0.00     0.143 C 
HETATM   26  C20 UNL     1      28.407   2.291  53.594  1.00  0.00     0.187 C 
HETATM   27  O2  UNL     1      29.067   1.573  54.570  1.00  0.00    -0.388 OA
HETATM   28  C21 UNL     1      29.681   0.423  54.079  1.00  0.00     0.187 C 
HETATM   29  C22 UNL     1      28.636  -0.573  53.587  1.00  0.00     0.143 C 
ENDBRANCH  23  24
ENDBRANCH  22  23
ENDBRANCH  21  22
ENDBRANCH  10  21
BRANCH   1  30
HETATM   30  O1  UNL     1      21.070  -0.784  53.014  1.00  0.00    -0.355 OA
HETATM   31  C1  UNL     1      20.027  -1.068  53.930  1.00  0.00     0.210 C 
ENDBRANCH   1  30
TORSDOF 7
ENDMDL
MODEL 3
REMARK VINA RESULT:      -7.9      3.449      5.318
REMARK  7 active torsions:
REMARK  status: ('A' for Active; 'I' for Inactive)
REMARK    1  A    between atoms: O1_2  and  C2_3 
REMARK    2  A    between atoms: C6_9  and  N3_10 
REMARK    3  A    between atoms: N3_10  and  C7_11 
REMARK    4  A    between atoms: C15_21  and  C16_22 
REMARK    5  A    between atoms: C16_22  and  C17_23 
REMARK    6  A    between atoms: C17_23  and  C18_24 
REMARK    7  A    between atoms: C18_24  and  N4_25 
ROOT
HETATM    1  C2  UNL     1      23.102   0.141  52.999  1.00  0.00     0.076 A 
HETATM    2  C3  UNL     1      24.365   0.268  53.531  1.00  0.00     0.070 A 
HETATM    3  C4  UNL     1      25.315   1.030  52.891  1.00  0.00     0.074 A 
HETATM    4  N1  UNL     1      26.537   1.095  53.487  1.00  0.00    -0.241 NA
HETATM    5  C5  UNL     1      27.516   1.827  52.909  1.00  0.00     0.236 A 
HETATM    6  N2  UNL     1      27.212   2.438  51.784  1.00  0.00    -0.224 NA
HETATM    7  C6  UNL     1      26.072   2.453  51.111  1.00  0.00     0.142 A 
HETATM    8  C13 UNL     1      25.090   1.709  51.706  1.00  0.00     0.039 A 
HETATM    9  C14 UNL     1      23.814   1.545  51.226  1.00  0.00     0.027 A 
HETATM   10  C15 UNL     1      22.815   0.794  51.819  1.00  0.00    -0.024 A 
ENDROOT
BRANCH   7  11
HETATM   11  N3  UNL     1      25.795   3.127  49.903  1.00  0.00    -0.340 N 
HETATM   12  H6  UNL     1      25.283   2.684  49.127  1.00  0.00     0.167 HD
BRANCH  11  13
HETATM   13  C7  UNL     1      26.151   4.453  49.568  1.00  0.00     0.035 A 
HETATM   14  C8  UNL     1      27.237   4.764  48.784  1.00  0.00     0.032 A 
HETATM   15  C9  UNL     1      27.611   6.055  48.451  1.00  0.00     0.046 A 
HETATM   16  C10 UNL     1      26.866   7.107  48.921  1.00  0.00     0.138 A 
HETATM   17  F1  UNL     1      27.153   8.404  48.647  1.00  0.00    -0.204 F 
HETATM   18  C11 UNL     1      25.762   6.882  49.713  1.00  0.00     0.074 A 
HETATM   19 CL1  UNL     1      24.767   8.170  50.349  1.00  0.00    -0.081 Cl
HETATM   20  C12 UNL     1      25.466   5.567  49.993  1.00  0.00     0.056 A 
ENDBRANCH  11  13
ENDBRANCH   7  11
BRANCH  10  21
HETATM   21  C16 UNL     1      21.469   0.707  51.163  1.00  0.00     0.043 C 
BRANCH  21  22
HETATM   22  C17 UNL     1      21.574   0.846  49.675  1.00  0.00     0.024 C 
BRANCH  22  23
HETATM   23  C18 UNL     1      20.610   1.775  49.036  1.00  0.00     0.117 C 
BRANCH  23  24
HETATM   24  N4  UNL     1      20.146   2.875  49.742  1.00  0.00    -0.408 N 
HETATM   25  C19 UNL     1      18.793   3.047  50.039  1.00  0.00     0.143 C 
HETATM   26  C20 UNL     1      18.684   3.384  51.534  1.00  0.00     0.187 C 
HETATM   27  O2  UNL     1      19.894   3.762  52.079  1.00  0.00    -0.388 OA
HETATM   28  C21 UNL     1      20.603   4.645  51.268  1.00  0.00     0.187 C 
HETATM   29  C22 UNL     1      21.024   3.962  49.972  1.00  0.00     0.143 C 
ENDBRANCH  23  24
ENDBRANCH  22  23
ENDBRANCH  21  22
ENDBRANCH  10  21
BRANCH   1  30
HETATM   30  O1  UNL     1      22.111  -0.612  53.602  1.00  0.00    -0.355 OA
HETATM   31  C1  UNL     1      22.172  -1.049  54.948  1.00  0.00     0.210 C 
ENDBRANCH   1  30
TORSDOF 7
ENDMDL
MODEL 4
REMARK VINA RESULT:      -7.8      5.845      8.966
REMARK  7 active torsions:
REMARK  status: ('A' for Active; 'I' for Inactive)
REMARK    1  A    between atoms: O1_2  and  C2_3 
REMARK    2  A    between atoms: C6_9  and  N3_10 
REMARK    3  A    between atoms: N3_10  and  C7_11 
REMARK    4  A    between atoms: C15_21  and  C16_22 
REMARK    5  A    between atoms: C16_22  and  C17_23 
REMARK    6  A    between atoms: C17_23  and  C18_24 
REMARK    7  A    between atoms: C18_24  and  N4_25 
ROOT
HETATM    1  C2  UNL     1      25.555   5.454  49.406  1.00  0.00     0.076 A 
HETATM    2  C3  UNL     1      25.908   6.689  48.909  1.00  0.00     0.070 A 
HETATM    3  C4  UNL     1      27.154   6.886  48.360  1.00  0.00     0.074 A 
HETATM    4  N1  UNL     1      27.416   8.139  47.898  1.00  0.00    -0.241 NA
HETATM    5  C5  UNL     1      28.624   8.400  47.348  1.00  0.00     0.236 A 
HETATM    6  N2  UNL     1      29.480   7.402  47.296  1.00  0.00    -0.224 NA
HETATM    7  C6  UNL     1      29.344   6.151  47.708  1.00  0.00     0.142 A 
HETATM    8  C13 UNL     1      28.120   5.899  48.262  1.00  0.00     0.039 A 
HETATM    9  C14 UNL     1      27.709   4.692  48.773  1.00  0.00     0.027 A 
HETATM   10  C15 UNL     1      26.475   4.429  49.337  1.00  0.00    -0.024 A 
ENDROOT
BRANCH   7  11
HETATM   11  N3  UNL     1      30.296   5.113  47.631  1.00  0.00    -0.340 N 
HETATM   12  H6  UNL     1      30.051   4.157  47.332  1.00  0.00     0.167 HD
BRANCH  11  13
HETATM   13  C7  UNL     1      31.675   5.199  47.931  1.00  0.00     0.035 A 
HETATM   14  C8  UNL     1      32.194   6.101  48.830  1.00  0.00     0.032 A 
HETATM   15  C9  UNL     1      33.540   6.210  49.133  1.00  0.00     0.046 A 
HETATM   16  C10 UNL     1      34.434   5.377  48.509  1.00  0.00     0.138 A 
HETATM   17  F1  UNL     1      35.770   5.409  48.741  1.00  0.00    -0.204 F 
HETATM   18  C11 UNL     1      33.996   4.445  47.594  1.00  0.00     0.074 A 
HETATM   19 CL1  UNL     1      35.075   3.352  46.759  1.00  0.00    -0.081 Cl
HETATM   20  C12 UNL     1      32.642   4.408  47.355  1.00  0.00     0.056 A 
ENDBRANCH  11  13
ENDBRANCH   7  11
BRANCH  10  21
HETATM   21  C16 UNL     1      26.180   3.054  49.860  1.00  0.00     0.043 C 
BRANCH  21  22
HETATM   22  C17 UNL     1      26.707   2.872  51.251  1.00  0.00     0.024 C 
BRANCH  22  23
HETATM   23  C18 UNL     1      26.698   1.484  51.776  1.00  0.00     0.117 C 
BRANCH  23  24
HETATM   24  N4  UNL     1      27.095   1.242  53.083  1.00  0.00    -0.408 N 
HETATM   25  C19 UNL     1      26.198   1.298  54.151  1.00  0.00     0.143 C 
HETATM   26  C20 UNL     1      26.390   0.022  54.986  1.00  0.00     0.187 C 
HETATM   27  O2  UNL     1      27.570  -0.629  54.690  1.00  0.00    -0.388 OA
HETATM   28  C21 UNL     1      28.655   0.237  54.575  1.00  0.00     0.187 C 
HETATM   29  C22 UNL     1      28.478   1.160  53.375  1.00  0.00     0.143 C 
ENDBRANCH  23  24
ENDBRANCH  22  23
ENDBRANCH  21  22
ENDBRANCH  10  21
BRANCH   1  30
HETATM   30  O1  UNL     1      24.317   5.202  49.967  1.00  0.00    -0.355 OA
HETATM   31  C1  UNL     1      23.751   5.993  50.998  1.00  0.00     0.210 C 
ENDBRANCH   1  30
TORSDOF 7
ENDMDL
MODEL 5
REMARK VINA RESULT:      -7.7      1.700      2.147
REMARK  7 active torsions:
REMARK  status: ('A' for Active; 'I' for Inactive)
REMARK    1  A    between atoms: O1_2  and  C2_3 
REMARK    2  A    between atoms: C6_9  and  N3_10 
REMARK    3  A    between atoms: N3_10  and  C7_11 
REMARK    4  A    between atoms: C15_21  and  C16_22 
REMARK    5  A    between atoms: C16_22  and  C17_23 
REMARK    6  A    between atoms: C17_23  and  C18_24 
REMARK    7  A    between atoms: C18_24  and  N4_25 
ROOT
HETATM    1  C2  UNL     1      19.224  -0.204  52.368  1.00  0.00     0.076 A 
HETATM    2  C3  UNL     1      19.676  -0.861  53.491  1.00  0.00     0.070 A 
HETATM    3  C4  UNL     1      21.014  -0.849  53.810  1.00  0.00     0.074 A 
HETATM    4  N1  UNL     1      21.371  -1.527  54.936  1.00  0.00    -0.241 NA
HETATM    5  C5  UNL     1      22.672  -1.557  55.305  1.00  0.00     0.236 A 
HETATM    6  N2  UNL     1      23.521  -0.914  54.532  1.00  0.00    -0.224 NA
HETATM    7  C6  UNL     1      23.300  -0.225  53.424  1.00  0.00     0.142 A 
HETATM    8  C13 UNL     1      21.982  -0.203  53.061  1.00  0.00     0.039 A 
HETATM    9  C14 UNL     1      21.470   0.433  51.955  1.00  0.00     0.027 A 
HETATM   10  C15 UNL     1      20.140   0.459  51.580  1.00  0.00    -0.024 A 
ENDROOT
BRANCH   7  11
HETATM   11  N3  UNL     1      24.250   0.449  52.627  1.00  0.00    -0.340 N 
HETATM   12  H6  UNL     1      24.009   0.876  51.720  1.00  0.00     0.167 HD
BRANCH  11  13
HETATM   13  C7  UNL     1      25.619   0.646  52.919  1.00  0.00     0.035 A 
HETATM   14  C8  UNL     1      26.156   1.878  53.209  1.00  0.00     0.032 A 
HETATM   15  C9  UNL     1      27.494   2.097  53.489  1.00  0.00     0.046 A 
HETATM   16  C10 UNL     1      28.360   1.033  53.479  1.00  0.00     0.138 A 
HETATM   17  F1  UNL     1      29.686   1.148  53.740  1.00  0.00    -0.204 F 
HETATM   18  C11 UNL     1      27.903  -0.236  53.196  1.00  0.00     0.074 A 
HETATM   19 CL1  UNL     1      28.945  -1.638  53.164  1.00  0.00    -0.081 Cl
HETATM   20  C12 UNL     1      26.558  -0.359  52.931  1.00  0.00     0.056 A 
ENDBRANCH  11  13
ENDBRANCH   7  11
BRANCH  10  21
HETATM   21  C16 UNL     1      19.739   1.194  50.334  1.00  0.00     0.043 C 
BRANCH  21  22
HETATM   22  C17 UNL     1      18.908   2.399  50.652  1.00  0.00     0.024 C 
BRANCH  22  23
HETATM   23  C18 UNL     1      19.538   3.414  51.530  1.00  0.00     0.117 C 
BRANCH  23  24
HETATM   24  N4  UNL     1      20.571   4.201  51.040  1.00  0.00    -0.408 N 
HETATM   25  C19 UNL     1      20.467   4.887  49.829  1.00  0.00     0.143 C 
HETATM   26  C20 UNL     1      20.911   6.337  50.078  1.00  0.00     0.187 C 
HETATM   27  O2  UNL     1      21.597   6.482  51.266  1.00  0.00    -0.388 OA
HETATM   28  C21 UNL     1      22.534   5.474  51.480  1.00  0.00     0.187 C 
HETATM   29  C22 UNL     1      21.841   4.128  51.662  1.00  0.00     0.143 C 
ENDBRANCH  23  24
ENDBRANCH  22  23
ENDBRANCH  21  22
ENDBRANCH  10  21
BRANCH   1  30
HETATM   30  O1  UNL     1      17.891  -0.184  52.003  1.00  0.00    -0.355 OA
HETATM   31  C1  UNL     1      16.875  -0.868  52.715  1.00  0.00     0.210 C 
ENDBRANCH   1  30
TORSDOF 7
ENDMDL
MODEL 6
REMARK VINA RESULT:      -7.7      3.808      6.259
REMARK  7 active torsions:
REMARK  status: ('A' for Active; 'I' for Inactive)
REMARK    1  A    between atoms: O1_2  and  C2_3 
REMARK    2  A    between atoms: C6_9  and  N3_10 
REMARK    3  A    between atoms: N3_10  and  C7_11 
REMARK    4  A    between atoms: C15_21  and  C16_22 
REMARK    5  A    between atoms: C16_22  and  C17_23 
REMARK    6  A    between atoms: C17_23  and  C18_24 
REMARK    7  A    between atoms: C18_24  and  N4_25 
ROOT
HETATM    1  C2  UNL     1      27.078   0.573  53.468  1.00  0.00     0.076 A 
HETATM    2  C3  UNL     1      26.553  -0.088  54.556  1.00  0.00     0.070 A 
HETATM    3  C4  UNL     1      25.236  -0.486  54.557  1.00  0.00     0.074 A 
HETATM    4  N1  UNL     1      24.803  -1.130  55.675  1.00  0.00    -0.241 NA
HETATM    5  C5  UNL     1      23.517  -1.546  55.742  1.00  0.00     0.236 A 
HETATM    6  N2  UNL     1      22.758  -1.294  54.696  1.00  0.00    -0.224 NA
HETATM    7  C6  UNL     1      23.060  -0.683  53.561  1.00  0.00     0.142 A 
HETATM    8  C13 UNL     1      24.361  -0.266  53.507  1.00  0.00     0.039 A 
HETATM    9  C14 UNL     1      24.943   0.396  52.453  1.00  0.00     0.027 A 
HETATM   10  C15 UNL     1      26.257   0.822  52.389  1.00  0.00    -0.024 A 
ENDROOT
BRANCH   7  11
HETATM   11  N3  UNL     1      22.207  -0.435  52.465  1.00  0.00    -0.340 N 
HETATM   12  H6  UNL     1      22.137  -1.076  51.662  1.00  0.00     0.167 HD
BRANCH  11  13
HETATM   13  C7  UNL     1      21.347   0.674  52.290  1.00  0.00     0.035 A 
HETATM   14  C8  UNL     1      19.996   0.548  52.062  1.00  0.00     0.032 A 
HETATM   15  C9  UNL     1      19.136   1.618  51.878  1.00  0.00     0.046 A 
HETATM   16  C10 UNL     1      19.640   2.893  51.920  1.00  0.00     0.138 A 
HETATM   17  F1  UNL     1      18.877   4.002  51.753  1.00  0.00    -0.204 F 
HETATM   18  C11 UNL     1      20.983   3.106  52.144  1.00  0.00     0.074 A 
HETATM   19 CL1  UNL     1      21.696   4.700  52.210  1.00  0.00    -0.081 Cl
HETATM   20  C12 UNL     1      21.762   1.984  52.316  1.00  0.00     0.056 A 
ENDBRANCH  11  13
ENDBRANCH   7  11
BRANCH  10  21
HETATM   21  C16 UNL     1      26.740   1.543  51.165  1.00  0.00     0.043 C 
BRANCH  21  22
HETATM   22  C17 UNL     1      26.000   2.830  50.958  1.00  0.00     0.024 C 
BRANCH  22  23
HETATM   23  C18 UNL     1      26.558   3.746  49.934  1.00  0.00     0.117 C 
BRANCH  23  24
HETATM   24  N4  UNL     1      25.933   4.959  49.684  1.00  0.00    -0.408 N 
HETATM   25  C19 UNL     1      24.638   5.229  50.129  1.00  0.00     0.143 C 
HETATM   26  C20 UNL     1      24.661   6.601  50.820  1.00  0.00     0.187 C 
HETATM   27  O2  UNL     1      25.798   7.324  50.520  1.00  0.00    -0.388 OA
HETATM   28  C21 UNL     1      26.132   7.275  49.169  1.00  0.00     0.187 C 
HETATM   29  C22 UNL     1      26.526   5.858  48.765  1.00  0.00     0.143 C 
ENDBRANCH  23  24
ENDBRANCH  22  23
ENDBRANCH  21  22
ENDBRANCH  10  21
BRANCH   1  30
HETATM   30  O1  UNL     1      28.393   0.994  53.416  1.00  0.00    -0.355 OA
HETATM   31  C1  UNL     1      29.267   0.970  54.531  1.00  0.00     0.210 C 
ENDBRANCH   1  30
TORSDOF 7
ENDMDL
MODEL 7
REMARK VINA RESULT:      -7.6      1.787      2.154
REMARK  7 active torsions:
REMARK  status: ('A' for Active; 'I' for Inactive)
REMARK    1  A    between atoms: O1_2  and  C2_3 
REMARK    2  A    between atoms: C6_9  and  N3_10 
REMARK    3  A    between atoms: N3_10  and  C7_11 
REMARK    4  A    between atoms: C15_21  and  C16_22 
REMARK    5  A    between atoms: C16_22  and  C17_23 
REMARK    6  A    between atoms: C17_23  and  C18_24 
REMARK    7  A    between atoms: C18_24  and  N4_25 
ROOT
HETATM    1  C2  UNL     1      19.769   1.168  50.540  1.00  0.00     0.076 A 
HETATM    2  C3  UNL     1      19.498   0.936  51.870  1.00  0.00     0.070 A 
HETATM    3  C4  UNL     1      20.483   0.463  52.706  1.00  0.00     0.074 A 
HETATM    4  N1  UNL     1      20.124   0.259  54.004  1.00  0.00    -0.241 NA
HETATM    5  C5  UNL     1      21.045  -0.206  54.878  1.00  0.00     0.236 A 
HETATM    6  N2  UNL     1      22.250  -0.435  54.403  1.00  0.00    -0.224 NA
HETATM    7  C6  UNL     1      22.718  -0.277  53.174  1.00  0.00     0.142 A 
HETATM    8  C13 UNL     1      21.778   0.193  52.300  1.00  0.00     0.039 A 
HETATM    9  C14 UNL     1      21.986   0.445  50.965  1.00  0.00     0.027 A 
HETATM   10  C15 UNL     1      21.042   0.919  50.073  1.00  0.00    -0.024 A 
ENDROOT
BRANCH   7  11
HETATM   11  N3  UNL     1      24.025  -0.538  52.712  1.00  0.00    -0.340 N 
HETATM   12  H6  UNL     1      24.279  -1.414  52.233  1.00  0.00     0.167 HD
BRANCH  11  13
HETATM   13  C7  UNL     1      25.151   0.311  52.821  1.00  0.00     0.035 A 
HETATM   14  C8  UNL     1      26.003   0.295  53.900  1.00  0.00     0.032 A 
HETATM   15  C9  UNL     1      27.106   1.122  54.033  1.00  0.00     0.046 A 
HETATM   16  C10 UNL     1      27.385   2.024  53.037  1.00  0.00     0.138 A 
HETATM   17  F1  UNL     1      28.442   2.874  53.078  1.00  0.00    -0.204 F 
HETATM   18  C11 UNL     1      26.581   2.104  51.922  1.00  0.00     0.074 A 
HETATM   19 CL1  UNL     1      26.874   3.228  50.616  1.00  0.00    -0.081 Cl
HETATM   20  C12 UNL     1      25.508   1.244  51.876  1.00  0.00     0.056 A 
ENDBRANCH  11  13
ENDBRANCH   7  11
BRANCH  10  21
HETATM   21  C16 UNL     1      21.425   1.135  48.639  1.00  0.00     0.043 C 
BRANCH  21  22
HETATM   22  C17 UNL     1      22.447   2.222  48.502  1.00  0.00     0.024 C 
BRANCH  22  23
HETATM   23  C18 UNL     1      21.970   3.604  48.754  1.00  0.00     0.117 C 
BRANCH  23  24
HETATM   24  N4  UNL     1      22.210   4.200  49.984  1.00  0.00    -0.408 N 
HETATM   25  C19 UNL     1      21.173   4.642  50.807  1.00  0.00     0.143 C 
HETATM   26  C20 UNL     1      21.437   4.099  52.219  1.00  0.00     0.187 C 
HETATM   27  O2  UNL     1      22.733   3.651  52.378  1.00  0.00    -0.388 OA
HETATM   28  C21 UNL     1      23.678   4.516  51.831  1.00  0.00     0.187 C 
HETATM   29  C22 UNL     1      23.534   4.576  50.315  1.00  0.00     0.143 C 
ENDBRANCH  23  24
ENDBRANCH  22  23
ENDBRANCH  21  22
ENDBRANCH  10  21
BRANCH   1  30
HETATM   30  O1  UNL     1      18.816   1.642  49.657  1.00  0.00    -0.355 OA
HETATM   31  C1  UNL     1      18.128   2.868  49.835  1.00  0.00     0.210 C 
ENDBRANCH   1  30
TORSDOF 7
ENDMDL
MODEL 8
REMARK VINA RESULT:      -7.5      3.585      6.472
REMARK  7 active torsions:
REMARK  status: ('A' for Active; 'I' for Inactive)
REMARK    1  A    between atoms: O1_2  and  C2_3 
REMARK    2  A    between atoms: C6_9  and  N3_10 
REMARK    3  A    between atoms: N3_10  and  C7_11 
REMARK    4  A    between atoms: C15_21  and  C16_22 
REMARK    5  A    between atoms: C16_22  and  C17_23 
REMARK    6  A    between atoms: C17_23  and  C18_24 
REMARK    7  A    between atoms: C18_24  and  N4_25 
ROOT
HETATM    1  C2  UNL     1      21.569   1.090  50.645  1.00  0.00     0.076 A 
HETATM    2  C3  UNL     1      21.157   1.813  49.549  1.00  0.00     0.070 A 
HETATM    3  C4  UNL     1      21.926   2.850  49.072  1.00  0.00     0.074 A 
HETATM    4  N1  UNL     1      21.439   3.512  47.987  1.00  0.00    -0.241 NA
HETATM    5  C5  UNL     1      22.146   4.542  47.469  1.00  0.00     0.236 A 
HETATM    6  N2  UNL     1      23.281   4.840  48.065  1.00  0.00    -0.224 NA
HETATM    7  C6  UNL     1      23.856   4.277  49.117  1.00  0.00     0.142 A 
HETATM    8  C13 UNL     1      23.132   3.237  49.630  1.00  0.00     0.039 A 
HETATM    9  C14 UNL     1      23.489   2.479  50.719  1.00  0.00     0.027 A 
HETATM   10  C15 UNL     1      22.762   1.427  51.246  1.00  0.00    -0.024 A 
ENDROOT
BRANCH   7  11
HETATM   11  N3  UNL     1      25.080   4.635  49.721  1.00  0.00    -0.340 N 
HETATM   12  H6  UNL     1      25.276   4.463  50.718  1.00  0.00     0.167 HD
BRANCH  11  13
HETATM   13  C7  UNL     1      26.186   5.257  49.099  1.00  0.00     0.035 A 
HETATM   14  C8  UNL     1      27.398   4.631  48.921  1.00  0.00     0.032 A 
HETATM   15  C9  UNL     1      28.498   5.222  48.324  1.00  0.00     0.046 A 
HETATM   16  C10 UNL     1      28.398   6.514  47.874  1.00  0.00     0.138 A 
HETATM   17  F1  UNL     1      29.420   7.176  47.275  1.00  0.00    -0.204 F 
HETATM   18  C11 UNL     1      27.219   7.212  48.013  1.00  0.00     0.074 A 
HETATM   19 CL1  UNL     1      27.018   8.860  47.466  1.00  0.00    -0.081 Cl
HETATM   20  C12 UNL     1      26.179   6.545  48.619  1.00  0.00     0.056 A 
ENDBRANCH  11  13
ENDBRANCH   7  11
BRANCH  10  21
HETATM   21  C16 UNL     1      23.285   0.699  52.450  1.00  0.00     0.043 C 
BRANCH  21  22
HETATM   22  C17 UNL     1      24.613   1.241  52.885  1.00  0.00     0.024 C 
BRANCH  22  23
HETATM   23  C18 UNL     1      25.633   0.237  53.274  1.00  0.00     0.117 C 
BRANCH  23  24
HETATM   24  N4  UNL     1      26.979   0.562  53.201  1.00  0.00    -0.408 N 
HETATM   25  C19 UNL     1      27.425   1.741  52.601  1.00  0.00     0.143 C 
HETATM   26  C20 UNL     1      28.411   2.411  53.570  1.00  0.00     0.187 C 
HETATM   27  O2  UNL     1      28.850   1.550  54.555  1.00  0.00    -0.388 OA
HETATM   28  C21 UNL     1      29.181   0.288  54.066  1.00  0.00     0.187 C 
HETATM   29  C22 UNL     1      27.940  -0.423  53.536  1.00  0.00     0.143 C 
ENDBRANCH  23  24
ENDBRANCH  22  23
ENDBRANCH  21  22
ENDBRANCH  10  21
BRANCH   1  30
HETATM   30  O1  UNL     1      20.834   0.040  51.163  1.00  0.00    -0.355 OA
HETATM   31  C1  UNL     1      19.528   0.186  51.693  1.00  0.00     0.210 C 
ENDBRANCH   1  30
TORSDOF 7
ENDMDL
MODEL 9
REMARK VINA RESULT:      -7.5      2.946      3.741
REMARK  7 active torsions:
REMARK  status: ('A' for Active; 'I' for Inactive)
REMARK    1  A    between atoms: O1_2  and  C2_3 
REMARK    2  A    between atoms: C6_9  and  N3_10 
REMARK    3  A    between atoms: N3_10  and  C7_11 
REMARK    4  A    between atoms: C15_21  and  C16_22 
REMARK    5  A    between atoms: C16_22  and  C17_23 
REMARK    6  A    between atoms: C17_23  and  C18_24 
REMARK    7  A    between atoms: C18_24  and  N4_25 
ROOT
HETATM    1  C2  UNL     1      19.911  -0.897  53.450  1.00  0.00     0.076 A 
HETATM    2  C3  UNL     1      20.748  -1.330  54.455  1.00  0.00     0.070 A 
HETATM    3  C4  UNL     1      22.093  -1.044  54.409  1.00  0.00     0.074 A 
HETATM    4  N1  UNL     1      22.844  -1.516  55.443  1.00  0.00    -0.241 NA
HETATM    5  C5  UNL     1      24.174  -1.271  55.458  1.00  0.00     0.236 A 
HETATM    6  N2  UNL     1      24.660  -0.579  54.449  1.00  0.00    -0.224 NA
HETATM    7  C6  UNL     1      24.039  -0.071  53.396  1.00  0.00     0.142 A 
HETATM    8  C13 UNL     1      22.696  -0.325  53.392  1.00  0.00     0.039 A 
HETATM    9  C14 UNL     1      21.811   0.079  52.422  1.00  0.00     0.027 A 
HETATM   10  C15 UNL     1      20.452  -0.175  52.408  1.00  0.00    -0.024 A 
ENDROOT
BRANCH   7  11
HETATM   11  N3  UNL     1      24.608   0.667  52.337  1.00  0.00    -0.340 N 
HETATM   12  H6  UNL     1      25.182   0.228  51.601  1.00  0.00     0.167 HD
BRANCH  11  13
HETATM   13  C7  UNL     1      24.496   2.058  52.111  1.00  0.00     0.035 A 
HETATM   14  C8  UNL     1      23.993   2.933  53.046  1.00  0.00     0.032 A 
HETATM   15  C9  UNL     1      23.865   4.297  52.845  1.00  0.00     0.046 A 
HETATM   16  C10 UNL     1      24.256   4.833  51.644  1.00  0.00     0.138 A 
HETATM   17  F1  UNL     1      24.169   6.155  51.356  1.00  0.00    -0.204 F 
HETATM   18  C11 UNL     1      24.770   4.026  50.654  1.00  0.00     0.074 A 
HETATM   19 CL1  UNL     1      25.287   4.637  49.100  1.00  0.00    -0.081 Cl
HETATM   20  C12 UNL     1      24.861   2.683  50.942  1.00  0.00     0.056 A 
ENDBRANCH  11  13
ENDBRANCH   7  11
BRANCH  10  21
HETATM   21  C16 UNL     1      19.618   0.330  51.268  1.00  0.00     0.043 C 
BRANCH  21  22
HETATM   22  C17 UNL     1      20.409   0.395  49.997  1.00  0.00     0.024 C 
BRANCH  22  23
HETATM   23  C18 UNL     1      20.256   1.633  49.194  1.00  0.00     0.117 C 
BRANCH  23  24
HETATM   24  N4  UNL     1      19.975   2.833  49.830  1.00  0.00    -0.408 N 
HETATM   25  C19 UNL     1      18.737   3.466  49.703  1.00  0.00     0.143 C 
HETATM   26  C20 UNL     1      18.257   3.835  51.115  1.00  0.00     0.187 C 
HETATM   27  O2  UNL     1      19.271   3.777  52.049  1.00  0.00    -0.388 OA
HETATM   28  C21 UNL     1      20.458   4.352  51.600  1.00  0.00     0.187 C 
HETATM   29  C22 UNL     1      21.034   3.550  50.438  1.00  0.00     0.143 C 
ENDBRANCH  23  24
ENDBRANCH  22  23
ENDBRANCH  21  22
ENDBRANCH  10  21
BRANCH   1  30
HETATM   30  O1  UNL     1      18.554  -1.156  53.448  1.00  0.00    -0.355 OA
HETATM   31  C1  UNL     1      18.004  -2.446  53.657  1.00  0.00     0.210 C 
ENDBRANCH   1  30
TORSDOF 7
ENDMDL
