MODEL 1
REMARK VINA RESULT:      -8.1      0.000      0.000
REMARK  5 active torsions:
REMARK  status: ('A' for Active; 'I' for Inactive)
REMARK    1  A    between atoms: C2_2  and  C3_3 
REMARK    2  A    between atoms: C4_4  and  N1_5 
REMARK    3  A    between atoms: C4_4  and  C5_6 
REMARK    4  A    between atoms: C8_10  and  N3_11 
REMARK    5  A    between atoms: C15_18  and  C16_19 
ROOT
HETATM    1  N3  UNL     1      25.355   2.328  51.980  1.00  0.00    -0.157 N 
HETATM    2  C9  UNL     1      24.107   1.690  51.620  1.00  0.00     0.112 C 
HETATM    3  C10 UNL     1      23.703   0.798  52.539  1.00  0.00     0.004 C 
HETATM    4  C11 UNL     1      24.740   0.146  53.342  1.00  0.00     0.056 C 
HETATM    5  C12 UNL     1      25.483  -0.951  52.733  1.00  0.00    -0.018 C 
HETATM    6  C13 UNL     1      26.645  -1.613  52.539  1.00  0.00    -0.023 C 
HETATM    7  C14 UNL     1      28.011  -1.439  52.989  1.00  0.00     0.032 A 
HETATM    8  C15 UNL     1      28.857  -0.705  53.653  1.00  0.00     0.024 A 
HETATM    9  C18 UNL     1      28.748   0.769  53.954  1.00  0.00     0.070 A 
HETATM   10  O1  UNL     1      27.957   0.102  53.198  1.00  0.00     0.000 OA
HETATM   11  N4  UNL     1      28.347   2.152  54.005  1.00  0.00    -0.403 N 
HETATM   12  C19 UNL     1      27.296   2.754  53.208  1.00  0.00     0.173 C 
HETATM   13  C20 UNL     1      26.050   2.006  53.216  1.00  0.00     0.048 C 
HETATM   14  C21 UNL     1      25.583   1.137  54.067  1.00  0.00     0.013 C 
HETATM   15  H18 UNL     1      29.123   1.750  54.609  1.00  0.00     0.186 HD
ENDROOT
BRANCH   1  16
HETATM   16  C8  UNL     1      25.769   3.257  50.958  1.00  0.00     0.733 A 
HETATM   17  N2  UNL     1      26.739   3.176  50.039  1.00  0.00    -0.074 NA
HETATM   18  C7  UNL     1      27.006   4.137  49.158  1.00  0.00     0.139 A 
HETATM   19  C6  UNL     1      26.200   5.271  49.241  1.00  0.00     0.054 A 
HETATM   20  C5  UNL     1      25.193   5.393  50.171  1.00  0.00     0.103 A 
HETATM   21  N5  UNL     1      25.022   4.374  50.993  1.00  0.00    -0.060 NA
BRANCH  20  22
HETATM   22  C4  UNL     1      24.346   6.572  50.268  1.00  0.00     0.055 C 
HETATM   23  C3  UNL     1      23.667   7.093  49.266  1.00  0.00     0.027 C 
BRANCH  23  24
HETATM   24  C2  UNL     1      23.194   7.195  47.896  1.00  0.00    -0.024 C 
HETATM   25  C1  UNL     1      23.083   7.029  46.598  1.00  0.00     0.031 C 
ENDBRANCH  23  24
BRANCH  22  26
HETATM   26  N1  UNL     1      24.189   7.263  51.496  1.00  0.00    -0.397 N 
HETATM   27  H5  UNL     1      23.273   6.960  51.873  1.00  0.00     0.156 HD
HETATM   28  H6  UNL     1      24.933   7.925  51.846  1.00  0.00     0.156 HD
ENDBRANCH  22  26
ENDBRANCH  20  22
ENDBRANCH   1  16
BRANCH   8  29
HETATM   29  C16 UNL     1      30.279  -1.036  53.851  1.00  0.00    -0.023 C 
HETATM   30  C17 UNL     1      30.693  -2.219  54.225  1.00  0.00     0.008 C 
ENDBRANCH   8  29
TORSDOF 5
ENDMDL
MODEL 2
REMARK VINA RESULT:      -7.8      2.676      8.092
REMARK  5 active torsions:
REMARK  status: ('A' for Active; 'I' for Inactive)
REMARK    1  A    between atoms: C2_2  and  C3_3 
REMARK    2  A    between atoms: C4_4  and  N1_5 
REMARK    3  A    between atoms: C4_4  and  C5_6 
REMARK    4  A    between atoms: C8_10  and  N3_11 
REMARK    5  A    between atoms: C15_18  and  C16_19 
ROOT
HETATM    1  N3  UNL     1      25.359   3.898  50.845  1.00  0.00    -0.157 N 
HETATM    2  C9  UNL     1      26.289   3.965  49.738  1.00  0.00     0.112 C 
HETATM    3  C10 UNL     1      26.206   5.127  49.069  1.00  0.00     0.004 C 
HETATM    4  C11 UNL     1      24.915   5.818  49.080  1.00  0.00     0.056 C 
HETATM    5  C12 UNL     1      23.874   5.329  48.183  1.00  0.00    -0.018 C 
HETATM    6  C13 UNL     1      22.575   5.047  47.940  1.00  0.00    -0.023 C 
HETATM    7  C14 UNL     1      21.346   5.145  48.699  1.00  0.00     0.032 A 
HETATM    8  C15 UNL     1      20.787   5.431  49.841  1.00  0.00     0.024 A 
HETATM    9  C18 UNL     1      21.430   5.407  51.204  1.00  0.00     0.070 A 
HETATM   10  O1  UNL     1      21.975   5.007  50.115  1.00  0.00     0.000 OA
HETATM   11  N4  UNL     1      22.333   5.227  52.313  1.00  0.00    -0.403 N 
HETATM   12  C19 UNL     1      23.617   4.557  52.254  1.00  0.00     0.173 C 
HETATM   13  C20 UNL     1      24.461   4.999  51.157  1.00  0.00     0.048 C 
HETATM   14  C21 UNL     1      24.453   6.104  50.466  1.00  0.00     0.013 C 
HETATM   15  H18 UNL     1      21.399   5.727  52.399  1.00  0.00     0.186 HD
ENDROOT
BRANCH   1  16
HETATM   16  C8  UNL     1      25.458   2.629  51.520  1.00  0.00     0.733 A 
HETATM   17  N2  UNL     1      24.570   1.637  51.661  1.00  0.00    -0.074 NA
HETATM   18  C7  UNL     1      24.814   0.515  52.333  1.00  0.00     0.139 A 
HETATM   19  C6  UNL     1      26.081   0.418  52.904  1.00  0.00     0.054 A 
HETATM   20  C5  UNL     1      27.022   1.414  52.783  1.00  0.00     0.103 A 
HETATM   21  N5  UNL     1      26.666   2.482  52.093  1.00  0.00    -0.060 NA
BRANCH  20  22
HETATM   22  C4  UNL     1      28.349   1.325  53.375  1.00  0.00     0.055 C 
HETATM   23  C3  UNL     1      29.024   0.206  53.536  1.00  0.00     0.027 C 
BRANCH  23  24
HETATM   24  C2  UNL     1      29.256  -1.227  53.457  1.00  0.00    -0.024 C 
HETATM   25  C1  UNL     1      29.074  -2.511  53.256  1.00  0.00     0.031 C 
ENDBRANCH  23  24
BRANCH  22  26
HETATM   26  N1  UNL     1      29.026   2.482  53.832  1.00  0.00    -0.397 N 
HETATM   27  H5  UNL     1      29.091   3.112  53.012  1.00  0.00     0.156 HD
HETATM   28  H6  UNL     1      29.347   2.565  54.835  1.00  0.00     0.156 HD
ENDBRANCH  22  26
ENDBRANCH  20  22
ENDBRANCH   1  16
BRANCH   8  29
HETATM   29  C16 UNL     1      19.336   5.391  50.097  1.00  0.00    -0.023 C 
HETATM   30  C17 UNL     1      18.455   5.108  49.173  1.00  0.00     0.008 C 
ENDBRANCH   8  29
TORSDOF 5
ENDMDL
MODEL 3
REMARK VINA RESULT:      -7.8      4.001      7.217
REMARK  5 active torsions:
REMARK  status: ('A' for Active; 'I' for Inactive)
REMARK    1  A    between atoms: C2_2  and  C3_3 
REMARK    2  A    between atoms: C4_4  and  N1_5 
REMARK    3  A    between atoms: C4_4  and  C5_6 
REMARK    4  A    between atoms: C8_10  and  N3_11 
REMARK    5  A    between atoms: C15_18  and  C16_19 
ROOT
HETATM    1  N3  UNL     1      22.857   1.537  52.441  1.00  0.00    -0.157 N 
HETATM    2  C9  UNL     1      23.511   0.323  52.880  1.00  0.00     0.112 C 
HETATM    3  C10 UNL     1      24.709   0.559  53.439  1.00  0.00     0.004 C 
HETATM    4  C11 UNL     1      25.436   1.749  52.992  1.00  0.00     0.056 C 
HETATM    5  C12 UNL     1      26.143   1.675  51.718  1.00  0.00    -0.018 C 
HETATM    6  C13 UNL     1      26.525   2.249  50.555  1.00  0.00    -0.023 C 
HETATM    7  C14 UNL     1      26.316   3.539  49.933  1.00  0.00     0.032 A 
HETATM    8  C15 UNL     1      25.735   4.703  49.999  1.00  0.00     0.024 A 
HETATM    9  C18 UNL     1      24.481   5.055  50.759  1.00  0.00     0.070 A 
HETATM   10  O1  UNL     1      24.961   3.876  50.620  1.00  0.00     0.000 OA
HETATM   11  N4  UNL     1      23.269   5.015  51.539  1.00  0.00    -0.403 N 
HETATM   12  C19 UNL     1      22.593   3.813  51.984  1.00  0.00     0.173 C 
HETATM   13  C20 UNL     1      23.473   2.843  52.616  1.00  0.00     0.048 C 
HETATM   14  C21 UNL     1      24.636   2.990  53.184  1.00  0.00     0.013 C 
HETATM   15  H18 UNL     1      23.735   5.921  51.234  1.00  0.00     0.186 HD
ENDROOT
BRANCH   1  16
HETATM   16  C8  UNL     1      21.589   1.241  51.823  1.00  0.00     0.733 A 
HETATM   17  N2  UNL     1      21.055   1.661  50.669  1.00  0.00    -0.074 NA
HETATM   18  C7  UNL     1      19.851   1.298  50.237  1.00  0.00     0.139 A 
HETATM   19  C6  UNL     1      19.145   0.434  51.071  1.00  0.00     0.054 A 
HETATM   20  C5  UNL     1      19.657  -0.019  52.265  1.00  0.00     0.103 A 
HETATM   21  N5  UNL     1      20.864   0.408  52.590  1.00  0.00    -0.060 NA
BRANCH  20  22
HETATM   22  C4  UNL     1      18.931  -0.922  53.145  1.00  0.00     0.055 C 
HETATM   23  C3  UNL     1      17.641  -1.176  53.060  1.00  0.00     0.027 C 
BRANCH  23  24
HETATM   24  C2  UNL     1      16.300  -1.062  52.511  1.00  0.00    -0.024 C 
HETATM   25  C1  UNL     1      15.112  -1.370  52.045  1.00  0.00     0.031 C 
ENDBRANCH  23  24
BRANCH  22  26
HETATM   26  N1  UNL     1      19.590  -1.613  54.192  1.00  0.00    -0.397 N 
HETATM   27  H5  UNL     1      20.569  -1.737  53.874  1.00  0.00     0.156 HD
HETATM   28  H6  UNL     1      19.075  -1.890  55.071  1.00  0.00     0.156 HD
ENDBRANCH  22  26
ENDBRANCH  20  22
ENDBRANCH   1  16
BRANCH   8  29
HETATM   29  C16 UNL     1      25.902   5.782  49.009  1.00  0.00    -0.023 C 
HETATM   30  C17 UNL     1      27.060   6.107  48.496  1.00  0.00     0.008 C 
ENDBRANCH   8  29
TORSDOF 5
ENDMDL
MODEL 4
REMARK VINA RESULT:      -7.8      2.671      7.201
REMARK  5 active torsions:
REMARK  status: ('A' for Active; 'I' for Inactive)
REMARK    1  A    between atoms: C2_2  and  C3_3 
REMARK    2  A    between atoms: C4_4  and  N1_5 
REMARK    3  A    between atoms: C4_4  and  C5_6 
REMARK    4  A    between atoms: C8_10  and  N3_11 
REMARK    5  A    between atoms: C15_18  and  C16_19 
ROOT
HETATM    1  N3  UNL     1      24.628   2.799  50.999  1.00  0.00    -0.157 N 
HETATM    2  C9  UNL     1      23.277   2.727  51.515  1.00  0.00     0.112 C 
HETATM    3  C10 UNL     1      22.404   3.418  50.764  1.00  0.00     0.004 C 
HETATM    4  C11 UNL     1      22.923   4.567  50.019  1.00  0.00     0.056 C 
HETATM    5  C12 UNL     1      23.142   5.811  50.750  1.00  0.00    -0.018 C 
HETATM    6  C13 UNL     1      23.881   6.916  50.985  1.00  0.00    -0.023 C 
HETATM    7  C14 UNL     1      25.111   7.460  50.446  1.00  0.00     0.032 A 
HETATM    8  C15 UNL     1      26.117   7.292  49.636  1.00  0.00     0.024 A 
HETATM    9  C18 UNL     1      26.665   5.986  49.119  1.00  0.00     0.070 A 
HETATM   10  O1  UNL     1      25.750   6.111  50.007  1.00  0.00     0.000 OA
HETATM   11  N4  UNL     1      26.944   4.593  48.878  1.00  0.00    -0.403 N 
HETATM   12  C19 UNL     1      26.390   3.481  49.625  1.00  0.00     0.173 C 
HETATM   13  C20 UNL     1      24.948   3.547  49.793  1.00  0.00     0.048 C 
HETATM   14  C21 UNL     1      24.037   4.181  49.109  1.00  0.00     0.013 C 
HETATM   15  H18 UNL     1      27.372   5.379  48.305  1.00  0.00     0.186 HD
ENDROOT
BRANCH   1  16
HETATM   16  C8  UNL     1      25.538   2.069  51.845  1.00  0.00     0.733 A 
HETATM   17  N2  UNL     1      26.870   2.135  51.964  1.00  0.00    -0.074 NA
HETATM   18  C7  UNL     1      27.577   1.375  52.797  1.00  0.00     0.139 A 
HETATM   19  C6  UNL     1      26.840   0.476  53.566  1.00  0.00     0.054 A 
HETATM   20  C5  UNL     1      25.471   0.378  53.473  1.00  0.00     0.103 A 
HETATM   21  N5  UNL     1      24.877   1.183  52.611  1.00  0.00    -0.060 NA
BRANCH  20  22
HETATM   22  C4  UNL     1      24.690  -0.557  54.269  1.00  0.00     0.055 C 
HETATM   23  C3  UNL     1      23.402  -0.782  54.113  1.00  0.00     0.027 C 
BRANCH  23  24
HETATM   24  C2  UNL     1      22.089  -0.612  53.513  1.00  0.00    -0.024 C 
HETATM   25  C1  UNL     1      21.080  -0.111  52.840  1.00  0.00     0.031 C 
ENDBRANCH  23  24
BRANCH  22  26
HETATM   26  N1  UNL     1      25.290  -1.317  55.304  1.00  0.00    -0.397 N 
HETATM   27  H5  UNL     1      24.772  -2.214  55.330  1.00  0.00     0.156 HD
HETATM   28  H6  UNL     1      26.100  -0.933  55.862  1.00  0.00     0.156 HD
ENDBRANCH  22  26
ENDBRANCH  20  22
ENDBRANCH   1  16
BRANCH   8  29
HETATM   29  C16 UNL     1      27.193   8.276  49.420  1.00  0.00    -0.023 C 
HETATM   30  C17 UNL     1      27.367   9.324  50.183  1.00  0.00     0.008 C 
ENDBRANCH   8  29
TORSDOF 5
ENDMDL
MODEL 5
REMARK VINA RESULT:      -7.8      3.920      6.357
REMARK  5 active torsions:
REMARK  status: ('A' for Active; 'I' for Inactive)
REMARK    1  A    between atoms: C2_2  and  C3_3 
REMARK    2  A    between atoms: C4_4  and  N1_5 
REMARK    3  A    between atoms: C4_4  and  C5_6 
REMARK    4  A    between atoms: C8_10  and  N3_11 
REMARK    5  A    between atoms: C15_18  and  C16_19 
ROOT
HETATM    1  N3  UNL     1      23.202   3.674  51.497  1.00  0.00    -0.157 N 
HETATM    2  C9  UNL     1      23.923   3.525  52.743  1.00  0.00     0.112 C 
HETATM    3  C10 UNL     1      24.163   2.239  53.046  1.00  0.00     0.004 C 
HETATM    4  C11 UNL     1      23.219   1.242  52.537  1.00  0.00     0.056 C 
HETATM    5  C12 UNL     1      21.953   1.080  53.244  1.00  0.00    -0.018 C 
HETATM    6  C13 UNL     1      20.618   0.871  53.222  1.00  0.00    -0.023 C 
HETATM    7  C14 UNL     1      19.629   0.669  52.183  1.00  0.00     0.032 A 
HETATM    8  C15 UNL     1      19.382   0.621  50.905  1.00  0.00     0.024 A 
HETATM    9  C18 UNL     1      20.166   1.279  49.798  1.00  0.00     0.070 A 
HETATM   10  O1  UNL     1      20.367   1.442  51.053  1.00  0.00     0.000 OA
HETATM   11  N4  UNL     1      21.097   2.069  49.032  1.00  0.00    -0.403 N 
HETATM   12  C19 UNL     1      22.034   3.030  49.579  1.00  0.00     0.173 C 
HETATM   13  C20 UNL     1      22.811   2.523  50.698  1.00  0.00     0.048 C 
HETATM   14  C21 UNL     1      23.096   1.302  51.055  1.00  0.00     0.013 C 
HETATM   15  H18 UNL     1      20.425   1.373  48.592  1.00  0.00     0.186 HD
ENDROOT
BRANCH   1  16
HETATM   16  C8  UNL     1      22.940   5.064  51.219  1.00  0.00     0.733 A 
HETATM   17  N2  UNL     1      21.801   5.767  51.256  1.00  0.00    -0.074 NA
HETATM   18  C7  UNL     1      21.721   7.061  50.959  1.00  0.00     0.139 A 
HETATM   19  C6  UNL     1      22.920   7.671  50.594  1.00  0.00     0.054 A 
HETATM   20  C5  UNL     1      24.111   6.984  50.543  1.00  0.00     0.103 A 
HETATM   21  N5  UNL     1      24.067   5.703  50.860  1.00  0.00    -0.060 NA
BRANCH  20  22
HETATM   22  C4  UNL     1      25.369   7.610  50.163  1.00  0.00     0.055 C 
HETATM   23  C3  UNL     1      26.332   7.010  49.495  1.00  0.00     0.027 C 
BRANCH  23  24
HETATM   24  C2  UNL     1      26.980   5.909  48.803  1.00  0.00    -0.024 C 
HETATM   25  C1  UNL     1      27.762   4.888  48.539  1.00  0.00     0.031 C 
ENDBRANCH  23  24
BRANCH  22  26
HETATM   26  N1  UNL     1      25.648   8.957  50.501  1.00  0.00    -0.397 N 
HETATM   27  H5  UNL     1      25.994   9.399  49.630  1.00  0.00     0.156 HD
HETATM   28  H6  UNL     1      25.489   9.317  51.482  1.00  0.00     0.156 HD
ENDBRANCH  22  26
ENDBRANCH  20  22
ENDBRANCH   1  16
BRANCH   8  29
HETATM   29  C16 UNL     1      18.066   0.313  50.317  1.00  0.00    -0.023 C 
HETATM   30  C17 UNL     1      17.110  -0.286  50.979  1.00  0.00     0.008 C 
ENDBRANCH   8  29
TORSDOF 5
ENDMDL
MODEL 6
REMARK VINA RESULT:      -7.7      2.573      8.662
REMARK  5 active torsions:
REMARK  status: ('A' for Active; 'I' for Inactive)
REMARK    1  A    between atoms: C2_2  and  C3_3 
REMARK    2  A    between atoms: C4_4  and  N1_5 
REMARK    3  A    between atoms: C4_4  and  C5_6 
REMARK    4  A    between atoms: C8_10  and  N3_11 
REMARK    5  A    between atoms: C15_18  and  C16_19 
ROOT
HETATM    1  N3  UNL     1      25.714   5.188  49.896  1.00  0.00    -0.157 N 
HETATM    2  C9  UNL     1      26.769   4.902  48.947  1.00  0.00     0.112 C 
HETATM    3  C10 UNL     1      27.372   6.015  48.500  1.00  0.00     0.004 C 
HETATM    4  C11 UNL     1      26.578   7.246  48.477  1.00  0.00     0.056 C 
HETATM    5  C12 UNL     1      25.632   7.425  47.380  1.00  0.00    -0.018 C 
HETATM    6  C13 UNL     1      24.430   7.843  46.928  1.00  0.00    -0.023 C 
HETATM    7  C14 UNL     1      23.264   8.454  47.531  1.00  0.00     0.032 A 
HETATM    8  C15 UNL     1      22.687   8.860  48.626  1.00  0.00     0.024 A 
HETATM    9  C18 UNL     1      22.957   8.384  50.031  1.00  0.00     0.070 A 
HETATM   10  O1  UNL     1      23.458   7.882  48.965  1.00  0.00     0.000 OA
HETATM   11  N4  UNL     1      23.429   7.673  51.192  1.00  0.00    -0.403 N 
HETATM   12  C19 UNL     1      24.236   6.469  51.172  1.00  0.00     0.173 C 
HETATM   13  C20 UNL     1      25.389   6.549  50.292  1.00  0.00     0.048 C 
HETATM   14  C21 UNL     1      26.035   7.579  49.822  1.00  0.00     0.013 C 
HETATM   15  H18 UNL     1      22.839   8.556  51.251  1.00  0.00     0.186 HD
ENDROOT
BRANCH   1  16
HETATM   16  C8  UNL     1      25.074   3.972  50.331  1.00  0.00     0.733 A 
HETATM   17  N2  UNL     1      23.929   3.395  49.943  1.00  0.00    -0.074 NA
HETATM   18  C7  UNL     1      23.463   2.259  50.455  1.00  0.00     0.139 A 
HETATM   19  C6  UNL     1      24.247   1.679  51.450  1.00  0.00     0.054 A 
HETATM   20  C5  UNL     1      25.429   2.240  51.877  1.00  0.00     0.103 A 
HETATM   21  N5  UNL     1      25.791   3.369  51.295  1.00  0.00    -0.060 NA
BRANCH  20  22
HETATM   22  C4  UNL     1      26.256   1.645  52.915  1.00  0.00     0.055 C 
HETATM   23  C3  UNL     1      26.656   0.390  52.928  1.00  0.00     0.027 C 
BRANCH  23  24
HETATM   24  C2  UNL     1      26.771  -0.970  52.431  1.00  0.00    -0.024 C 
HETATM   25  C1  UNL     1      26.921  -2.274  52.385  1.00  0.00     0.031 C 
ENDBRANCH  23  24
BRANCH  22  26
HETATM   26  N1  UNL     1      26.704   2.408  54.023  1.00  0.00    -0.397 N 
HETATM   27  H5  UNL     1      27.594   2.845  53.721  1.00  0.00     0.156 HD
HETATM   28  H6  UNL     1      26.148   2.444  54.920  1.00  0.00     0.156 HD
ENDBRANCH  22  26
ENDBRANCH  20  22
ENDBRANCH   1  16
BRANCH   8  29
HETATM   29  C16 UNL     1      21.366   9.511  48.685  1.00  0.00    -0.023 C 
HETATM   30  C17 UNL     1      20.579   9.628  47.647  1.00  0.00     0.008 C 
ENDBRANCH   8  29
TORSDOF 5
ENDMDL
MODEL 7
REMARK VINA RESULT:      -7.5      3.223      8.000
REMARK  5 active torsions:
REMARK  status: ('A' for Active; 'I' for Inactive)
REMARK    1  A    between atoms: C2_2  and  C3_3 
REMARK    2  A    between atoms: C4_4  and  N1_5 
REMARK    3  A    between atoms: C4_4  and  C5_6 
REMARK    4  A    between atoms: C8_10  and  N3_11 
REMARK    5  A    between atoms: C15_18  and  C16_19 
ROOT
HETATM    1  N3  UNL     1      23.335   2.956  51.936  1.00  0.00    -0.157 N 
HETATM    2  C9  UNL     1      23.593   4.126  52.748  1.00  0.00     0.112 C 
HETATM    3  C10 UNL     1      22.652   5.072  52.599  1.00  0.00     0.004 C 
HETATM    4  C11 UNL     1      21.947   5.121  51.316  1.00  0.00     0.056 C 
HETATM    5  C12 UNL     1      22.629   5.746  50.188  1.00  0.00    -0.018 C 
HETATM    6  C13 UNL     1      22.929   5.775  48.871  1.00  0.00    -0.023 C 
HETATM    7  C14 UNL     1      22.597   4.954  47.725  1.00  0.00     0.032 A 
HETATM    8  C15 UNL     1      22.000   3.883  47.286  1.00  0.00     0.024 A 
HETATM    9  C18 UNL     1      21.676   2.633  48.065  1.00  0.00     0.070 A 
HETATM   10  O1  UNL     1      22.368   3.622  48.496  1.00  0.00     0.000 OA
HETATM   11  N4  UNL     1      21.576   1.611  49.076  1.00  0.00    -0.403 N 
HETATM   12  C19 UNL     1      22.274   1.612  50.347  1.00  0.00     0.173 C 
HETATM   13  C20 UNL     1      22.166   2.865  51.075  1.00  0.00     0.048 C 
HETATM   14  C21 UNL     1      21.287   3.824  50.997  1.00  0.00     0.013 C 
HETATM   15  H18 UNL     1      21.046   1.572  48.156  1.00  0.00     0.186 HD
ENDROOT
BRANCH   1  16
HETATM   16  C8  UNL     1      24.379   1.976  52.103  1.00  0.00     0.733 A 
HETATM   17  N2  UNL     1      25.515   1.779  51.422  1.00  0.00    -0.074 NA
HETATM   18  C7  UNL     1      26.384   0.810  51.698  1.00  0.00     0.139 A 
HETATM   19  C6  UNL     1      26.044  -0.019  52.765  1.00  0.00     0.054 A 
HETATM   20  C5  UNL     1      24.887   0.150  53.489  1.00  0.00     0.103 A 
HETATM   21  N5  UNL     1      24.100   1.146  53.123  1.00  0.00    -0.060 NA
BRANCH  20  22
HETATM   22  C4  UNL     1      24.520  -0.709  54.605  1.00  0.00     0.055 C 
HETATM   23  C3  UNL     1      23.314  -1.195  54.814  1.00  0.00     0.027 C 
BRANCH  23  24
HETATM   24  C2  UNL     1      21.903  -1.408  54.535  1.00  0.00    -0.024 C 
HETATM   25  C1  UNL     1      20.671  -1.222  54.123  1.00  0.00     0.031 C 
ENDBRANCH  23  24
BRANCH  22  26
HETATM   26  N1  UNL     1      25.476  -1.094  55.578  1.00  0.00    -0.397 N 
HETATM   27  H5  UNL     1      25.085  -1.936  56.038  1.00  0.00     0.156 HD
HETATM   28  H6  UNL     1      26.371  -0.549  55.708  1.00  0.00     0.156 HD
ENDBRANCH  22  26
ENDBRANCH  20  22
ENDBRANCH   1  16
BRANCH   8  29
HETATM   29  C16 UNL     1      21.928   3.484  45.869  1.00  0.00    -0.023 C 
HETATM   30  C17 UNL     1      21.692   4.330  44.900  1.00  0.00     0.008 C 
ENDBRANCH   8  29
TORSDOF 5
ENDMDL
MODEL 8
REMARK VINA RESULT:      -7.5      3.771      6.240
REMARK  5 active torsions:
REMARK  status: ('A' for Active; 'I' for Inactive)
REMARK    1  A    between atoms: C2_2  and  C3_3 
REMARK    2  A    between atoms: C4_4  and  N1_5 
REMARK    3  A    between atoms: C4_4  and  C5_6 
REMARK    4  A    between atoms: C8_10  and  N3_11 
REMARK    5  A    between atoms: C15_18  and  C16_19 
ROOT
HETATM    1  N3  UNL     1      21.953   2.953  52.105  1.00  0.00    -0.157 N 
HETATM    2  C9  UNL     1      22.277   1.552  52.271  1.00  0.00     0.112 C 
HETATM    3  C10 UNL     1      23.511   1.366  52.767  1.00  0.00     0.004 C 
HETATM    4  C11 UNL     1      24.512   2.397  52.480  1.00  0.00     0.056 C 
HETATM    5  C12 UNL     1      25.136   2.391  51.161  1.00  0.00    -0.018 C 
HETATM    6  C13 UNL     1      25.620   3.059  50.092  1.00  0.00    -0.023 C 
HETATM    7  C14 UNL     1      25.739   4.455  49.724  1.00  0.00     0.032 A 
HETATM    8  C15 UNL     1      25.487   5.693  50.040  1.00  0.00     0.024 A 
HETATM    9  C18 UNL     1      24.393   6.199  50.946  1.00  0.00     0.070 A 
HETATM   10  O1  UNL     1      24.542   4.986  50.564  1.00  0.00     0.000 OA
HETATM   11  N4  UNL     1      23.238   6.319  51.800  1.00  0.00    -0.403 N 
HETATM   12  C19 UNL     1      22.283   5.265  52.078  1.00  0.00     0.173 C 
HETATM   13  C20 UNL     1      22.895   4.003  52.458  1.00  0.00     0.048 C 
HETATM   14  C21 UNL     1      24.073   3.740  52.950  1.00  0.00     0.013 C 
HETATM   15  H18 UNL     1      23.916   7.119  51.623  1.00  0.00     0.186 HD
ENDROOT
BRANCH   1  16
HETATM   16  C8  UNL     1      20.634   3.110  51.547  1.00  0.00     0.733 A 
HETATM   17  N2  UNL     1      19.436   3.199  52.138  1.00  0.00    -0.074 NA
HETATM   18  C7  UNL     1      18.291   3.335  51.474  1.00  0.00     0.139 A 
HETATM   19  C6  UNL     1      18.401   3.379  50.085  1.00  0.00     0.054 A 
HETATM   20  C5  UNL     1      19.613   3.289  49.440  1.00  0.00     0.103 A 
HETATM   21  N5  UNL     1      20.682   3.157  50.204  1.00  0.00    -0.060 NA
BRANCH  20  22
HETATM   22  C4  UNL     1      19.741   3.334  47.991  1.00  0.00     0.055 C 
HETATM   23  C3  UNL     1      20.706   3.953  47.342  1.00  0.00     0.027 C 
BRANCH  23  24
HETATM   24  C2  UNL     1      21.914   4.749  47.205  1.00  0.00    -0.024 C 
HETATM   25  C1  UNL     1      22.831   5.668  47.397  1.00  0.00     0.031 C 
ENDBRANCH  23  24
BRANCH  22  26
HETATM   26  N1  UNL     1      18.800   2.687  47.152  1.00  0.00    -0.397 N 
HETATM   27  H5  UNL     1      17.871   3.036  47.452  1.00  0.00     0.156 HD
HETATM   28  H6  UNL     1      19.111   2.008  46.405  1.00  0.00     0.156 HD
ENDBRANCH  22  26
ENDBRANCH  20  22
ENDBRANCH   1  16
BRANCH   8  29
HETATM   29  C16 UNL     1      25.902   6.863  49.245  1.00  0.00    -0.023 C 
HETATM   30  C17 UNL     1      26.574   6.765  48.127  1.00  0.00     0.008 C 
ENDBRANCH   8  29
TORSDOF 5
ENDMDL
MODEL 9
REMARK VINA RESULT:      -7.4      2.924      8.478
REMARK  5 active torsions:
REMARK  status: ('A' for Active; 'I' for Inactive)
REMARK    1  A    between atoms: C2_2  and  C3_3 
REMARK    2  A    between atoms: C4_4  and  N1_5 
REMARK    3  A    between atoms: C4_4  and  C5_6 
REMARK    4  A    between atoms: C8_10  and  N3_11 
REMARK    5  A    between atoms: C15_18  and  C16_19 
ROOT
HETATM    1  N3  UNL     1      24.114   3.864  50.323  1.00  0.00    -0.157 N 
HETATM    2  C9  UNL     1      25.267   3.505  49.525  1.00  0.00     0.112 C 
HETATM    3  C10 UNL     1      26.139   4.518  49.400  1.00  0.00     0.004 C 
HETATM    4  C11 UNL     1      25.603   5.879  49.476  1.00  0.00     0.056 C 
HETATM    5  C12 UNL     1      24.943   6.418  48.291  1.00  0.00    -0.018 C 
HETATM    6  C13 UNL     1      23.952   7.146  47.732  1.00  0.00    -0.023 C 
HETATM    7  C14 UNL     1      22.820   7.894  48.237  1.00  0.00     0.032 A 
HETATM    8  C15 UNL     1      22.120   8.245  49.278  1.00  0.00     0.024 A 
HETATM    9  C18 UNL     1      22.013   7.519  50.594  1.00  0.00     0.070 A 
HETATM   10  O1  UNL     1      22.617   7.086  49.551  1.00  0.00     0.000 OA
HETATM   11  N4  UNL     1      22.107   6.558  51.665  1.00  0.00    -0.403 N 
HETATM   12  C19 UNL     1      22.669   5.226  51.554  1.00  0.00     0.173 C 
HETATM   13  C20 UNL     1      23.970   5.188  50.907  1.00  0.00     0.048 C 
HETATM   14  C21 UNL     1      24.872   6.116  50.751  1.00  0.00     0.013 C 
HETATM   15  H18 UNL     1      21.688   7.527  51.789  1.00  0.00     0.186 HD
ENDROOT
BRANCH   1  16
HETATM   16  C8  UNL     1      23.189   2.762  50.412  1.00  0.00     0.733 A 
HETATM   17  N2  UNL     1      22.177   2.399  49.614  1.00  0.00    -0.074 NA
HETATM   18  C7  UNL     1      21.399   1.344  49.841  1.00  0.00     0.139 A 
HETATM   19  C6  UNL     1      21.696   0.610  50.988  1.00  0.00     0.054 A 
HETATM   20  C5  UNL     1      22.726   0.951  51.833  1.00  0.00     0.103 A 
HETATM   21  N5  UNL     1      23.431   2.019  51.506  1.00  0.00    -0.060 NA
BRANCH  20  22
HETATM   22  C4  UNL     1      23.047   0.193  53.034  1.00  0.00     0.055 C 
HETATM   23  C3  UNL     1      24.228  -0.323  53.303  1.00  0.00     0.027 C 
BRANCH  23  24
HETATM   24  C2  UNL     1      25.628  -0.629  53.060  1.00  0.00    -0.024 C 
HETATM   25  C1  UNL     1      26.720  -1.191  52.597  1.00  0.00     0.031 C 
ENDBRANCH  23  24
BRANCH  22  26
HETATM   26  N1  UNL     1      22.068  -0.046  54.032  1.00  0.00    -0.397 N 
HETATM   27  H5  UNL     1      22.292   0.606  54.806  1.00  0.00     0.156 HD
HETATM   28  H6  UNL     1      21.313  -0.770  53.891  1.00  0.00     0.156 HD
ENDBRANCH  22  26
ENDBRANCH  20  22
ENDBRANCH   1  16
BRANCH   8  29
HETATM   29  C16 UNL     1      20.955   9.147  49.238  1.00  0.00    -0.023 C 
HETATM   30  C17 UNL     1      20.990  10.338  48.698  1.00  0.00     0.008 C 
ENDBRANCH   8  29
TORSDOF 5
ENDMDL
