MODEL 1
REMARK VINA RESULT:      -6.6      0.000      0.000
REMARK  7 active torsions:
REMARK  status: ('A' for Active; 'I' for Inactive)
REMARK    1  A    between atoms: N1_2  and  C2_3 
REMARK    2  A    between atoms: N1_2  and  C14_18 
REMARK    3  A    between atoms: C2_3  and  C3_4 
REMARK    4  A    between atoms: C4_5  and  C5_6 
REMARK    5  A    between atoms: C6_7  and  C7_8 
REMARK       I    between atoms: C7_8  and  N2_10 
REMARK    6  A    between atoms: N2_10  and  C8_11 
REMARK    7  A    between atoms: C14_18  and  C15_19 
ROOT
HETATM    1  C7  UNL     1      24.808  -0.717  54.202  1.00  0.00     0.301 C 
HETATM    2  O1  UNL     1      24.929  -1.198  55.369  1.00  0.00    -0.258 OA
HETATM    3  N2  UNL     1      25.921  -0.405  53.374  1.00  0.00    -0.314 N 
HETATM    4  H8  UNL     1      25.810  -0.006  52.413  1.00  0.00     0.170 HD
ENDROOT
BRANCH   1   5
HETATM    5  C6  UNL     1      23.511  -0.444  53.611  1.00  0.00    -0.001 C 
HETATM    6  C5  UNL     1      22.424  -0.227  53.131  1.00  0.00    -0.069 C 
BRANCH   6   7
HETATM    7  C4  UNL     1      21.109   0.012  52.555  1.00  0.00     0.062 C 
HETATM    8  C3  UNL     1      20.956   0.429  51.307  1.00  0.00     0.001 C 
BRANCH   8   9
HETATM    9  C2  UNL     1      19.887   0.785  50.344  1.00  0.00     0.144 C 
BRANCH   9  10
HETATM   10  N1  UNL     1      20.403   1.701  49.388  1.00  0.00    -0.412 N 
HETATM   11  C1  UNL     1      19.477   2.586  48.776  1.00  0.00     0.143 C 
BRANCH  10  12
HETATM   12  C14 UNL     1      21.485   1.244  48.583  1.00  0.00     0.131 C 
BRANCH  12  13
HETATM   13  C15 UNL     1      22.521   2.272  48.247  1.00  0.00     0.134 C 
HETATM   14 CL1  UNL     1      23.372   2.684  49.774  1.00  0.00    -0.129 Cl
ENDBRANCH  12  13
ENDBRANCH  10  12
ENDBRANCH   9  10
ENDBRANCH   8   9
ENDBRANCH   6   7
ENDBRANCH   1   5
BRANCH   3  15
HETATM   15  C8  UNL     1      27.346  -0.470  53.446  1.00  0.00     0.074 A 
HETATM   16  C9  UNL     1      28.068   0.631  53.838  1.00  0.00     0.033 A 
HETATM   17  C10 UNL     1      29.453   0.516  53.888  1.00  0.00     0.002 A 
HETATM   18  C11 UNL     1      30.094  -0.670  53.557  1.00  0.00     0.003 A 
HETATM   19  C12 UNL     1      29.345  -1.753  53.171  1.00  0.00     0.044 A 
HETATM   20  C13 UNL     1      27.972  -1.649  53.117  1.00  0.00     0.143 A 
HETATM   21  F1  UNL     1      27.233  -2.728  52.728  1.00  0.00    -0.204 F 
ENDBRANCH   3  15
TORSDOF 7
ENDMDL
MODEL 2
REMARK VINA RESULT:      -6.4      5.930      8.262
REMARK  7 active torsions:
REMARK  status: ('A' for Active; 'I' for Inactive)
REMARK    1  A    between atoms: N1_2  and  C2_3 
REMARK    2  A    between atoms: N1_2  and  C14_18 
REMARK    3  A    between atoms: C2_3  and  C3_4 
REMARK    4  A    between atoms: C4_5  and  C5_6 
REMARK    5  A    between atoms: C6_7  and  C7_8 
REMARK       I    between atoms: C7_8  and  N2_10 
REMARK    6  A    between atoms: N2_10  and  C8_11 
REMARK    7  A    between atoms: C14_18  and  C15_19 
ROOT
HETATM    1  C7  UNL     1      25.221   3.230  49.904  1.00  0.00     0.301 C 
HETATM    2  O1  UNL     1      24.068   3.158  49.382  1.00  0.00    -0.258 OA
HETATM    3  N2  UNL     1      25.605   2.470  51.042  1.00  0.00    -0.314 N 
HETATM    4  H8  UNL     1      26.560   2.539  51.465  1.00  0.00     0.170 HD
ENDROOT
BRANCH   1   5
HETATM    5  C6  UNL     1      26.253   4.103  49.375  1.00  0.00    -0.001 C 
HETATM    6  C5  UNL     1      27.100   4.838  48.927  1.00  0.00    -0.069 C 
BRANCH   6   7
HETATM    7  C4  UNL     1      28.110   5.723  48.365  1.00  0.00     0.062 C 
HETATM    8  C3  UNL     1      29.361   5.330  48.181  1.00  0.00     0.001 C 
BRANCH   8   9
HETATM    9  C2  UNL     1      30.657   5.843  47.674  1.00  0.00     0.144 C 
BRANCH   9  10
HETATM   10  N1  UNL     1      31.695   5.453  48.562  1.00  0.00    -0.412 N 
HETATM   11  C1  UNL     1      32.004   6.343  49.624  1.00  0.00     0.143 C 
BRANCH  10  12
HETATM   12  C14 UNL     1      32.779   4.722  47.999  1.00  0.00     0.131 C 
BRANCH  12  13
HETATM   13  C15 UNL     1      32.631   4.351  46.556  1.00  0.00     0.134 C 
HETATM   14 CL1  UNL     1      32.018   2.664  46.504  1.00  0.00    -0.129 Cl
ENDBRANCH  12  13
ENDBRANCH  10  12
ENDBRANCH   9  10
ENDBRANCH   8   9
ENDBRANCH   6   7
ENDBRANCH   1   5
BRANCH   3  15
HETATM   15  C8  UNL     1      25.020   1.505  51.918  1.00  0.00     0.074 A 
HETATM   16  C9  UNL     1      23.720   1.650  52.333  1.00  0.00     0.033 A 
HETATM   17  C10 UNL     1      23.199   0.684  53.188  1.00  0.00     0.002 A 
HETATM   18  C11 UNL     1      23.961  -0.396  53.612  1.00  0.00     0.003 A 
HETATM   19  C12 UNL     1      25.258  -0.514  53.178  1.00  0.00     0.044 A 
HETATM   20  C13 UNL     1      25.784   0.438  52.331  1.00  0.00     0.143 A 
HETATM   21  F1  UNL     1      27.075   0.318  51.907  1.00  0.00    -0.204 F 
ENDBRANCH   3  15
TORSDOF 7
ENDMDL
MODEL 3
REMARK VINA RESULT:      -6.4      6.113      8.211
REMARK  7 active torsions:
REMARK  status: ('A' for Active; 'I' for Inactive)
REMARK    1  A    between atoms: N1_2  and  C2_3 
REMARK    2  A    between atoms: N1_2  and  C14_18 
REMARK    3  A    between atoms: C2_3  and  C3_4 
REMARK    4  A    between atoms: C4_5  and  C5_6 
REMARK    5  A    between atoms: C6_7  and  C7_8 
REMARK       I    between atoms: C7_8  and  N2_10 
REMARK    6  A    between atoms: N2_10  and  C8_11 
REMARK    7  A    between atoms: C14_18  and  C15_19 
ROOT
HETATM    1  C7  UNL     1      25.788   3.031  50.311  1.00  0.00     0.301 C 
HETATM    2  O1  UNL     1      24.532   2.944  50.164  1.00  0.00    -0.258 OA
HETATM    3  N2  UNL     1      26.524   2.199  51.198  1.00  0.00    -0.314 N 
HETATM    4  H8  UNL     1      27.561   2.281  51.313  1.00  0.00     0.170 HD
ENDROOT
BRANCH   1   5
HETATM    5  C6  UNL     1      26.584   3.999  49.579  1.00  0.00    -0.001 C 
HETATM    6  C5  UNL     1      27.251   4.793  48.959  1.00  0.00    -0.069 C 
BRANCH   6   7
HETATM    7  C4  UNL     1      28.071   5.733  48.208  1.00  0.00     0.062 C 
HETATM    8  C3  UNL     1      29.393   5.653  48.195  1.00  0.00     0.001 C 
BRANCH   8   9
HETATM    9  C2  UNL     1      30.573   6.338  47.615  1.00  0.00     0.144 C 
BRANCH   9  10
HETATM   10  N1  UNL     1      31.694   6.139  48.464  1.00  0.00    -0.412 N 
HETATM   11  C1  UNL     1      31.977   7.157  49.412  1.00  0.00     0.143 C 
BRANCH  10  12
HETATM   12  C14 UNL     1      32.811   5.456  47.901  1.00  0.00     0.131 C 
BRANCH  12  13
HETATM   13  C15 UNL     1      32.702   3.964  47.856  1.00  0.00     0.134 C 
HETATM   14 CL1  UNL     1      32.388   3.509  46.147  1.00  0.00    -0.129 Cl
ENDBRANCH  12  13
ENDBRANCH  10  12
ENDBRANCH   9  10
ENDBRANCH   8   9
ENDBRANCH   6   7
ENDBRANCH   1   5
BRANCH   3  15
HETATM   15  C8  UNL     1      26.262   1.133  52.113  1.00  0.00     0.074 A 
HETATM   16  C9  UNL     1      26.722  -0.133  51.845  1.00  0.00     0.033 A 
HETATM   17  C10 UNL     1      26.438  -1.136  52.766  1.00  0.00     0.002 A 
HETATM   18  C11 UNL     1      25.714  -0.874  53.922  1.00  0.00     0.003 A 
HETATM   19  C12 UNL     1      25.269   0.402  54.161  1.00  0.00     0.044 A 
HETATM   20  C13 UNL     1      25.545   1.402  53.254  1.00  0.00     0.143 A 
HETATM   21  F1  UNL     1      25.096   2.668  53.495  1.00  0.00    -0.204 F 
ENDBRANCH   3  15
TORSDOF 7
ENDMDL
MODEL 4
REMARK VINA RESULT:      -6.4      3.283      3.784
REMARK  7 active torsions:
REMARK  status: ('A' for Active; 'I' for Inactive)
REMARK    1  A    between atoms: N1_2  and  C2_3 
REMARK    2  A    between atoms: N1_2  and  C14_18 
REMARK    3  A    between atoms: C2_3  and  C3_4 
REMARK    4  A    between atoms: C4_5  and  C5_6 
REMARK    5  A    between atoms: C6_7  and  C7_8 
REMARK       I    between atoms: C7_8  and  N2_10 
REMARK    6  A    between atoms: N2_10  and  C8_11 
REMARK    7  A    between atoms: C14_18  and  C15_19 
ROOT
HETATM    1  C7  UNL     1      24.501   0.001  53.081  1.00  0.00     0.301 C 
HETATM    2  O1  UNL     1      24.671   0.904  52.208  1.00  0.00    -0.258 OA
HETATM    3  N2  UNL     1      25.576  -0.626  53.767  1.00  0.00    -0.314 N 
HETATM    4  H8  UNL     1      25.424  -1.373  54.484  1.00  0.00     0.170 HD
ENDROOT
BRANCH   1   5
HETATM    5  C6  UNL     1      23.180  -0.471  53.454  1.00  0.00    -0.001 C 
HETATM    6  C5  UNL     1      22.088  -0.874  53.776  1.00  0.00    -0.069 C 
BRANCH   6   7
HETATM    7  C4  UNL     1      20.780  -1.381  54.166  1.00  0.00     0.062 C 
HETATM    8  C3  UNL     1      19.679  -1.061  53.504  1.00  0.00     0.001 C 
BRANCH   8   9
HETATM    9  C2  UNL     1      18.218  -1.315  53.525  1.00  0.00     0.144 C 
BRANCH   9  10
HETATM   10  N1  UNL     1      17.651  -0.890  52.294  1.00  0.00    -0.412 N 
HETATM   11  C1  UNL     1      18.465  -0.092  51.448  1.00  0.00     0.143 C 
BRANCH  10  12
HETATM   12  C14 UNL     1      16.255  -0.610  52.295  1.00  0.00     0.131 C 
BRANCH  12  13
HETATM   13  C15 UNL     1      15.881   0.816  52.033  1.00  0.00     0.134 C 
HETATM   14 CL1  UNL     1      14.428   1.172  53.028  1.00  0.00    -0.129 Cl
ENDBRANCH  12  13
ENDBRANCH  10  12
ENDBRANCH   9  10
ENDBRANCH   8   9
ENDBRANCH   6   7
ENDBRANCH   1   5
BRANCH   3  15
HETATM   15  C8  UNL     1      27.003  -0.553  53.792  1.00  0.00     0.074 A 
HETATM   16  C9  UNL     1      27.629   0.455  54.484  1.00  0.00     0.033 A 
HETATM   17  C10 UNL     1      29.019   0.484  54.475  1.00  0.00     0.002 A 
HETATM   18  C11 UNL     1      29.759  -0.472  53.793  1.00  0.00     0.003 A 
HETATM   19  C12 UNL     1      29.105  -1.467  53.112  1.00  0.00     0.044 A 
HETATM   20  C13 UNL     1      27.727  -1.504  53.114  1.00  0.00     0.143 A 
HETATM   21  F1  UNL     1      27.082  -2.494  52.431  1.00  0.00    -0.204 F 
ENDBRANCH   3  15
TORSDOF 7
ENDMDL
MODEL 5
REMARK VINA RESULT:      -6.3      1.461      1.966
REMARK  7 active torsions:
REMARK  status: ('A' for Active; 'I' for Inactive)
REMARK    1  A    between atoms: N1_2  and  C2_3 
REMARK    2  A    between atoms: N1_2  and  C14_18 
REMARK    3  A    between atoms: C2_3  and  C3_4 
REMARK    4  A    between atoms: C4_5  and  C5_6 
REMARK    5  A    between atoms: C6_7  and  C7_8 
REMARK       I    between atoms: C7_8  and  N2_10 
REMARK    6  A    between atoms: N2_10  and  C8_11 
REMARK    7  A    between atoms: C14_18  and  C15_19 
ROOT
HETATM    1  C7  UNL     1      24.780  -0.720  54.332  1.00  0.00     0.301 C 
HETATM    2  O1  UNL     1      24.951  -1.235  55.478  1.00  0.00    -0.258 OA
HETATM    3  N2  UNL     1      25.856  -0.379  53.468  1.00  0.00    -0.314 N 
HETATM    4  H8  UNL     1      25.703   0.047  52.524  1.00  0.00     0.170 HD
ENDROOT
BRANCH   1   5
HETATM    5  C6  UNL     1      23.459  -0.435  53.804  1.00  0.00    -0.001 C 
HETATM    6  C5  UNL     1      22.365  -0.184  53.357  1.00  0.00    -0.069 C 
BRANCH   6   7
HETATM    7  C4  UNL     1      21.051   0.141  52.822  1.00  0.00     0.062 C 
HETATM    8  C3  UNL     1      20.844   0.306  51.525  1.00  0.00     0.001 C 
BRANCH   8   9
HETATM    9  C2  UNL     1      19.753   0.624  50.573  1.00  0.00     0.144 C 
BRANCH   9  10
HETATM   10  N1  UNL     1      20.232   1.541  49.600  1.00  0.00    -0.412 N 
HETATM   11  C1  UNL     1      21.429   1.195  48.920  1.00  0.00     0.143 C 
BRANCH  10  12
HETATM   12  C14 UNL     1      20.018   2.924  49.862  1.00  0.00     0.131 C 
BRANCH  12  13
HETATM   13  C15 UNL     1      21.238   3.711  50.227  1.00  0.00     0.134 C 
HETATM   14 CL1  UNL     1      21.235   3.894  52.013  1.00  0.00    -0.129 Cl
ENDBRANCH  12  13
ENDBRANCH  10  12
ENDBRANCH   9  10
ENDBRANCH   8   9
ENDBRANCH   6   7
ENDBRANCH   1   5
BRANCH   3  15
HETATM   15  C8  UNL     1      27.284  -0.441  53.478  1.00  0.00     0.074 A 
HETATM   16  C9  UNL     1      27.924  -1.620  53.188  1.00  0.00     0.033 A 
HETATM   17  C10 UNL     1      29.315  -1.629  53.214  1.00  0.00     0.002 A 
HETATM   18  C11 UNL     1      30.040  -0.486  53.521  1.00  0.00     0.003 A 
HETATM   19  C12 UNL     1      29.371   0.678  53.806  1.00  0.00     0.044 A 
HETATM   20  C13 UNL     1      27.993   0.697  53.783  1.00  0.00     0.143 A 
HETATM   21  F1  UNL     1      27.333   1.855  54.071  1.00  0.00    -0.204 F 
ENDBRANCH   3  15
TORSDOF 7
ENDMDL
MODEL 6
REMARK VINA RESULT:      -6.3      7.767      9.550
REMARK  7 active torsions:
REMARK  status: ('A' for Active; 'I' for Inactive)
REMARK    1  A    between atoms: N1_2  and  C2_3 
REMARK    2  A    between atoms: N1_2  and  C14_18 
REMARK    3  A    between atoms: C2_3  and  C3_4 
REMARK    4  A    between atoms: C4_5  and  C5_6 
REMARK    5  A    between atoms: C6_7  and  C7_8 
REMARK       I    between atoms: C7_8  and  N2_10 
REMARK    6  A    between atoms: N2_10  and  C8_11 
REMARK    7  A    between atoms: C14_18  and  C15_19 
ROOT
HETATM    1  C7  UNL     1      27.579   6.431  48.393  1.00  0.00     0.301 C 
HETATM    2  O1  UNL     1      26.855   7.132  47.624  1.00  0.00    -0.258 OA
HETATM    3  N2  UNL     1      28.873   6.835  48.819  1.00  0.00    -0.314 N 
HETATM    4  H8  UNL     1      29.463   6.248  49.453  1.00  0.00     0.170 HD
ENDROOT
BRANCH   1   5
HETATM    5  C6  UNL     1      27.140   5.146  48.906  1.00  0.00    -0.001 C 
HETATM    6  C5  UNL     1      26.790   4.070  49.328  1.00  0.00    -0.069 C 
BRANCH   6   7
HETATM    7  C4  UNL     1      26.376   2.763  49.817  1.00  0.00     0.062 C 
HETATM    8  C3  UNL     1      26.647   2.357  51.048  1.00  0.00     0.001 C 
BRANCH   8   9
HETATM    9  C2  UNL     1      26.444   1.188  51.937  1.00  0.00     0.144 C 
BRANCH   9  10
HETATM   10  N1  UNL     1      27.168   1.386  53.143  1.00  0.00    -0.412 N 
HETATM   11  C1  UNL     1      28.211   2.349  53.122  1.00  0.00     0.143 C 
BRANCH  10  12
HETATM   12  C14 UNL     1      27.367   0.240  53.966  1.00  0.00     0.131 C 
BRANCH  12  13
HETATM   13  C15 UNL     1      28.680   0.175  54.680  1.00  0.00     0.134 C 
HETATM   14 CL1  UNL     1      29.740  -0.927  53.739  1.00  0.00    -0.129 Cl
ENDBRANCH  12  13
ENDBRANCH  10  12
ENDBRANCH   9  10
ENDBRANCH   8   9
ENDBRANCH   6   7
ENDBRANCH   1   5
BRANCH   3  15
HETATM   15  C8  UNL     1      29.751   7.947  48.631  1.00  0.00     0.074 A 
HETATM   16  C9  UNL     1      30.845   7.829  47.809  1.00  0.00     0.033 A 
HETATM   17  C10 UNL     1      31.670   8.939  47.662  1.00  0.00     0.002 A 
HETATM   18  C11 UNL     1      31.404  10.132  48.320  1.00  0.00     0.003 A 
HETATM   19  C12 UNL     1      30.302  10.218  49.134  1.00  0.00     0.044 A 
HETATM   20  C13 UNL     1      29.478   9.124  49.287  1.00  0.00     0.143 A 
HETATM   21  F1  UNL     1      28.387   9.214  50.101  1.00  0.00    -0.204 F 
ENDBRANCH   3  15
TORSDOF 7
ENDMDL
MODEL 7
REMARK VINA RESULT:      -6.2      2.048      2.493
REMARK  7 active torsions:
REMARK  status: ('A' for Active; 'I' for Inactive)
REMARK    1  A    between atoms: N1_2  and  C2_3 
REMARK    2  A    between atoms: N1_2  and  C14_18 
REMARK    3  A    between atoms: C2_3  and  C3_4 
REMARK    4  A    between atoms: C4_5  and  C5_6 
REMARK    5  A    between atoms: C6_7  and  C7_8 
REMARK       I    between atoms: C7_8  and  N2_10 
REMARK    6  A    between atoms: N2_10  and  C8_11 
REMARK    7  A    between atoms: C14_18  and  C15_19 
ROOT
HETATM    1  C7  UNL     1      24.941  -0.910  55.016  1.00  0.00     0.301 C 
HETATM    2  O1  UNL     1      25.278  -1.164  56.211  1.00  0.00    -0.258 OA
HETATM    3  N2  UNL     1      25.882  -0.625  53.990  1.00  0.00    -0.314 N 
HETATM    4  H8  UNL     1      25.593  -0.415  53.006  1.00  0.00     0.170 HD
ENDROOT
BRANCH   1   5
HETATM    5  C6  UNL     1      23.552  -0.889  54.594  1.00  0.00    -0.001 C 
HETATM    6  C5  UNL     1      22.398  -0.888  54.240  1.00  0.00    -0.069 C 
BRANCH   6   7
HETATM    7  C4  UNL     1      21.012  -0.901  53.795  1.00  0.00     0.062 C 
HETATM    8  C3  UNL     1      20.591  -0.147  52.792  1.00  0.00     0.001 C 
BRANCH   8   9
HETATM    9  C2  UNL     1      19.356   0.159  52.031  1.00  0.00     0.144 C 
BRANCH   9  10
HETATM   10  N1  UNL     1      19.705   0.598  50.726  1.00  0.00    -0.412 N 
HETATM   11  C1  UNL     1      21.023   1.094  50.542  1.00  0.00     0.143 C 
BRANCH  10  12
HETATM   12  C14 UNL     1      18.674   1.212  49.959  1.00  0.00     0.131 C 
BRANCH  12  13
HETATM   13  C15 UNL     1      17.278   0.985  50.451  1.00  0.00     0.134 C 
HETATM   14 CL1  UNL     1      16.652  -0.473  49.611  1.00  0.00    -0.129 Cl
ENDBRANCH  12  13
ENDBRANCH  10  12
ENDBRANCH   9  10
ENDBRANCH   8   9
ENDBRANCH   6   7
ENDBRANCH   1   5
BRANCH   3  15
HETATM   15  C8  UNL     1      27.301  -0.519  53.853  1.00  0.00     0.074 A 
HETATM   16  C9  UNL     1      27.957   0.592  54.323  1.00  0.00     0.033 A 
HETATM   17  C10 UNL     1      29.337   0.648  54.162  1.00  0.00     0.002 A 
HETATM   18  C11 UNL     1      30.038  -0.382  53.549  1.00  0.00     0.003 A 
HETATM   19  C12 UNL     1      29.353  -1.479  53.091  1.00  0.00     0.044 A 
HETATM   20  C13 UNL     1      27.985  -1.544  53.244  1.00  0.00     0.143 A 
HETATM   21  F1  UNL     1      27.310  -2.636  52.782  1.00  0.00    -0.204 F 
ENDBRANCH   3  15
TORSDOF 7
ENDMDL
MODEL 8
REMARK VINA RESULT:      -6.2      6.564      8.667
REMARK  7 active torsions:
REMARK  status: ('A' for Active; 'I' for Inactive)
REMARK    1  A    between atoms: N1_2  and  C2_3 
REMARK    2  A    between atoms: N1_2  and  C14_18 
REMARK    3  A    between atoms: C2_3  and  C3_4 
REMARK    4  A    between atoms: C4_5  and  C5_6 
REMARK    5  A    between atoms: C6_7  and  C7_8 
REMARK       I    between atoms: C7_8  and  N2_10 
REMARK    6  A    between atoms: N2_10  and  C8_11 
REMARK    7  A    between atoms: C14_18  and  C15_19 
ROOT
HETATM    1  C7  UNL     1      26.023   3.454  49.745  1.00  0.00     0.301 C 
HETATM    2  O1  UNL     1      24.833   3.289  49.339  1.00  0.00    -0.258 OA
HETATM    3  N2  UNL     1      26.585   2.712  50.819  1.00  0.00    -0.314 N 
HETATM    4  H8  UNL     1      27.568   2.858  51.147  1.00  0.00     0.170 HD
ENDROOT
BRANCH   1   5
HETATM    5  C6  UNL     1      26.916   4.425  49.139  1.00  0.00    -0.001 C 
HETATM    6  C5  UNL     1      27.648   5.244  48.637  1.00  0.00    -0.069 C 
BRANCH   6   7
HETATM    7  C4  UNL     1      28.511   6.240  48.018  1.00  0.00     0.062 C 
HETATM    8  C3  UNL     1      29.777   5.984  47.724  1.00  0.00     0.001 C 
BRANCH   8   9
HETATM    9  C2  UNL     1      30.966   6.638  47.128  1.00  0.00     0.144 C 
BRANCH   9  10
HETATM   10  N1  UNL     1      32.045   6.577  48.049  1.00  0.00    -0.412 N 
HETATM   11  C1  UNL     1      32.114   5.436  48.890  1.00  0.00     0.143 C 
BRANCH  10  12
HETATM   12  C14 UNL     1      32.484   7.813  48.604  1.00  0.00     0.131 C 
BRANCH  12  13
HETATM   13  C15 UNL     1      31.784   8.247  49.854  1.00  0.00     0.134 C 
HETATM   14 CL1  UNL     1      30.479   9.378  49.364  1.00  0.00    -0.129 Cl
ENDBRANCH  12  13
ENDBRANCH  10  12
ENDBRANCH   9  10
ENDBRANCH   8   9
ENDBRANCH   6   7
ENDBRANCH   1   5
BRANCH   3  15
HETATM   15  C8  UNL     1      26.178   1.684  51.723  1.00  0.00     0.074 A 
HETATM   16  C9  UNL     1      26.809   0.465  51.709  1.00  0.00     0.033 A 
HETATM   17  C10 UNL     1      26.373  -0.504  52.607  1.00  0.00     0.002 A 
HETATM   18  C11 UNL     1      25.334  -0.255  53.494  1.00  0.00     0.003 A 
HETATM   19  C12 UNL     1      24.724   0.975  53.484  1.00  0.00     0.044 A 
HETATM   20  C13 UNL     1      25.148   1.941  52.598  1.00  0.00     0.143 A 
HETATM   21  F1  UNL     1      24.535   3.159  52.589  1.00  0.00    -0.204 F 
ENDBRANCH   3  15
TORSDOF 7
ENDMDL
MODEL 9
REMARK VINA RESULT:      -6.1      2.676      3.474
REMARK  7 active torsions:
REMARK  status: ('A' for Active; 'I' for Inactive)
REMARK    1  A    between atoms: N1_2  and  C2_3 
REMARK    2  A    between atoms: N1_2  and  C14_18 
REMARK    3  A    between atoms: C2_3  and  C3_4 
REMARK    4  A    between atoms: C4_5  and  C5_6 
REMARK    5  A    between atoms: C6_7  and  C7_8 
REMARK       I    between atoms: C7_8  and  N2_10 
REMARK    6  A    between atoms: N2_10  and  C8_11 
REMARK    7  A    between atoms: C14_18  and  C15_19 
ROOT
HETATM    1  C7  UNL     1      24.582  -0.502  53.754  1.00  0.00     0.301 C 
HETATM    2  O1  UNL     1      24.590  -0.923  54.949  1.00  0.00    -0.258 OA
HETATM    3  N2  UNL     1      25.768  -0.223  53.023  1.00  0.00    -0.314 N 
HETATM    4  H8  UNL     1      25.750   0.127  52.037  1.00  0.00     0.170 HD
ENDROOT
BRANCH   1   5
HETATM    5  C6  UNL     1      23.347  -0.266  53.028  1.00  0.00    -0.001 C 
HETATM    6  C5  UNL     1      22.313  -0.066  52.438  1.00  0.00    -0.069 C 
BRANCH   6   7
HETATM    7  C4  UNL     1      21.053   0.165  51.745  1.00  0.00     0.062 C 
HETATM    8  C3  UNL     1      20.123   0.971  52.234  1.00  0.00     0.001 C 
BRANCH   8   9
HETATM    9  C2  UNL     1      18.771   1.485  51.909  1.00  0.00     0.144 C 
BRANCH   9  10
HETATM   10  N1  UNL     1      17.956   0.412  51.461  1.00  0.00    -0.412 N 
HETATM   11  C1  UNL     1      17.856   0.217  50.058  1.00  0.00     0.143 C 
BRANCH  10  12
HETATM   12  C14 UNL     1      16.796   0.121  52.235  1.00  0.00     0.131 C 
BRANCH  12  13
HETATM   13  C15 UNL     1      16.634  -1.308  52.649  1.00  0.00     0.134 C 
HETATM   14 CL1  UNL     1      18.184  -1.820  53.399  1.00  0.00    -0.129 Cl
ENDBRANCH  12  13
ENDBRANCH  10  12
ENDBRANCH   9  10
ENDBRANCH   8   9
ENDBRANCH   6   7
ENDBRANCH   1   5
BRANCH   3  15
HETATM   15  C8  UNL     1      27.181  -0.275  53.235  1.00  0.00     0.074 A 
HETATM   16  C9  UNL     1      27.870  -1.439  52.999  1.00  0.00     0.033 A 
HETATM   17  C10 UNL     1      29.243  -1.439  53.224  1.00  0.00     0.002 A 
HETATM   18  C11 UNL     1      29.903  -0.303  53.671  1.00  0.00     0.003 A 
HETATM   19  C12 UNL     1      29.186   0.845  53.897  1.00  0.00     0.044 A 
HETATM   20  C13 UNL     1      27.826   0.855  53.678  1.00  0.00     0.143 A 
HETATM   21  F1  UNL     1      27.117   1.998  53.908  1.00  0.00    -0.204 F 
ENDBRANCH   3  15
TORSDOF 7
ENDMDL
