MODEL 1
REMARK VINA RESULT:      -7.2      0.000      0.000
REMARK  7 active torsions:
REMARK  status: ('A' for Active; 'I' for Inactive)
REMARK    1  A    between atoms: N1_1  and  C1_2 
REMARK    2  A    between atoms: C3_5  and  C4_6 
REMARK    3  A    between atoms: C5_7  and  N3_8 
REMARK    4  A    between atoms: N3_8  and  C6_9 
REMARK    5  A    between atoms: C6_9  and  C7_10 
REMARK    6  A    between atoms: C13_16  and  N4_17 
REMARK    7  A    between atoms: N4_17  and  C14_18 
ROOT
HETATM    1  C1  UNL     1      27.855   1.723  53.742  1.00  0.00     0.721 A 
HETATM    2  N2  UNL     1      27.610   0.869  54.744  1.00  0.00    -0.074 NA
HETATM    3  C2  UNL     1      26.537   0.072  54.828  1.00  0.00     0.151 A 
HETATM    4  C3  UNL     1      25.594   0.119  53.812  1.00  0.00     0.030 A 
HETATM    5  C13 UNL     1      25.830   0.992  52.773  1.00  0.00     0.159 A 
HETATM    6  N5  UNL     1      26.927   1.769  52.743  1.00  0.00    -0.044 NA
ENDROOT
BRANCH   4   7
HETATM    7  C4  UNL     1      24.405  -0.664  53.756  1.00  0.00     0.033 C 
HETATM    8  C5  UNL     1      23.108  -0.439  53.771  1.00  0.00     0.084 C 
BRANCH   8   9
HETATM    9  N3  UNL     1      22.038   0.488  53.833  1.00  0.00    -0.395 N 
HETATM   10  H6  UNL     1      22.074   1.359  54.415  1.00  0.00     0.159 HD
BRANCH   9  11
HETATM   11  C6  UNL     1      20.814   0.243  53.052  1.00  0.00     0.157 C 
BRANCH  11  12
HETATM   12  C7  UNL     1      20.919   1.127  51.836  1.00  0.00    -0.041 A 
HETATM   13  C8  UNL     1      20.419   2.389  51.867  1.00  0.00     0.009 A 
HETATM   14  C9  UNL     1      20.538   3.163  50.731  1.00  0.00     0.001 A 
HETATM   15  C10 UNL     1      21.148   2.684  49.578  1.00  0.00     0.000 A 
HETATM   16  C11 UNL     1      21.661   1.389  49.547  1.00  0.00     0.001 A 
HETATM   17  C12 UNL     1      21.539   0.608  50.696  1.00  0.00     0.009 A 
ENDBRANCH  11  12
ENDBRANCH   9  11
ENDBRANCH   8   9
ENDBRANCH   4   7
BRANCH   5  18
HETATM   18  N4  UNL     1      25.064   1.279  51.627  1.00  0.00    -0.340 N 
HETATM   19  H14 UNL     1      24.823   0.654  50.832  1.00  0.00     0.167 HD
BRANCH  18  20
HETATM   20  C14 UNL     1      24.562   2.633  51.571  1.00  0.00     0.035 A 
HETATM   21  C15 UNL     1      23.928   3.197  52.681  1.00  0.00     0.029 A 
HETATM   22  C16 UNL     1      23.417   4.477  52.722  1.00  0.00     0.004 A 
HETATM   23  C17 UNL     1      23.544   5.258  51.582  1.00  0.00     0.019 A 
HETATM   24  C18 UNL     1      24.161   4.734  50.474  1.00  0.00     0.013 A 
HETATM   25 BR1  UNL     1      24.389   5.728  48.845  1.00  0.00    -0.051 Br
HETATM   26  C19 UNL     1      24.654   3.454  50.479  1.00  0.00     0.048 A 
ENDBRANCH  18  20
ENDBRANCH   5  18
BRANCH   1  27
HETATM   27  N1  UNL     1      29.047   2.483  53.833  1.00  0.00    -0.231 N 
HETATM   28  H1  UNL     1      29.388   2.417  54.816  1.00  0.00     0.174 HD
HETATM   29  H2  UNL     1      29.481   2.997  53.058  1.00  0.00     0.174 HD
ENDBRANCH   1  27
TORSDOF 7
ENDMDL
MODEL 2
REMARK VINA RESULT:      -7.0      1.543      2.271
REMARK  7 active torsions:
REMARK  status: ('A' for Active; 'I' for Inactive)
REMARK    1  A    between atoms: N1_1  and  C1_2 
REMARK    2  A    between atoms: C3_5  and  C4_6 
REMARK    3  A    between atoms: C5_7  and  N3_8 
REMARK    4  A    between atoms: N3_8  and  C6_9 
REMARK    5  A    between atoms: C6_9  and  C7_10 
REMARK    6  A    between atoms: C13_16  and  N4_17 
REMARK    7  A    between atoms: N4_17  and  C14_18 
ROOT
HETATM    1  C1  UNL     1      28.600   1.718  53.965  1.00  0.00     0.721 A 
HETATM    2  N2  UNL     1      28.049   0.987  54.944  1.00  0.00    -0.074 NA
HETATM    3  C2  UNL     1      26.950   0.233  54.813  1.00  0.00     0.151 A 
HETATM    4  C3  UNL     1      26.317   0.190  53.579  1.00  0.00     0.030 A 
HETATM    5  C13 UNL     1      26.870   0.935  52.561  1.00  0.00     0.159 A 
HETATM    6  N5  UNL     1      27.977   1.675  52.752  1.00  0.00    -0.044 NA
ENDROOT
BRANCH   4   7
HETATM    7  C4  UNL     1      25.145  -0.563  53.282  1.00  0.00     0.033 C 
HETATM    8  C5  UNL     1      23.849  -0.338  53.230  1.00  0.00     0.084 C 
BRANCH   8   9
HETATM    9  N3  UNL     1      22.768   0.567  53.374  1.00  0.00    -0.395 N 
HETATM   10  H6  UNL     1      22.774   1.529  52.958  1.00  0.00     0.159 HD
BRANCH   9  11
HETATM   11  C6  UNL     1      21.574   0.162  54.134  1.00  0.00     0.157 C 
BRANCH  11  12
HETATM   12  C7  UNL     1      20.448   0.114  53.133  1.00  0.00    -0.041 A 
HETATM   13  C8  UNL     1      19.372  -0.684  53.355  1.00  0.00     0.009 A 
HETATM   14  C9  UNL     1      18.366  -0.696  52.412  1.00  0.00     0.001 A 
HETATM   15  C10 UNL     1      18.430   0.080  51.261  1.00  0.00     0.000 A 
HETATM   16  C11 UNL     1      19.534   0.899  51.033  1.00  0.00     0.001 A 
HETATM   17  C12 UNL     1      20.551   0.909  51.987  1.00  0.00     0.009 A 
ENDBRANCH  11  12
ENDBRANCH   9  11
ENDBRANCH   8   9
ENDBRANCH   4   7
BRANCH   5  18
HETATM   18  N4  UNL     1      26.456   1.112  51.227  1.00  0.00    -0.340 N 
HETATM   19  H14 UNL     1      26.505   0.438  50.436  1.00  0.00     0.167 HD
BRANCH  18  20
HETATM   20  C14 UNL     1      25.897   2.414  50.945  1.00  0.00     0.035 A 
HETATM   21  C15 UNL     1      26.496   3.250  50.000  1.00  0.00     0.029 A 
HETATM   22  C16 UNL     1      26.037   4.506  49.665  1.00  0.00     0.004 A 
HETATM   23  C17 UNL     1      24.902   4.971  50.313  1.00  0.00     0.019 A 
HETATM   24  C18 UNL     1      24.288   4.175  51.248  1.00  0.00     0.013 A 
HETATM   25 BR1  UNL     1      22.712   4.720  52.203  1.00  0.00    -0.051 Br
HETATM   26  C19 UNL     1      24.782   2.930  51.548  1.00  0.00     0.048 A 
ENDBRANCH  18  20
ENDBRANCH   5  18
BRANCH   1  27
HETATM   27  N1  UNL     1      29.765   2.451  54.299  1.00  0.00    -0.231 N 
HETATM   28  H1  UNL     1      30.142   2.861  53.418  1.00  0.00     0.174 HD
HETATM   29  H2  UNL     1      30.150   2.549  55.245  1.00  0.00     0.174 HD
ENDBRANCH   1  27
TORSDOF 7
ENDMDL
MODEL 3
REMARK VINA RESULT:      -7.0      2.334      3.962
REMARK  7 active torsions:
REMARK  status: ('A' for Active; 'I' for Inactive)
REMARK    1  A    between atoms: N1_1  and  C1_2 
REMARK    2  A    between atoms: C3_5  and  C4_6 
REMARK    3  A    between atoms: C5_7  and  N3_8 
REMARK    4  A    between atoms: N3_8  and  C6_9 
REMARK    5  A    between atoms: C6_9  and  C7_10 
REMARK    6  A    between atoms: C13_16  and  N4_17 
REMARK    7  A    between atoms: N4_17  and  C14_18 
ROOT
HETATM    1  C1  UNL     1      26.947   2.466  52.855  1.00  0.00     0.721 A 
HETATM    2  N2  UNL     1      25.694   2.257  53.280  1.00  0.00    -0.074 NA
HETATM    3  C2  UNL     1      24.605   2.287  52.502  1.00  0.00     0.151 A 
HETATM    4  C3  UNL     1      24.762   2.552  51.149  1.00  0.00     0.030 A 
HETATM    5  C13 UNL     1      26.043   2.769  50.694  1.00  0.00     0.159 A 
HETATM    6  N5  UNL     1      27.100   2.727  51.524  1.00  0.00    -0.044 NA
ENDROOT
BRANCH   4   7
HETATM    7  C4  UNL     1      23.705   2.615  50.194  1.00  0.00     0.033 C 
HETATM    8  C5  UNL     1      22.604   1.941  49.939  1.00  0.00     0.084 C 
BRANCH   8   9
HETATM    9  N3  UNL     1      21.730   0.875  50.268  1.00  0.00    -0.395 N 
HETATM   10  H6  UNL     1      21.788  -0.068  49.815  1.00  0.00     0.159 HD
BRANCH   9  11
HETATM   11  C6  UNL     1      20.688   1.075  51.289  1.00  0.00     0.157 C 
BRANCH  11  12
HETATM   12  C7  UNL     1      21.194   0.388  52.531  1.00  0.00    -0.041 A 
HETATM   13  C8  UNL     1      22.247  -0.468  52.455  1.00  0.00     0.009 A 
HETATM   14  C9  UNL     1      22.676  -1.074  53.617  1.00  0.00     0.001 A 
HETATM   15  C10 UNL     1      22.065  -0.830  54.841  1.00  0.00     0.000 A 
HETATM   16  C11 UNL     1      20.985   0.048  54.919  1.00  0.00     0.001 A 
HETATM   17  C12 UNL     1      20.552   0.659  53.742  1.00  0.00     0.009 A 
ENDBRANCH  11  12
ENDBRANCH   9  11
ENDBRANCH   8   9
ENDBRANCH   4   7
BRANCH   5  18
HETATM   18  N4  UNL     1      26.518   3.077  49.404  1.00  0.00    -0.340 N 
HETATM   19  H14 UNL     1      26.715   2.432  48.613  1.00  0.00     0.167 HD
BRANCH  18  20
HETATM   20  C14 UNL     1      26.758   4.484  49.180  1.00  0.00     0.035 A 
HETATM   21  C15 UNL     1      27.918   4.906  48.526  1.00  0.00     0.029 A 
HETATM   22  C16 UNL     1      28.234   6.224  48.268  1.00  0.00     0.004 A 
HETATM   23  C17 UNL     1      27.336   7.195  48.686  1.00  0.00     0.019 A 
HETATM   24  C18 UNL     1      26.186   6.814  49.331  1.00  0.00     0.013 A 
HETATM   25 BR1  UNL     1      24.876   8.076  49.951  1.00  0.00    -0.051 Br
HETATM   26  C19 UNL     1      25.914   5.490  49.566  1.00  0.00     0.048 A 
ENDBRANCH  18  20
ENDBRANCH   5  18
BRANCH   1  27
HETATM   27  N1  UNL     1      27.969   2.394  53.832  1.00  0.00    -0.231 N 
HETATM   28  H1  UNL     1      27.575   2.756  54.727  1.00  0.00     0.174 HD
HETATM   29  H2  UNL     1      28.920   2.045  53.668  1.00  0.00     0.174 HD
ENDBRANCH   1  27
TORSDOF 7
ENDMDL
MODEL 4
REMARK VINA RESULT:      -6.9      2.746      5.454
REMARK  7 active torsions:
REMARK  status: ('A' for Active; 'I' for Inactive)
REMARK    1  A    between atoms: N1_1  and  C1_2 
REMARK    2  A    between atoms: C3_5  and  C4_6 
REMARK    3  A    between atoms: C5_7  and  N3_8 
REMARK    4  A    between atoms: N3_8  and  C6_9 
REMARK    5  A    between atoms: C6_9  and  C7_10 
REMARK    6  A    between atoms: C13_16  and  N4_17 
REMARK    7  A    between atoms: N4_17  and  C14_18 
ROOT
HETATM    1  C1  UNL     1      27.291   0.325  54.313  1.00  0.00     0.721 A 
HETATM    2  N2  UNL     1      27.286   1.663  54.355  1.00  0.00    -0.074 NA
HETATM    3  C2  UNL     1      26.352   2.446  53.798  1.00  0.00     0.151 A 
HETATM    4  C3  UNL     1      25.301   1.845  53.121  1.00  0.00     0.030 A 
HETATM    5  C13 UNL     1      25.290   0.469  53.068  1.00  0.00     0.159 A 
HETATM    6  N5  UNL     1      26.256  -0.265  53.647  1.00  0.00    -0.044 NA
ENDROOT
BRANCH   4   7
HETATM    7  C4  UNL     1      24.233   2.538  52.479  1.00  0.00     0.033 C 
HETATM    8  C5  UNL     1      24.098   3.625  51.750  1.00  0.00     0.084 C 
BRANCH   8   9
HETATM    9  N3  UNL     1      24.694   4.749  51.126  1.00  0.00    -0.395 N 
HETATM   10  H6  UNL     1      25.286   5.440  51.646  1.00  0.00     0.159 HD
BRANCH   9  11
HETATM   11  C6  UNL     1      24.489   4.978  49.686  1.00  0.00     0.157 C 
BRANCH  11  12
HETATM   12  C7  UNL     1      25.836   5.372  49.138  1.00  0.00    -0.041 A 
HETATM   13  C8  UNL     1      26.845   4.463  49.089  1.00  0.00     0.009 A 
HETATM   14  C9  UNL     1      28.060   4.869  48.579  1.00  0.00     0.001 A 
HETATM   15  C10 UNL     1      28.269   6.164  48.122  1.00  0.00     0.000 A 
HETATM   16  C11 UNL     1      27.235   7.097  48.173  1.00  0.00     0.001 A 
HETATM   17  C12 UNL     1      26.006   6.686  48.689  1.00  0.00     0.009 A 
ENDBRANCH  11  12
ENDBRANCH   9  11
ENDBRANCH   8   9
ENDBRANCH   4   7
BRANCH   5  18
HETATM   18  N4  UNL     1      24.386  -0.416  52.448  1.00  0.00    -0.340 N 
HETATM   19  H14 UNL     1      24.560  -1.086  51.673  1.00  0.00     0.167 HD
BRANCH  18  20
HETATM   20  C14 UNL     1      23.043  -0.360  52.977  1.00  0.00     0.035 A 
HETATM   21  C15 UNL     1      22.810  -0.583  54.336  1.00  0.00     0.029 A 
HETATM   22  C16 UNL     1      21.566  -0.551  54.931  1.00  0.00     0.004 A 
HETATM   23  C17 UNL     1      20.472  -0.278  54.123  1.00  0.00     0.019 A 
HETATM   24  C18 UNL     1      20.666  -0.053  52.783  1.00  0.00     0.013 A 
HETATM   25 BR1  UNL     1      19.222   0.333  51.575  1.00  0.00    -0.051 Br
HETATM   26  C19 UNL     1      21.923  -0.095  52.235  1.00  0.00     0.048 A 
ENDBRANCH  18  20
ENDBRANCH   5  18
BRANCH   1  27
HETATM   27  N1  UNL     1      28.367  -0.327  54.963  1.00  0.00    -0.231 N 
HETATM   28  H1  UNL     1      28.110  -1.332  55.066  1.00  0.00     0.174 HD
HETATM   29  H2  UNL     1      29.234   0.128  55.269  1.00  0.00     0.174 HD
ENDBRANCH   1  27
TORSDOF 7
ENDMDL
MODEL 5
REMARK VINA RESULT:      -6.9      1.878      6.039
REMARK  7 active torsions:
REMARK  status: ('A' for Active; 'I' for Inactive)
REMARK    1  A    between atoms: N1_1  and  C1_2 
REMARK    2  A    between atoms: C3_5  and  C4_6 
REMARK    3  A    between atoms: C5_7  and  N3_8 
REMARK    4  A    between atoms: N3_8  and  C6_9 
REMARK    5  A    between atoms: C6_9  and  C7_10 
REMARK    6  A    between atoms: C13_16  and  N4_17 
REMARK    7  A    between atoms: N4_17  and  C14_18 
ROOT
HETATM    1  C1  UNL     1      21.354  -0.779  53.879  1.00  0.00     0.721 A 
HETATM    2  N2  UNL     1      22.653  -0.963  54.150  1.00  0.00    -0.074 NA
HETATM    3  C2  UNL     1      23.633  -0.110  53.825  1.00  0.00     0.151 A 
HETATM    4  C3  UNL     1      23.301   1.060  53.157  1.00  0.00     0.030 A 
HETATM    5  C13 UNL     1      21.970   1.265  52.871  1.00  0.00     0.159 A 
HETATM    6  N5  UNL     1      21.029   0.372  53.223  1.00  0.00    -0.044 NA
ENDROOT
BRANCH   4   7
HETATM    7  C4  UNL     1      24.226   2.064  52.747  1.00  0.00     0.033 C 
HETATM    8  C5  UNL     1      25.449   2.427  53.067  1.00  0.00     0.084 C 
BRANCH   8   9
HETATM    9  N3  UNL     1      26.608   2.223  53.856  1.00  0.00    -0.395 N 
HETATM   10  H6  UNL     1      26.573   2.103  54.897  1.00  0.00     0.159 HD
BRANCH   9  11
HETATM   11  C6  UNL     1      27.931   2.170  53.211  1.00  0.00     0.157 C 
BRANCH  11  12
HETATM   12  C7  UNL     1      28.348   0.723  53.250  1.00  0.00    -0.041 A 
HETATM   13  C8  UNL     1      29.580   0.381  53.711  1.00  0.00     0.009 A 
HETATM   14  C9  UNL     1      29.918  -0.956  53.728  1.00  0.00     0.001 A 
HETATM   15  C10 UNL     1      29.040  -1.941  53.293  1.00  0.00     0.000 A 
HETATM   16  C11 UNL     1      27.778  -1.590  52.820  1.00  0.00     0.001 A 
HETATM   17  C12 UNL     1      27.437  -0.238  52.802  1.00  0.00     0.009 A 
ENDBRANCH  11  12
ENDBRANCH   9  11
ENDBRANCH   8   9
ENDBRANCH   4   7
BRANCH   5  18
HETATM   18  N4  UNL     1      21.331   2.325  52.198  1.00  0.00    -0.340 N 
HETATM   19  H14 UNL     1      20.715   3.066  52.588  1.00  0.00     0.167 HD
BRANCH  18  20
HETATM   20  C14 UNL     1      21.578   2.359  50.775  1.00  0.00     0.035 A 
HETATM   21  C15 UNL     1      21.367   1.220  49.994  1.00  0.00     0.029 A 
HETATM   22  C16 UNL     1      21.575   1.157  48.632  1.00  0.00     0.004 A 
HETATM   23  C17 UNL     1      22.025   2.304  47.996  1.00  0.00     0.019 A 
HETATM   24  C18 UNL     1      22.243   3.441  48.733  1.00  0.00     0.013 A 
HETATM   25 BR1  UNL     1      22.865   5.083  47.952  1.00  0.00    -0.051 Br
HETATM   26  C19 UNL     1      22.022   3.457  50.087  1.00  0.00     0.048 A 
ENDBRANCH  18  20
ENDBRANCH   5  18
BRANCH   1  27
HETATM   27  N1  UNL     1      20.467  -1.798  54.304  1.00  0.00    -0.231 N 
HETATM   28  H1  UNL     1      21.022  -2.488  54.856  1.00  0.00     0.174 HD
HETATM   29  H2  UNL     1      19.463  -1.832  54.096  1.00  0.00     0.174 HD
ENDBRANCH   1  27
TORSDOF 7
ENDMDL
MODEL 6
REMARK VINA RESULT:      -6.8      2.367      3.492
REMARK  7 active torsions:
REMARK  status: ('A' for Active; 'I' for Inactive)
REMARK    1  A    between atoms: N1_1  and  C1_2 
REMARK    2  A    between atoms: C3_5  and  C4_6 
REMARK    3  A    between atoms: C5_7  and  N3_8 
REMARK    4  A    between atoms: N3_8  and  C6_9 
REMARK    5  A    between atoms: C6_9  and  C7_10 
REMARK    6  A    between atoms: C13_16  and  N4_17 
REMARK    7  A    between atoms: N4_17  and  C14_18 
ROOT
HETATM    1  C1  UNL     1      27.298   2.284  53.139  1.00  0.00     0.721 A 
HETATM    2  N2  UNL     1      26.132   1.980  53.723  1.00  0.00    -0.074 NA
HETATM    3  C2  UNL     1      24.955   1.897  53.089  1.00  0.00     0.151 A 
HETATM    4  C3  UNL     1      24.917   2.139  51.724  1.00  0.00     0.030 A 
HETATM    5  C13 UNL     1      26.107   2.453  51.107  1.00  0.00     0.159 A 
HETATM    6  N5  UNL     1      27.260   2.522  51.796  1.00  0.00    -0.044 NA
ENDROOT
BRANCH   4   7
HETATM    7  C4  UNL     1      23.747   2.087  50.911  1.00  0.00     0.033 C 
HETATM    8  C5  UNL     1      22.622   1.405  50.895  1.00  0.00     0.084 C 
BRANCH   8   9
HETATM    9  N3  UNL     1      21.795   0.414  51.481  1.00  0.00    -0.395 N 
HETATM   10  H6  UNL     1      21.686  -0.547  51.077  1.00  0.00     0.159 HD
BRANCH   9  11
HETATM   11  C6  UNL     1      21.048   0.722  52.712  1.00  0.00     0.157 C 
BRANCH  11  12
HETATM   12  C7  UNL     1      19.693   0.085  52.539  1.00  0.00    -0.041 A 
HETATM   13  C8  UNL     1      19.251  -0.830  53.441  1.00  0.00     0.009 A 
HETATM   14  C9  UNL     1      18.005  -1.387  53.243  1.00  0.00     0.001 A 
HETATM   15  C10 UNL     1      17.208  -1.036  52.160  1.00  0.00     0.000 A 
HETATM   16  C11 UNL     1      17.662  -0.099  51.235  1.00  0.00     0.001 A 
HETATM   17  C12 UNL     1      18.923   0.463  51.436  1.00  0.00     0.009 A 
ENDBRANCH  11  12
ENDBRANCH   9  11
ENDBRANCH   8   9
ENDBRANCH   4   7
BRANCH   5  18
HETATM   18  N4  UNL     1      26.386   2.767  49.762  1.00  0.00    -0.340 N 
HETATM   19  H14 UNL     1      26.524   2.121  48.958  1.00  0.00     0.167 HD
BRANCH  18  20
HETATM   20  C14 UNL     1      26.497   4.182  49.493  1.00  0.00     0.035 A 
HETATM   21  C15 UNL     1      27.557   4.674  48.728  1.00  0.00     0.029 A 
HETATM   22  C16 UNL     1      27.746   6.005  48.419  1.00  0.00     0.004 A 
HETATM   23  C17 UNL     1      26.818   6.916  48.902  1.00  0.00     0.019 A 
HETATM   24  C18 UNL     1      25.764   6.466  49.658  1.00  0.00     0.013 A 
HETATM   25 BR1  UNL     1      24.424   7.641  50.376  1.00  0.00    -0.051 Br
HETATM   26  C19 UNL     1      25.617   5.131  49.939  1.00  0.00     0.048 A 
ENDBRANCH  18  20
ENDBRANCH   5  18
BRANCH   1  27
HETATM   27  N1  UNL     1      28.437   2.324  53.979  1.00  0.00    -0.231 N 
HETATM   28  H1  UNL     1      29.272   2.122  53.387  1.00  0.00     0.174 HD
HETATM   29  H2  UNL     1      28.422   2.519  54.986  1.00  0.00     0.174 HD
ENDBRANCH   1  27
TORSDOF 7
ENDMDL
MODEL 7
REMARK VINA RESULT:      -6.8      2.811      5.125
REMARK  7 active torsions:
REMARK  status: ('A' for Active; 'I' for Inactive)
REMARK    1  A    between atoms: N1_1  and  C1_2 
REMARK    2  A    between atoms: C3_5  and  C4_6 
REMARK    3  A    between atoms: C5_7  and  N3_8 
REMARK    4  A    between atoms: N3_8  and  C6_9 
REMARK    5  A    between atoms: C6_9  and  C7_10 
REMARK    6  A    between atoms: C13_16  and  N4_17 
REMARK    7  A    between atoms: N4_17  and  C14_18 
ROOT
HETATM    1  C1  UNL     1      23.780   6.127  50.940  1.00  0.00     0.721 A 
HETATM    2  N2  UNL     1      22.550   5.971  50.433  1.00  0.00    -0.074 NA
HETATM    3  C2  UNL     1      22.120   4.881  49.785  1.00  0.00     0.151 A 
HETATM    4  C3  UNL     1      22.997   3.820  49.614  1.00  0.00     0.030 A 
HETATM    5  C13 UNL     1      24.266   3.963  50.129  1.00  0.00     0.159 A 
HETATM    6  N5  UNL     1      24.642   5.083  50.772  1.00  0.00    -0.044 NA
ENDROOT
BRANCH   4   7
HETATM    7  C4  UNL     1      22.690   2.596  48.951  1.00  0.00     0.033 C 
HETATM    8  C5  UNL     1      21.955   1.532  49.197  1.00  0.00     0.084 C 
BRANCH   8   9
HETATM    9  N3  UNL     1      21.073   0.841  50.064  1.00  0.00    -0.395 N 
HETATM   10  H6  UNL     1      20.721  -0.125  49.864  1.00  0.00     0.159 HD
BRANCH   9  11
HETATM   11  C6  UNL     1      20.619   1.486  51.308  1.00  0.00     0.157 C 
BRANCH  11  12
HETATM   12  C7  UNL     1      21.074   0.584  52.426  1.00  0.00    -0.041 A 
HETATM   13  C8  UNL     1      21.847  -0.500  52.156  1.00  0.00     0.009 A 
HETATM   14  C9  UNL     1      22.241  -1.296  53.211  1.00  0.00     0.001 A 
HETATM   15  C10 UNL     1      21.868  -1.016  54.521  1.00  0.00     0.000 A 
HETATM   16  C11 UNL     1      21.075   0.096  54.797  1.00  0.00     0.001 A 
HETATM   17  C12 UNL     1      20.678   0.900  53.729  1.00  0.00     0.009 A 
ENDBRANCH  11  12
ENDBRANCH   9  11
ENDBRANCH   8   9
ENDBRANCH   4   7
BRANCH   5  18
HETATM   18  N4  UNL     1      25.371   3.089  50.100  1.00  0.00    -0.340 N 
HETATM   19  H14 UNL     1      25.978   2.835  49.294  1.00  0.00     0.167 HD
BRANCH  18  20
HETATM   20  C14 UNL     1      25.675   2.473  51.370  1.00  0.00     0.035 A 
HETATM   21  C15 UNL     1      24.679   1.809  52.090  1.00  0.00     0.029 A 
HETATM   22  C16 UNL     1      24.873   1.193  53.308  1.00  0.00     0.004 A 
HETATM   23  C17 UNL     1      26.147   1.236  53.855  1.00  0.00     0.019 A 
HETATM   24  C18 UNL     1      27.150   1.881  53.175  1.00  0.00     0.013 A 
HETATM   25 BR1  UNL     1      28.948   2.002  53.842  1.00  0.00    -0.051 Br
HETATM   26  C19 UNL     1      26.909   2.481  51.964  1.00  0.00     0.048 A 
ENDBRANCH  18  20
ENDBRANCH   5  18
BRANCH   1  27
HETATM   27  N1  UNL     1      24.046   7.355  51.593  1.00  0.00    -0.231 N 
HETATM   28  H1  UNL     1      24.102   7.162  52.616  1.00  0.00     0.174 HD
HETATM   29  H2  UNL     1      24.160   8.261  51.124  1.00  0.00     0.174 HD
ENDBRANCH   1  27
TORSDOF 7
ENDMDL
MODEL 8
REMARK VINA RESULT:      -6.7      2.301      3.374
REMARK  7 active torsions:
REMARK  status: ('A' for Active; 'I' for Inactive)
REMARK    1  A    between atoms: N1_1  and  C1_2 
REMARK    2  A    between atoms: C3_5  and  C4_6 
REMARK    3  A    between atoms: C5_7  and  N3_8 
REMARK    4  A    between atoms: N3_8  and  C6_9 
REMARK    5  A    between atoms: C6_9  and  C7_10 
REMARK    6  A    between atoms: C13_16  and  N4_17 
REMARK    7  A    between atoms: N4_17  and  C14_18 
ROOT
HETATM    1  C1  UNL     1      27.944   2.240  53.393  1.00  0.00     0.721 A 
HETATM    2  N2  UNL     1      26.947   1.793  54.168  1.00  0.00    -0.074 NA
HETATM    3  C2  UNL     1      25.714   1.499  53.739  1.00  0.00     0.151 A 
HETATM    4  C3  UNL     1      25.423   1.660  52.392  1.00  0.00     0.030 A 
HETATM    5  C13 UNL     1      26.436   2.118  51.580  1.00  0.00     0.159 A 
HETATM    6  N5  UNL     1      27.657   2.398  52.068  1.00  0.00    -0.044 NA
ENDROOT
BRANCH   4   7
HETATM    7  C4  UNL     1      24.163   1.388  51.783  1.00  0.00     0.033 C 
HETATM    8  C5  UNL     1      23.066   2.062  51.510  1.00  0.00     0.084 C 
BRANCH   8   9
HETATM    9  N3  UNL     1      22.352   3.285  51.552  1.00  0.00    -0.395 N 
HETATM   10  H6  UNL     1      22.643   4.093  52.152  1.00  0.00     0.159 HD
BRANCH   9  11
HETATM   11  C6  UNL     1      21.145   3.454  50.725  1.00  0.00     0.157 C 
BRANCH  11  12
HETATM   12  C7  UNL     1      21.539   4.391  49.612  1.00  0.00    -0.041 A 
HETATM   13  C8  UNL     1      22.471   4.012  48.699  1.00  0.00     0.009 A 
HETATM   14  C9  UNL     1      22.800   4.902  47.699  1.00  0.00     0.001 A 
HETATM   15  C10 UNL     1      22.206   6.155  47.608  1.00  0.00     0.000 A 
HETATM   16  C11 UNL     1      21.251   6.544  48.544  1.00  0.00     0.001 A 
HETATM   17  C12 UNL     1      20.920   5.643  49.556  1.00  0.00     0.009 A 
ENDBRANCH  11  12
ENDBRANCH   9  11
ENDBRANCH   8   9
ENDBRANCH   4   7
BRANCH   5  18
HETATM   18  N4  UNL     1      26.447   2.399  50.199  1.00  0.00    -0.340 N 
HETATM   19  H14 UNL     1      26.508   1.735  49.401  1.00  0.00     0.167 HD
BRANCH  18  20
HETATM   20  C14 UNL     1      26.367   3.805  49.879  1.00  0.00     0.035 A 
HETATM   21  C15 UNL     1      27.246   4.369  48.952  1.00  0.00     0.029 A 
HETATM   22  C16 UNL     1      27.246   5.698  48.583  1.00  0.00     0.004 A 
HETATM   23  C17 UNL     1      26.307   6.530  49.174  1.00  0.00     0.019 A 
HETATM   24  C18 UNL     1      25.428   6.008  50.089  1.00  0.00     0.013 A 
HETATM   25 BR1  UNL     1      24.088   7.072  50.966  1.00  0.00    -0.051 Br
HETATM   26  C19 UNL     1      25.465   4.679  50.425  1.00  0.00     0.048 A 
ENDBRANCH  18  20
ENDBRANCH   5  18
BRANCH   1  27
HETATM   27  N1  UNL     1      29.180   2.497  54.034  1.00  0.00    -0.231 N 
HETATM   28  H1  UNL     1      29.884   1.838  53.636  1.00  0.00     0.174 HD
HETATM   29  H2  UNL     1      29.334   3.208  54.756  1.00  0.00     0.174 HD
ENDBRANCH   1  27
TORSDOF 7
ENDMDL
MODEL 9
REMARK VINA RESULT:      -6.6      2.982      5.278
REMARK  7 active torsions:
REMARK  status: ('A' for Active; 'I' for Inactive)
REMARK    1  A    between atoms: N1_1  and  C1_2 
REMARK    2  A    between atoms: C3_5  and  C4_6 
REMARK    3  A    between atoms: C5_7  and  N3_8 
REMARK    4  A    between atoms: N3_8  and  C6_9 
REMARK    5  A    between atoms: C6_9  and  C7_10 
REMARK    6  A    between atoms: C13_16  and  N4_17 
REMARK    7  A    between atoms: N4_17  and  C14_18 
ROOT
HETATM    1  C1  UNL     1      25.327  -0.668  55.312  1.00  0.00     0.721 A 
HETATM    2  N2  UNL     1      26.540  -0.100  55.318  1.00  0.00    -0.074 NA
HETATM    3  C2  UNL     1      27.107   0.510  54.269  1.00  0.00     0.151 A 
HETATM    4  C3  UNL     1      26.402   0.571  53.075  1.00  0.00     0.030 A 
HETATM    5  C13 UNL     1      25.153  -0.008  53.051  1.00  0.00     0.159 A 
HETATM    6  N5  UNL     1      24.635  -0.608  54.137  1.00  0.00    -0.044 NA
ENDROOT
BRANCH   4   7
HETATM    7  C4  UNL     1      26.867   1.185  51.876  1.00  0.00     0.033 C 
HETATM    8  C5  UNL     1      26.673   2.324  51.246  1.00  0.00     0.084 C 
BRANCH   8   9
HETATM    9  N3  UNL     1      26.033   3.588  51.193  1.00  0.00    -0.395 N 
HETATM   10  H6  UNL     1      26.040   4.262  51.995  1.00  0.00     0.159 HD
BRANCH   9  11
HETATM   11  C6  UNL     1      25.322   3.994  49.969  1.00  0.00     0.157 C 
BRANCH  11  12
HETATM   12  C7  UNL     1      26.220   4.993  49.287  1.00  0.00    -0.041 A 
HETATM   13  C8  UNL     1      25.785   6.261  49.064  1.00  0.00     0.009 A 
HETATM   14  C9  UNL     1      26.641   7.141  48.437  1.00  0.00     0.001 A 
HETATM   15  C10 UNL     1      27.917   6.763  48.036  1.00  0.00     0.000 A 
HETATM   16  C11 UNL     1      28.364   5.463  48.264  1.00  0.00     0.001 A 
HETATM   17  C12 UNL     1      27.496   4.574  48.898  1.00  0.00     0.009 A 
ENDBRANCH  11  12
ENDBRANCH   9  11
ENDBRANCH   8   9
ENDBRANCH   4   7
BRANCH   5  18
HETATM   18  N4  UNL     1      24.219  -0.127  52.004  1.00  0.00    -0.340 N 
HETATM   19  H14 UNL     1      24.297  -0.673  51.122  1.00  0.00     0.167 HD
BRANCH  18  20
HETATM   20  C14 UNL     1      23.002   0.624  52.205  1.00  0.00     0.035 A 
HETATM   21  C15 UNL     1      23.050   2.005  52.405  1.00  0.00     0.029 A 
HETATM   22  C16 UNL     1      21.944   2.805  52.605  1.00  0.00     0.004 A 
HETATM   23  C17 UNL     1      20.699   2.193  52.607  1.00  0.00     0.019 A 
HETATM   24  C18 UNL     1      20.616   0.837  52.414  1.00  0.00     0.013 A 
HETATM   25 BR1  UNL     1      18.944  -0.110  52.398  1.00  0.00    -0.051 Br
HETATM   26  C19 UNL     1      21.745   0.082  52.218  1.00  0.00     0.048 A 
ENDBRANCH  18  20
ENDBRANCH   5  18
BRANCH   1  27
HETATM   27  N1  UNL     1      24.901  -1.266  56.522  1.00  0.00    -0.231 N 
HETATM   28  H1  UNL     1      23.863  -1.358  56.479  1.00  0.00     0.174 HD
HETATM   29  H2  UNL     1      25.519  -1.550  57.291  1.00  0.00     0.174 HD
ENDBRANCH   1  27
TORSDOF 7
ENDMDL
