MODEL 1
REMARK VINA RESULT:      -8.6      0.000      0.000
REMARK  3 active torsions:
REMARK  status: ('A' for Active; 'I' for Inactive)
REMARK    1  A    between atoms: C2_2  and  N1_3 
REMARK    2  A    between atoms: C2_2  and  C7_9 
REMARK    3  A    between atoms: N1_3  and  C3_4 
ROOT
HETATM    1  C7  UNL     1      25.810   0.587  52.422  1.00  0.00    -0.001 A 
HETATM    2  C8  UNL     1      26.582   1.352  51.579  1.00  0.00     0.014 A 
HETATM    3  C9  UNL     1      25.964   2.423  50.955  1.00  0.00     0.002 A 
HETATM    4  C10 UNL     1      24.633   2.703  51.173  1.00  0.00     0.018 A 
HETATM    5  C11 UNL     1      23.917   1.885  52.037  1.00  0.00     0.041 A 
HETATM    6  C12 UNL     1      24.481   0.808  52.686  1.00  0.00    -0.007 A 
HETATM    7  C13 UNL     1      23.447   0.222  53.509  1.00  0.00     0.131 A 
HETATM    8  C14 UNL     1      22.952  -1.147  53.117  1.00  0.00     0.040 C 
HETATM    9  C15 UNL     1      21.727  -1.230  54.048  1.00  0.00     0.106 C 
HETATM   10  C16 UNL     1      21.269   0.207  53.997  1.00  0.00     0.227 C 
HETATM   11  O1  UNL     1      20.242   0.760  54.521  1.00  0.00    -0.273 OA
HETATM   12  N3  UNL     1      22.208   0.975  53.213  1.00  0.00    -0.275 N 
HETATM   13  C17 UNL     1      22.497   2.048  52.328  1.00  0.00     0.261 A 
HETATM   14  O2  UNL     1      21.616   2.852  51.981  1.00  0.00    -0.267 OA
ENDROOT
BRANCH   1  15
HETATM   15  C2  UNL     1      26.511  -0.517  53.047  1.00  0.00     0.031 C 
HETATM   16  C1  UNL     1      26.607  -1.677  52.422  1.00  0.00     0.043 C 
BRANCH  15  17
HETATM   17  N1  UNL     1      27.217  -0.846  54.221  1.00  0.00    -0.364 N 
HETATM   18  H3  UNL     1      26.764  -1.666  54.729  1.00  0.00     0.162 HD
BRANCH  17  19
HETATM   19  C3  UNL     1      28.427  -0.271  54.831  1.00  0.00     0.229 A 
HETATM   20  C4  UNL     1      29.543  -0.515  53.889  1.00  0.00     0.022 A 
HETATM   21  C5  UNL     1      30.054   0.635  53.474  1.00  0.00     0.019 A 
HETATM   22  C6  UNL     1      29.257   1.647  54.162  1.00  0.00     0.113 A 
HETATM   23  N2  UNL     1      28.348   1.148  54.922  1.00  0.00    -0.272 NA
ENDBRANCH  17  19
ENDBRANCH  15  17
ENDBRANCH   1  15
TORSDOF 3
ENDMDL
MODEL 2
REMARK VINA RESULT:      -8.5      3.339      5.903
REMARK  3 active torsions:
REMARK  status: ('A' for Active; 'I' for Inactive)
REMARK    1  A    between atoms: C2_2  and  N1_3 
REMARK    2  A    between atoms: C2_2  and  C7_9 
REMARK    3  A    between atoms: N1_3  and  C3_4 
ROOT
HETATM    1  C7  UNL     1      23.895   2.477  52.346  1.00  0.00    -0.001 A 
HETATM    2  C8  UNL     1      22.647   1.976  52.057  1.00  0.00     0.014 A 
HETATM    3  C9  UNL     1      22.375   0.682  52.471  1.00  0.00     0.002 A 
HETATM    4  C10 UNL     1      23.319  -0.065  53.141  1.00  0.00     0.018 A 
HETATM    5  C11 UNL     1      24.557   0.509  53.396  1.00  0.00     0.041 A 
HETATM    6  C12 UNL     1      24.882   1.792  53.009  1.00  0.00    -0.007 A 
HETATM    7  C13 UNL     1      26.230   2.043  53.465  1.00  0.00     0.131 A 
HETATM    8  C14 UNL     1      27.296   2.188  52.410  1.00  0.00     0.040 C 
HETATM    9  C15 UNL     1      28.537   2.153  53.322  1.00  0.00     0.106 C 
HETATM   10  C16 UNL     1      28.074   1.144  54.345  1.00  0.00     0.227 C 
HETATM   11  O1  UNL     1      28.700   0.634  55.336  1.00  0.00    -0.273 OA
HETATM   12  N3  UNL     1      26.707   0.773  54.059  1.00  0.00    -0.275 N 
HETATM   13  C17 UNL     1      25.656  -0.181  54.062  1.00  0.00     0.261 A 
HETATM   14  O2  UNL     1      25.810  -1.308  54.564  1.00  0.00    -0.267 OA
ENDROOT
BRANCH   1  15
HETATM   15  C2  UNL     1      24.120   3.834  51.890  1.00  0.00     0.031 C 
HETATM   16  C1  UNL     1      23.353   4.816  52.329  1.00  0.00     0.043 C 
BRANCH  15  17
HETATM   17  N1  UNL     1      24.965   4.583  51.046  1.00  0.00    -0.364 N 
HETATM   18  H3  UNL     1      25.452   5.365  51.581  1.00  0.00     0.162 HD
BRANCH  17  19
HETATM   19  C3  UNL     1      25.274   4.464  49.612  1.00  0.00     0.229 A 
HETATM   20  C4  UNL     1      25.515   5.835  49.107  1.00  0.00     0.022 A 
HETATM   21  C5  UNL     1      26.754   5.945  48.649  1.00  0.00     0.019 A 
HETATM   22  C6  UNL     1      27.328   4.619  48.857  1.00  0.00     0.113 A 
HETATM   23  N2  UNL     1      26.508   3.787  49.394  1.00  0.00    -0.272 NA
ENDBRANCH  17  19
ENDBRANCH  15  17
ENDBRANCH   1  15
TORSDOF 3
ENDMDL
MODEL 3
REMARK VINA RESULT:      -8.4      2.816      5.425
REMARK  3 active torsions:
REMARK  status: ('A' for Active; 'I' for Inactive)
REMARK    1  A    between atoms: C2_2  and  N1_3 
REMARK    2  A    between atoms: C2_2  and  C7_9 
REMARK    3  A    between atoms: N1_3  and  C3_4 
ROOT
HETATM    1  C7  UNL     1      22.997   0.744  52.318  1.00  0.00    -0.001 A 
HETATM    2  C8  UNL     1      21.684   0.389  52.520  1.00  0.00     0.014 A 
HETATM    3  C9  UNL     1      21.410  -0.431  53.602  1.00  0.00     0.002 A 
HETATM    4  C10 UNL     1      22.416  -0.871  54.435  1.00  0.00     0.018 A 
HETATM    5  C11 UNL     1      23.719  -0.472  54.167  1.00  0.00     0.041 A 
HETATM    6  C12 UNL     1      24.048   0.344  53.106  1.00  0.00    -0.007 A 
HETATM    7  C13 UNL     1      25.476   0.559  53.165  1.00  0.00     0.131 A 
HETATM    8  C14 UNL     1      26.308  -0.052  52.066  1.00  0.00     0.040 C 
HETATM    9  C15 UNL     1      27.705   0.178  52.674  1.00  0.00     0.106 C 
HETATM   10  C16 UNL     1      27.392  -0.055  54.132  1.00  0.00     0.227 C 
HETATM   11  O1  UNL     1      28.171  -0.075  55.145  1.00  0.00    -0.273 OA
HETATM   12  N3  UNL     1      25.973  -0.278  54.281  1.00  0.00    -0.275 N 
HETATM   13  C17 UNL     1      24.878  -0.893  54.945  1.00  0.00     0.261 A 
HETATM   14  O2  UNL     1      25.051  -1.602  55.951  1.00  0.00    -0.267 OA
ENDROOT
BRANCH   1  15
HETATM   15  C2  UNL     1      23.221   1.603  51.173  1.00  0.00     0.031 C 
HETATM   16  C1  UNL     1      22.203   1.984  50.423  1.00  0.00     0.043 C 
BRANCH  15  17
HETATM   17  N1  UNL     1      24.256   2.266  50.483  1.00  0.00    -0.364 N 
HETATM   18  H3  UNL     1      24.354   1.900  49.487  1.00  0.00     0.162 HD
BRANCH  17  19
HETATM   19  C3  UNL     1      25.179   3.337  50.893  1.00  0.00     0.229 A 
HETATM   20  C4  UNL     1      26.454   3.104  50.178  1.00  0.00     0.022 A 
HETATM   21  C5  UNL     1      26.731   4.130  49.386  1.00  0.00     0.019 A 
HETATM   22  C6  UNL     1      25.614   5.048  49.591  1.00  0.00     0.113 A 
HETATM   23  N2  UNL     1      24.745   4.612  50.432  1.00  0.00    -0.272 NA
ENDBRANCH  17  19
ENDBRANCH  15  17
ENDBRANCH   1  15
TORSDOF 3
ENDMDL
MODEL 4
REMARK VINA RESULT:      -8.1      1.437      3.423
REMARK  3 active torsions:
REMARK  status: ('A' for Active; 'I' for Inactive)
REMARK    1  A    between atoms: C2_2  and  N1_3 
REMARK    2  A    between atoms: C2_2  and  C7_9 
REMARK    3  A    between atoms: N1_3  and  C3_4 
ROOT
HETATM    1  C7  UNL     1      23.997  -0.284  53.906  1.00  0.00    -0.001 A 
HETATM    2  C8  UNL     1      23.430  -1.178  54.783  1.00  0.00     0.014 A 
HETATM    3  C9  UNL     1      22.059  -1.102  54.964  1.00  0.00     0.002 A 
HETATM    4  C10 UNL     1      21.302  -0.168  54.291  1.00  0.00     0.018 A 
HETATM    5  C11 UNL     1      21.945   0.702  53.421  1.00  0.00     0.041 A 
HETATM    6  C12 UNL     1      23.306   0.671  53.202  1.00  0.00    -0.007 A 
HETATM    7  C13 UNL     1      23.600   1.697  52.227  1.00  0.00     0.131 A 
HETATM    8  C14 UNL     1      24.395   2.887  52.701  1.00  0.00     0.040 C 
HETATM    9  C15 UNL     1      24.220   3.793  51.468  1.00  0.00     0.106 C 
HETATM   10  C16 UNL     1      22.800   3.446  51.094  1.00  0.00     0.227 C 
HETATM   11  O1  UNL     1      22.050   3.930  50.179  1.00  0.00    -0.273 OA
HETATM   12  N3  UNL     1      22.323   2.399  51.969  1.00  0.00    -0.275 N 
HETATM   13  C17 UNL     1      21.271   1.759  52.676  1.00  0.00     0.261 A 
HETATM   14  O2  UNL     1      20.094   2.144  52.567  1.00  0.00    -0.267 OA
ENDROOT
BRANCH   1  15
HETATM   15  C2  UNL     1      25.433  -0.411  53.757  1.00  0.00     0.031 C 
HETATM   16  C1  UNL     1      25.934  -1.235  52.854  1.00  0.00     0.043 C 
BRANCH  15  17
HETATM   17  N1  UNL     1      26.640   0.085  54.288  1.00  0.00    -0.364 N 
HETATM   18  H3  UNL     1      26.557   0.268  55.334  1.00  0.00     0.162 HD
BRANCH  17  19
HETATM   19  C3  UNL     1      27.941   0.374  53.662  1.00  0.00     0.229 A 
HETATM   20  C4  UNL     1      27.835   1.719  53.050  1.00  0.00     0.022 A 
HETATM   21  C5  UNL     1      28.709   2.547  53.605  1.00  0.00     0.019 A 
HETATM   22  C6  UNL     1      29.397   1.724  54.595  1.00  0.00     0.113 A 
HETATM   23  N2  UNL     1      28.974   0.510  54.632  1.00  0.00    -0.272 NA
ENDBRANCH  17  19
ENDBRANCH  15  17
ENDBRANCH   1  15
TORSDOF 3
ENDMDL
MODEL 5
REMARK VINA RESULT:      -8.0      2.738      6.048
REMARK  3 active torsions:
REMARK  status: ('A' for Active; 'I' for Inactive)
REMARK    1  A    between atoms: C2_2  and  N1_3 
REMARK    2  A    between atoms: C2_2  and  C7_9 
REMARK    3  A    between atoms: N1_3  and  C3_4 
ROOT
HETATM    1  C7  UNL     1      22.193   0.352  52.658  1.00  0.00    -0.001 A 
HETATM    2  C8  UNL     1      21.075  -0.381  52.980  1.00  0.00     0.014 A 
HETATM    3  C9  UNL     1      21.190  -1.283  54.026  1.00  0.00     0.002 A 
HETATM    4  C10 UNL     1      22.378  -1.433  54.708  1.00  0.00     0.018 A 
HETATM    5  C11 UNL     1      23.464  -0.658  54.325  1.00  0.00     0.041 A 
HETATM    6  C12 UNL     1      23.406   0.254  53.293  1.00  0.00    -0.007 A 
HETATM    7  C13 UNL     1      24.706   0.880  53.207  1.00  0.00     0.131 A 
HETATM    8  C14 UNL     1      25.532   0.580  51.983  1.00  0.00     0.040 C 
HETATM    9  C15 UNL     1      26.868   1.192  52.445  1.00  0.00     0.106 C 
HETATM   10  C16 UNL     1      26.824   0.828  53.909  1.00  0.00     0.227 C 
HETATM   11  O1  UNL     1      27.698   1.005  54.825  1.00  0.00    -0.273 OA
HETATM   12  N3  UNL     1      25.561   0.190  54.200  1.00  0.00    -0.275 N 
HETATM   13  C17 UNL     1      24.785  -0.744  54.937  1.00  0.00     0.261 A 
HETATM   14  O2  UNL     1      25.282  -1.404  55.866  1.00  0.00    -0.267 OA
ENDROOT
BRANCH   1  15
HETATM   15  C2  UNL     1      22.011   1.278  51.558  1.00  0.00     0.031 C 
HETATM   16  C1  UNL     1      21.730   0.823  50.350  1.00  0.00     0.043 C 
BRANCH  15  17
HETATM   17  N1  UNL     1      22.022   2.657  51.270  1.00  0.00    -0.364 N 
HETATM   18  H3  UNL     1      21.967   2.835  50.221  1.00  0.00     0.162 HD
BRANCH  17  19
HETATM   19  C3  UNL     1      22.091   3.840  52.143  1.00  0.00     0.229 A 
HETATM   20  C4  UNL     1      23.516   4.232  52.227  1.00  0.00     0.022 A 
HETATM   21  C5  UNL     1      23.687   5.452  51.739  1.00  0.00     0.019 A 
HETATM   22  C6  UNL     1      22.346   5.862  51.331  1.00  0.00     0.113 A 
HETATM   23  N2  UNL     1      21.450   4.968  51.555  1.00  0.00    -0.272 NA
ENDBRANCH  17  19
ENDBRANCH  15  17
ENDBRANCH   1  15
TORSDOF 3
ENDMDL
MODEL 6
REMARK VINA RESULT:      -7.9      3.066      6.490
REMARK  3 active torsions:
REMARK  status: ('A' for Active; 'I' for Inactive)
REMARK    1  A    between atoms: C2_2  and  N1_3 
REMARK    2  A    between atoms: C2_2  and  C7_9 
REMARK    3  A    between atoms: N1_3  and  C3_4 
ROOT
HETATM    1  C7  UNL     1      23.044   1.822  52.329  1.00  0.00    -0.001 A 
HETATM    2  C8  UNL     1      21.855   1.135  52.260  1.00  0.00     0.014 A 
HETATM    3  C9  UNL     1      21.810  -0.111  52.863  1.00  0.00     0.002 A 
HETATM    4  C10 UNL     1      22.913  -0.634  53.503  1.00  0.00     0.018 A 
HETATM    5  C11 UNL     1      24.079   0.119  53.532  1.00  0.00     0.041 A 
HETATM    6  C12 UNL     1      24.181   1.364  52.949  1.00  0.00    -0.007 A 
HETATM    7  C13 UNL     1      25.521   1.842  53.204  1.00  0.00     0.131 A 
HETATM    8  C14 UNL     1      26.442   1.968  52.017  1.00  0.00     0.040 C 
HETATM    9  C15 UNL     1      27.763   2.215  52.770  1.00  0.00     0.106 C 
HETATM   10  C16 UNL     1      27.553   1.311  53.960  1.00  0.00     0.227 C 
HETATM   11  O1  UNL     1      28.342   1.027  54.925  1.00  0.00    -0.273 OA
HETATM   12  N3  UNL     1      26.228   0.738  53.890  1.00  0.00    -0.275 N 
HETATM   13  C17 UNL     1      25.326  -0.330  54.142  1.00  0.00     0.261 A 
HETATM   14  O2  UNL     1      25.686  -1.347  54.759  1.00  0.00    -0.267 OA
ENDROOT
BRANCH   1  15
HETATM   15  C2  UNL     1      23.031   3.119  51.682  1.00  0.00     0.031 C 
HETATM   16  C1  UNL     1      22.827   4.212  52.395  1.00  0.00     0.043 C 
BRANCH  15  17
HETATM   17  N1  UNL     1      23.177   3.714  50.413  1.00  0.00    -0.364 N 
HETATM   18  H3  UNL     1      24.023   4.361  50.384  1.00  0.00     0.162 HD
BRANCH  17  19
HETATM   19  C3  UNL     1      22.390   3.589  49.175  1.00  0.00     0.229 A 
HETATM   20  C4  UNL     1      22.749   2.289  48.565  1.00  0.00     0.022 A 
HETATM   21  C5  UNL     1      21.683   1.505  48.491  1.00  0.00     0.019 A 
HETATM   22  C6  UNL     1      20.609   2.313  49.063  1.00  0.00     0.113 A 
HETATM   23  N2  UNL     1      20.996   3.477  49.446  1.00  0.00    -0.272 NA
ENDBRANCH  17  19
ENDBRANCH  15  17
ENDBRANCH   1  15
TORSDOF 3
ENDMDL
MODEL 7
REMARK VINA RESULT:      -7.9      3.148      5.671
REMARK  3 active torsions:
REMARK  status: ('A' for Active; 'I' for Inactive)
REMARK    1  A    between atoms: C2_2  and  N1_3 
REMARK    2  A    between atoms: C2_2  and  C7_9 
REMARK    3  A    between atoms: N1_3  and  C3_4 
ROOT
HETATM    1  C7  UNL     1      24.425   2.658  50.672  1.00  0.00    -0.001 A 
HETATM    2  C8  UNL     1      23.284   2.790  49.916  1.00  0.00     0.014 A 
HETATM    3  C9  UNL     1      22.208   1.984  50.249  1.00  0.00     0.002 A 
HETATM    4  C10 UNL     1      22.285   1.090  51.295  1.00  0.00     0.018 A 
HETATM    5  C11 UNL     1      23.471   1.012  52.013  1.00  0.00     0.041 A 
HETATM    6  C12 UNL     1      24.572   1.791  51.726  1.00  0.00    -0.007 A 
HETATM    7  C13 UNL     1      25.593   1.451  52.691  1.00  0.00     0.131 A 
HETATM    8  C14 UNL     1      26.816   0.739  52.175  1.00  0.00     0.040 C 
HETATM    9  C15 UNL     1      27.448   0.348  53.524  1.00  0.00     0.106 C 
HETATM   10  C16 UNL     1      26.199   0.042  54.313  1.00  0.00     0.227 C 
HETATM   11  O1  UNL     1      26.069  -0.408  55.502  1.00  0.00    -0.273 OA
HETATM   12  N3  UNL     1      25.042   0.341  53.501  1.00  0.00    -0.275 N 
HETATM   13  C17 UNL     1      23.698   0.086  53.117  1.00  0.00     0.261 A 
HETATM   14  O2  UNL     1      23.013  -0.772  53.700  1.00  0.00    -0.267 OA
ENDROOT
BRANCH   1  15
HETATM   15  C2  UNL     1      25.515   3.528  50.277  1.00  0.00     0.031 C 
HETATM   16  C1  UNL     1      26.484   3.065  49.508  1.00  0.00     0.043 C 
BRANCH  15  17
HETATM   17  N1  UNL     1      25.975   4.851  50.430  1.00  0.00    -0.364 N 
HETATM   18  H3  UNL     1      26.961   4.874  50.833  1.00  0.00     0.162 HD
BRANCH  17  19
HETATM   19  C3  UNL     1      25.345   6.148  50.133  1.00  0.00     0.229 A 
HETATM   20  C4  UNL     1      24.832   6.071  48.746  1.00  0.00     0.022 A 
HETATM   21  C5  UNL     1      23.516   6.222  48.734  1.00  0.00     0.019 A 
HETATM   22  C6  UNL     1      23.166   6.403  50.140  1.00  0.00     0.113 A 
HETATM   23  N2  UNL     1      24.183   6.364  50.926  1.00  0.00    -0.272 NA
ENDBRANCH  17  19
ENDBRANCH  15  17
ENDBRANCH   1  15
TORSDOF 3
ENDMDL
MODEL 8
REMARK VINA RESULT:      -7.9      2.841      5.148
REMARK  3 active torsions:
REMARK  status: ('A' for Active; 'I' for Inactive)
REMARK    1  A    between atoms: C2_2  and  N1_3 
REMARK    2  A    between atoms: C2_2  and  C7_9 
REMARK    3  A    between atoms: N1_3  and  C3_4 
ROOT
HETATM    1  C7  UNL     1      23.834   1.761  51.193  1.00  0.00    -0.001 A 
HETATM    2  C8  UNL     1      25.023   2.293  50.753  1.00  0.00     0.014 A 
HETATM    3  C9  UNL     1      26.174   1.901  51.417  1.00  0.00     0.002 A 
HETATM    4  C10 UNL     1      26.122   1.017  52.473  1.00  0.00     0.018 A 
HETATM    5  C11 UNL     1      24.884   0.523  52.861  1.00  0.00     0.041 A 
HETATM    6  C12 UNL     1      23.707   0.877  52.236  1.00  0.00    -0.007 A 
HETATM    7  C13 UNL     1      22.644   0.151  52.893  1.00  0.00     0.131 A 
HETATM    8  C14 UNL     1      21.658   0.958  53.699  1.00  0.00     0.040 C 
HETATM    9  C15 UNL     1      20.930  -0.200  54.408  1.00  0.00     0.106 C 
HETATM   10  C16 UNL     1      22.094  -1.135  54.633  1.00  0.00     0.227 C 
HETATM   11  O1  UNL     1      22.140  -2.255  55.247  1.00  0.00    -0.273 OA
HETATM   12  N3  UNL     1      23.275  -0.575  54.018  1.00  0.00    -0.275 N 
HETATM   13  C17 UNL     1      24.683  -0.387  53.983  1.00  0.00     0.261 A 
HETATM   14  O2  UNL     1      25.429  -0.950  54.802  1.00  0.00    -0.267 OA
ENDROOT
BRANCH   1  15
HETATM   15  C2  UNL     1      22.666   2.206  50.460  1.00  0.00     0.031 C 
HETATM   16  C1  UNL     1      22.068   1.390  49.611  1.00  0.00     0.043 C 
BRANCH  15  17
HETATM   17  N1  UNL     1      21.829   3.329  50.303  1.00  0.00    -0.364 N 
HETATM   18  H3  UNL     1      21.031   3.127  49.627  1.00  0.00     0.162 HD
BRANCH  17  19
HETATM   19  C3  UNL     1      21.873   4.675  50.900  1.00  0.00     0.229 A 
HETATM   20  C4  UNL     1      22.084   4.495  52.354  1.00  0.00     0.022 A 
HETATM   21  C5  UNL     1      23.225   5.057  52.727  1.00  0.00     0.019 A 
HETATM   22  C6  UNL     1      23.765   5.615  51.490  1.00  0.00     0.113 A 
HETATM   23  N2  UNL     1      23.016   5.406  50.467  1.00  0.00    -0.272 NA
ENDBRANCH  17  19
ENDBRANCH  15  17
ENDBRANCH   1  15
TORSDOF 3
ENDMDL
MODEL 9
REMARK VINA RESULT:      -7.8      1.803      3.814
REMARK  3 active torsions:
REMARK  status: ('A' for Active; 'I' for Inactive)
REMARK    1  A    between atoms: C2_2  and  N1_3 
REMARK    2  A    between atoms: C2_2  and  C7_9 
REMARK    3  A    between atoms: N1_3  and  C3_4 
ROOT
HETATM    1  C7  UNL     1      23.783  -0.411  53.927  1.00  0.00    -0.001 A 
HETATM    2  C8  UNL     1      23.027  -1.154  54.803  1.00  0.00     0.014 A 
HETATM    3  C9  UNL     1      21.665  -1.223  54.560  1.00  0.00     0.002 A 
HETATM    4  C10 UNL     1      21.099  -0.572  53.486  1.00  0.00     0.018 A 
HETATM    5  C11 UNL     1      21.926   0.161  52.645  1.00  0.00     0.041 A 
HETATM    6  C12 UNL     1      23.287   0.262  52.838  1.00  0.00    -0.007 A 
HETATM    7  C13 UNL     1      23.807   1.074  51.761  1.00  0.00     0.131 A 
HETATM    8  C14 UNL     1      24.345   2.435  52.125  1.00  0.00     0.040 C 
HETATM    9  C15 UNL     1      24.506   3.012  50.705  1.00  0.00     0.106 C 
HETATM   10  C16 UNL     1      23.293   2.404  50.043  1.00  0.00     0.227 C 
HETATM   11  O1  UNL     1      22.835   2.568  48.861  1.00  0.00    -0.273 OA
HETATM   12  N3  UNL     1      22.633   1.526  50.981  1.00  0.00    -0.275 N 
HETATM   13  C17 UNL     1      21.453   0.925  51.497  1.00  0.00     0.261 A 
HETATM   14  O2  UNL     1      20.347   1.117  50.964  1.00  0.00    -0.267 OA
ENDROOT
BRANCH   1  15
HETATM   15  C2  UNL     1      25.200  -0.377  54.231  1.00  0.00     0.031 C 
HETATM   16  C1  UNL     1      25.721   0.675  54.837  1.00  0.00     0.043 C 
BRANCH  15  17
HETATM   17  N1  UNL     1      26.369  -1.152  54.102  1.00  0.00    -0.364 N 
HETATM   18  H3  UNL     1      26.563  -1.711  54.988  1.00  0.00     0.162 HD
BRANCH  17  19
HETATM   19  C3  UNL     1      27.322  -1.312  52.992  1.00  0.00     0.229 A 
HETATM   20  C4  UNL     1      28.485  -0.446  53.293  1.00  0.00     0.022 A 
HETATM   21  C5  UNL     1      29.584  -1.176  53.415  1.00  0.00     0.019 A 
HETATM   22  C6  UNL     1      29.127  -2.545  53.188  1.00  0.00     0.113 A 
HETATM   23  N2  UNL     1      27.867  -2.628  52.950  1.00  0.00    -0.272 NA
ENDBRANCH  17  19
ENDBRANCH  15  17
ENDBRANCH   1  15
TORSDOF 3
ENDMDL
