MODEL 1
REMARK VINA RESULT:      -9.4      0.000      0.000
REMARK  1 active torsions:
REMARK  status: ('A' for Active; 'I' for Inactive)
REMARK    1  A    between atoms: N1_1  and  C1_2 
ROOT
HETATM    1  C1  UNL     1      24.390   0.821  52.375  1.00  0.00     0.260 A 
HETATM    2  C2  UNL     1      23.204   0.218  52.845  1.00  0.00     0.079 A 
HETATM    3  C3  UNL     1      21.833   0.126  52.572  1.00  0.00    -0.048 A 
HETATM    4  C4  UNL     1      21.201   0.678  51.523  1.00  0.00     0.031 A 
HETATM    5  C5  UNL     1      19.852   0.560  51.300  1.00  0.00     0.034 A 
HETATM    6 CL1  UNL     1      19.119   1.321  49.888  1.00  0.00    -0.084 Cl
HETATM    7  C6  UNL     1      19.156  -0.165  52.215  1.00  0.00     0.024 A 
HETATM    8  C7  UNL     1      19.771  -0.740  53.294  1.00  0.00     0.010 A 
HETATM    9  C8  UNL     1      21.110  -0.631  53.530  1.00  0.00    -0.047 A 
HETATM   10  C9  UNL     1      21.511  -1.346  54.767  1.00  0.00     0.086 A 
HETATM   11  C10 UNL     1      22.895  -1.333  55.198  1.00  0.00     0.097 A 
HETATM   12  N2  UNL     1      24.047  -1.006  55.081  1.00  0.00    -0.240 NA
HETATM   13  C11 UNL     1      25.106  -0.401  54.522  1.00  0.00     0.178 A 
HETATM   14  O1  UNL     1      26.197  -0.590  55.211  1.00  0.00    -0.291 OA
HETATM   15  C12 UNL     1      27.245  -0.015  54.703  1.00  0.00     0.085 A 
HETATM   16  C13 UNL     1      26.795   0.625  53.546  1.00  0.00     0.007 A 
HETATM   17  C14 UNL     1      25.420   0.399  53.398  1.00  0.00     0.041 A 
HETATM   18  C15 UNL     1      27.713   1.292  52.854  1.00  0.00    -0.008 A 
HETATM   19  C16 UNL     1      29.000   1.124  53.585  1.00  0.00     0.058 A 
HETATM   20  C17 UNL     1      28.556   0.280  54.723  1.00  0.00     0.015 A 
ENDROOT
BRANCH   1  21
HETATM   21  N1  UNL     1      24.445   2.282  52.338  1.00  0.00     0.087 N 
HETATM   22  H1  UNL     1      23.837   2.627  53.115  1.00  0.00     0.313 HD
HETATM   23  H2  UNL     1      24.091   2.633  51.404  1.00  0.00     0.313 HD
ENDBRANCH   1  21
TORSDOF 1
ENDMDL
MODEL 2
REMARK VINA RESULT:      -9.0      4.026      5.439
REMARK  1 active torsions:
REMARK  status: ('A' for Active; 'I' for Inactive)
REMARK    1  A    between atoms: N1_1  and  C1_2 
ROOT
HETATM    1  C1  UNL     1      23.886   3.579  50.890  1.00  0.00     0.260 A 
HETATM    2  C2  UNL     1      24.263   2.391  51.550  1.00  0.00     0.079 A 
HETATM    3  C3  UNL     1      23.760   1.397  52.400  1.00  0.00    -0.048 A 
HETATM    4  C4  UNL     1      22.492   1.301  52.835  1.00  0.00     0.031 A 
HETATM    5  C5  UNL     1      22.048   0.307  53.670  1.00  0.00     0.034 A 
HETATM    6 CL1  UNL     1      20.362   0.268  54.181  1.00  0.00    -0.084 Cl
HETATM    7  C6  UNL     1      22.975  -0.612  54.052  1.00  0.00     0.024 A 
HETATM    8  C7  UNL     1      24.274  -0.542  53.626  1.00  0.00     0.010 A 
HETATM    9  C8  UNL     1      24.731   0.440  52.798  1.00  0.00    -0.047 A 
HETATM   10  C9  UNL     1      26.175   0.280  52.496  1.00  0.00     0.086 A 
HETATM   11  C10 UNL     1      26.851   1.237  51.643  1.00  0.00     0.097 A 
HETATM   12  N2  UNL     1      26.877   2.228  50.962  1.00  0.00    -0.240 NA
HETATM   13  C11 UNL     1      26.391   3.328  50.365  1.00  0.00     0.178 A 
HETATM   14  O1  UNL     1      27.308   3.964  49.691  1.00  0.00    -0.291 OA
HETATM   15  C12 UNL     1      26.876   5.037  49.101  1.00  0.00     0.085 A 
HETATM   16  C13 UNL     1      25.519   5.118  49.420  1.00  0.00     0.007 A 
HETATM   17  C14 UNL     1      25.171   4.032  50.235  1.00  0.00     0.041 A 
HETATM   18  C15 UNL     1      24.862   6.158  48.917  1.00  0.00    -0.008 A 
HETATM   19  C16 UNL     1      25.852   6.943  48.128  1.00  0.00     0.058 A 
HETATM   20  C17 UNL     1      27.072   6.121  48.331  1.00  0.00     0.015 A 
ENDROOT
BRANCH   1  21
HETATM   21  N1  UNL     1      23.442   4.706  51.711  1.00  0.00     0.087 N 
HETATM   22  H1  UNL     1      23.577   4.424  52.708  1.00  0.00     0.313 HD
HETATM   23  H2  UNL     1      22.423   4.915  51.517  1.00  0.00     0.313 HD
ENDBRANCH   1  21
TORSDOF 1
ENDMDL
MODEL 3
REMARK VINA RESULT:      -9.0      1.203      1.252
REMARK  1 active torsions:
REMARK  status: ('A' for Active; 'I' for Inactive)
REMARK    1  A    between atoms: N1_1  and  C1_2 
ROOT
HETATM    1  C1  UNL     1      24.560   2.094  52.786  1.00  0.00     0.260 A 
HETATM    2  C2  UNL     1      23.360   1.362  52.892  1.00  0.00     0.079 A 
HETATM    3  C3  UNL     1      21.997   1.430  52.576  1.00  0.00    -0.048 A 
HETATM    4  C4  UNL     1      21.397   2.418  51.890  1.00  0.00     0.031 A 
HETATM    5  C5  UNL     1      20.055   2.440  51.606  1.00  0.00     0.034 A 
HETATM    6 CL1  UNL     1      19.365   3.782  50.695  1.00  0.00    -0.084 Cl
HETATM    7  C6  UNL     1      19.329   1.383  52.061  1.00  0.00     0.024 A 
HETATM    8  C7  UNL     1      19.911   0.362  52.763  1.00  0.00     0.010 A 
HETATM    9  C8  UNL     1      21.243   0.326  53.054  1.00  0.00    -0.047 A 
HETATM   10  C9  UNL     1      21.607  -0.889  53.824  1.00  0.00     0.086 A 
HETATM   11  C10 UNL     1      22.978  -1.101  54.243  1.00  0.00     0.097 A 
HETATM   12  N2  UNL     1      24.133  -0.777  54.320  1.00  0.00    -0.240 NA
HETATM   13  C11 UNL     1      25.211   0.002  54.133  1.00  0.00     0.178 A 
HETATM   14  O1  UNL     1      26.281  -0.505  54.680  1.00  0.00    -0.291 OA
HETATM   15  C12 UNL     1      27.345   0.223  54.523  1.00  0.00     0.085 A 
HETATM   16  C13 UNL     1      26.931   1.336  53.787  1.00  0.00     0.007 A 
HETATM   17  C14 UNL     1      25.560   1.228  53.518  1.00  0.00     0.041 A 
HETATM   18  C15 UNL     1      27.871   2.233  53.507  1.00  0.00    -0.008 A 
HETATM   19  C16 UNL     1      29.135   1.722  54.106  1.00  0.00     0.058 A 
HETATM   20  C17 UNL     1      28.655   0.453  54.709  1.00  0.00     0.015 A 
ENDROOT
BRANCH   1  21
HETATM   21  N1  UNL     1      24.622   3.403  53.435  1.00  0.00     0.087 N 
HETATM   22  H1  UNL     1      24.596   4.119  52.674  1.00  0.00     0.313 HD
HETATM   23  H2  UNL     1      25.516   3.487  53.995  1.00  0.00     0.313 HD
ENDBRANCH   1  21
TORSDOF 1
ENDMDL
MODEL 4
REMARK VINA RESULT:      -8.9      2.238      2.725
REMARK  1 active torsions:
REMARK  status: ('A' for Active; 'I' for Inactive)
REMARK    1  A    between atoms: N1_1  and  C1_2 
ROOT
HETATM    1  C1  UNL     1      26.076   1.899  52.745  1.00  0.00     0.260 A 
HETATM    2  C2  UNL     1      24.692   1.630  52.706  1.00  0.00     0.079 A 
HETATM    3  C3  UNL     1      23.451   2.262  52.550  1.00  0.00    -0.048 A 
HETATM    4  C4  UNL     1      23.261   3.567  52.289  1.00  0.00     0.031 A 
HETATM    5  C5  UNL     1      22.022   4.140  52.146  1.00  0.00     0.034 A 
HETATM    6 CL1  UNL     1      21.880   5.863  51.800  1.00  0.00    -0.084 Cl
HETATM    7  C6  UNL     1      20.957   3.306  52.285  1.00  0.00     0.024 A 
HETATM    8  C7  UNL     1      21.119   1.974  52.551  1.00  0.00     0.010 A 
HETATM    9  C8  UNL     1      22.342   1.389  52.696  1.00  0.00    -0.047 A 
HETATM   10  C9  UNL     1      22.229  -0.063  52.982  1.00  0.00     0.086 A 
HETATM   11  C10 UNL     1      23.423  -0.860  53.185  1.00  0.00     0.097 A 
HETATM   12  N2  UNL     1      24.615  -0.995  53.264  1.00  0.00    -0.240 NA
HETATM   13  C11 UNL     1      25.903  -0.616  53.254  1.00  0.00     0.178 A 
HETATM   14  O1  UNL     1      26.707  -1.611  53.505  1.00  0.00    -0.291 OA
HETATM   15  C12 UNL     1      27.964  -1.283  53.508  1.00  0.00     0.085 A 
HETATM   16  C13 UNL     1      27.993   0.085  53.225  1.00  0.00     0.007 A 
HETATM   17  C14 UNL     1      26.681   0.549  53.056  1.00  0.00     0.041 A 
HETATM   18  C15 UNL     1      29.197   0.646  53.179  1.00  0.00    -0.008 A 
HETATM   19  C16 UNL     1      30.180  -0.437  53.460  1.00  0.00     0.058 A 
HETATM   20  C17 UNL     1      29.264  -1.592  53.645  1.00  0.00     0.015 A 
ENDROOT
BRANCH   1  21
HETATM   21  N1  UNL     1      26.567   2.802  53.786  1.00  0.00     0.087 N 
HETATM   22  H1  UNL     1      26.127   3.733  53.610  1.00  0.00     0.313 HD
HETATM   23  H2  UNL     1      27.622   2.872  53.735  1.00  0.00     0.313 HD
ENDBRANCH   1  21
TORSDOF 1
ENDMDL
MODEL 5
REMARK VINA RESULT:      -8.6      2.722      6.400
REMARK  1 active torsions:
REMARK  status: ('A' for Active; 'I' for Inactive)
REMARK    1  A    between atoms: N1_1  and  C1_2 
ROOT
HETATM    1  C1  UNL     1      21.591   1.193  51.458  1.00  0.00     0.260 A 
HETATM    2  C2  UNL     1      22.884   1.039  52.000  1.00  0.00     0.079 A 
HETATM    3  C3  UNL     1      24.211   1.449  51.817  1.00  0.00    -0.048 A 
HETATM    4  C4  UNL     1      24.641   2.332  50.899  1.00  0.00     0.031 A 
HETATM    5  C5  UNL     1      25.955   2.701  50.758  1.00  0.00     0.034 A 
HETATM    6 CL1  UNL     1      26.417   3.872  49.524  1.00  0.00    -0.084 Cl
HETATM    7  C6  UNL     1      26.836   2.117  51.614  1.00  0.00     0.024 A 
HETATM    8  C7  UNL     1      26.429   1.215  52.559  1.00  0.00     0.010 A 
HETATM    9  C8  UNL     1      25.127   0.837  52.712  1.00  0.00    -0.047 A 
HETATM   10  C9  UNL     1      24.965  -0.153  53.805  1.00  0.00     0.086 A 
HETATM   11  C10 UNL     1      23.654  -0.689  54.112  1.00  0.00     0.097 A 
HETATM   12  N2  UNL     1      22.469  -0.782  53.929  1.00  0.00    -0.240 NA
HETATM   13  C11 UNL     1      21.288  -0.533  53.341  1.00  0.00     0.178 A 
HETATM   14  O1  UNL     1      20.320  -1.226  53.873  1.00  0.00    -0.291 OA
HETATM   15  C12 UNL     1      19.161  -1.015  53.327  1.00  0.00     0.085 A 
HETATM   16  C13 UNL     1      19.389  -0.073  52.321  1.00  0.00     0.007 A 
HETATM   17  C14 UNL     1      20.750   0.260  52.299  1.00  0.00     0.041 A 
HETATM   18  C15 UNL     1      18.324   0.297  51.616  1.00  0.00    -0.008 A 
HETATM   19  C16 UNL     1      17.167  -0.461  52.168  1.00  0.00     0.058 A 
HETATM   20  C17 UNL     1      17.840  -1.242  53.237  1.00  0.00     0.015 A 
ENDROOT
BRANCH   1  21
HETATM   21  N1  UNL     1      21.377   0.777  50.072  1.00  0.00     0.087 N 
HETATM   22  H1  UNL     1      20.801  -0.095  50.105  1.00  0.00     0.313 HD
HETATM   23  H2  UNL     1      22.307   0.593  49.603  1.00  0.00     0.313 HD
ENDBRANCH   1  21
TORSDOF 1
ENDMDL
MODEL 6
REMARK VINA RESULT:      -8.5      5.141      7.440
REMARK  1 active torsions:
REMARK  status: ('A' for Active; 'I' for Inactive)
REMARK    1  A    between atoms: N1_1  and  C1_2 
ROOT
HETATM    1  C1  UNL     1      26.103   2.727  50.778  1.00  0.00     0.260 A 
HETATM    2  C2  UNL     1      25.819   3.904  50.054  1.00  0.00     0.079 A 
HETATM    3  C3  UNL     1      26.434   4.895  49.279  1.00  0.00    -0.048 A 
HETATM    4  C4  UNL     1      27.730   4.923  48.922  1.00  0.00     0.031 A 
HETATM    5  C5  UNL     1      28.287   5.919  48.161  1.00  0.00     0.034 A 
HETATM    6 CL1  UNL     1      29.999   5.861  47.743  1.00  0.00    -0.084 Cl
HETATM    7  C6  UNL     1      27.446   6.913  47.767  1.00  0.00     0.024 A 
HETATM    8  C7  UNL     1      26.122   6.913  48.115  1.00  0.00     0.010 A 
HETATM    9  C8  UNL     1      25.554   5.931  48.871  1.00  0.00    -0.047 A 
HETATM   10  C9  UNL     1      24.108   6.179  49.100  1.00  0.00     0.086 A 
HETATM   11  C10 UNL     1      23.330   5.252  49.898  1.00  0.00     0.097 A 
HETATM   12  N2  UNL     1      23.208   4.263  50.570  1.00  0.00    -0.240 NA
HETATM   13  C11 UNL     1      23.599   3.143  51.199  1.00  0.00     0.178 A 
HETATM   14  O1  UNL     1      22.619   2.578  51.847  1.00  0.00    -0.291 OA
HETATM   15  C12 UNL     1      22.960   1.492  52.472  1.00  0.00     0.085 A 
HETATM   16  C13 UNL     1      24.320   1.319  52.205  1.00  0.00     0.007 A 
HETATM   17  C14 UNL     1      24.767   2.366  51.387  1.00  0.00     0.041 A 
HETATM   18  C15 UNL     1      24.892   0.254  52.757  1.00  0.00    -0.008 A 
HETATM   19  C16 UNL     1      23.826  -0.450  53.523  1.00  0.00     0.058 A 
HETATM   20  C17 UNL     1      22.668   0.439  53.253  1.00  0.00     0.015 A 
ENDROOT
BRANCH   1  21
HETATM   21  N1  UNL     1      27.036   2.822  51.899  1.00  0.00     0.087 N 
HETATM   22  H1  UNL     1      26.727   2.120  52.610  1.00  0.00     0.313 HD
HETATM   23  H2  UNL     1      27.014   3.799  52.306  1.00  0.00     0.313 HD
ENDBRANCH   1  21
TORSDOF 1
ENDMDL
MODEL 7
REMARK VINA RESULT:      -8.4      3.232      5.939
REMARK  1 active torsions:
REMARK  status: ('A' for Active; 'I' for Inactive)
REMARK    1  A    between atoms: N1_1  and  C1_2 
ROOT
HETATM    1  C1  UNL     1      22.499   1.992  51.499  1.00  0.00     0.260 A 
HETATM    2  C2  UNL     1      23.814   2.408  51.204  1.00  0.00     0.079 A 
HETATM    3  C3  UNL     1      24.529   3.336  50.436  1.00  0.00    -0.048 A 
HETATM    4  C4  UNL     1      23.994   4.301  49.669  1.00  0.00     0.031 A 
HETATM    5  C5  UNL     1      24.738   5.187  48.932  1.00  0.00     0.034 A 
HETATM    6 CL1  UNL     1      23.938   6.420  47.959  1.00  0.00    -0.084 Cl
HETATM    7  C6  UNL     1      26.089   5.046  49.012  1.00  0.00     0.024 A 
HETATM    8  C7  UNL     1      26.664   4.073  49.785  1.00  0.00     0.010 A 
HETATM    9  C8  UNL     1      25.938   3.184  50.522  1.00  0.00    -0.047 A 
HETATM   10  C9  UNL     1      26.810   2.239  51.262  1.00  0.00     0.086 A 
HETATM   11  C10 UNL     1      26.223   1.205  52.091  1.00  0.00     0.097 A 
HETATM   12  N2  UNL     1      25.285   0.618  52.561  1.00  0.00    -0.240 NA
HETATM   13  C11 UNL     1      23.991   0.334  52.780  1.00  0.00     0.178 A 
HETATM   14  O1  UNL     1      23.842  -0.692  53.570  1.00  0.00    -0.291 OA
HETATM   15  C12 UNL     1      22.602  -0.999  53.803  1.00  0.00     0.085 A 
HETATM   16  C13 UNL     1      21.846  -0.068  53.088  1.00  0.00     0.007 A 
HETATM   17  C14 UNL     1      22.708   0.807  52.414  1.00  0.00     0.041 A 
HETATM   18  C15 UNL     1      20.526  -0.195  53.179  1.00  0.00    -0.008 A 
HETATM   19  C16 UNL     1      20.273  -1.360  54.072  1.00  0.00     0.058 A 
HETATM   20  C17 UNL     1      21.666  -1.764  54.390  1.00  0.00     0.015 A 
ENDROOT
BRANCH   1  21
HETATM   21  N1  UNL     1      21.674   1.499  50.396  1.00  0.00     0.087 N 
HETATM   22  H1  UNL     1      22.330   1.220  49.631  1.00  0.00     0.313 HD
HETATM   23  H2  UNL     1      21.019   2.261  50.066  1.00  0.00     0.313 HD
ENDBRANCH   1  21
TORSDOF 1
ENDMDL
MODEL 8
REMARK VINA RESULT:      -8.4      1.974      3.509
REMARK  1 active torsions:
REMARK  status: ('A' for Active; 'I' for Inactive)
REMARK    1  A    between atoms: N1_1  and  C1_2 
ROOT
HETATM    1  C1  UNL     1      24.369   0.637  53.049  1.00  0.00     0.260 A 
HETATM    2  C2  UNL     1      23.671   1.236  51.980  1.00  0.00     0.079 A 
HETATM    3  C3  UNL     1      22.418   1.250  51.354  1.00  0.00    -0.048 A 
HETATM    4  C4  UNL     1      21.328   0.577  51.761  1.00  0.00     0.031 A 
HETATM    5  C5  UNL     1      20.120   0.622  51.111  1.00  0.00     0.034 A 
HETATM    6 CL1  UNL     1      18.748  -0.296  51.729  1.00  0.00    -0.084 Cl
HETATM    7  C6  UNL     1      20.068   1.404  49.999  1.00  0.00     0.024 A 
HETATM    8  C7  UNL     1      21.161   2.102  49.560  1.00  0.00     0.010 A 
HETATM    9  C8  UNL     1      22.368   2.067  50.194  1.00  0.00    -0.047 A 
HETATM   10  C9  UNL     1      23.377   2.910  49.507  1.00  0.00     0.086 A 
HETATM   11  C10 UNL     1      24.729   2.991  50.021  1.00  0.00     0.097 A 
HETATM   12  N2  UNL     1      25.592   2.698  50.805  1.00  0.00    -0.240 NA
HETATM   13  C11 UNL     1      26.138   2.083  51.867  1.00  0.00     0.178 A 
HETATM   14  O1  UNL     1      27.400   2.378  52.008  1.00  0.00    -0.291 OA
HETATM   15  C12 UNL     1      27.964   1.798  53.023  1.00  0.00     0.085 A 
HETATM   16  C13 UNL     1      26.960   1.034  53.622  1.00  0.00     0.007 A 
HETATM   17  C14 UNL     1      25.768   1.193  52.902  1.00  0.00     0.041 A 
HETATM   18  C15 UNL     1      27.318   0.340  54.698  1.00  0.00    -0.008 A 
HETATM   19  C16 UNL     1      28.762   0.626  54.925  1.00  0.00     0.058 A 
HETATM   20  C17 UNL     1      29.034   1.556  53.800  1.00  0.00     0.015 A 
ENDROOT
BRANCH   1  21
HETATM   21  N1  UNL     1      24.519  -0.818  53.037  1.00  0.00     0.087 N 
HETATM   22  H1  UNL     1      23.559  -1.221  53.133  1.00  0.00     0.313 HD
HETATM   23  H2  UNL     1      25.134  -1.124  53.843  1.00  0.00     0.313 HD
ENDBRANCH   1  21
TORSDOF 1
ENDMDL
MODEL 9
REMARK VINA RESULT:      -8.3      2.055      2.658
REMARK  1 active torsions:
REMARK  status: ('A' for Active; 'I' for Inactive)
REMARK    1  A    between atoms: N1_1  and  C1_2 
ROOT
HETATM    1  C1  UNL     1      22.118   1.370  51.135  1.00  0.00     0.260 A 
HETATM    2  C2  UNL     1      21.441   0.480  51.995  1.00  0.00     0.079 A 
HETATM    3  C3  UNL     1      20.171  -0.052  52.251  1.00  0.00    -0.048 A 
HETATM    4  C4  UNL     1      19.061   0.180  51.529  1.00  0.00     0.031 A 
HETATM    5  C5  UNL     1      17.837  -0.365  51.822  1.00  0.00     0.034 A 
HETATM    6 CL1  UNL     1      16.441  -0.001  50.808  1.00  0.00    -0.084 Cl
HETATM    7  C6  UNL     1      17.788  -1.179  52.910  1.00  0.00     0.024 A 
HETATM    8  C7  UNL     1      18.901  -1.434  53.666  1.00  0.00     0.010 A 
HETATM    9  C8  UNL     1      20.125  -0.900  53.388  1.00  0.00    -0.047 A 
HETATM   10  C9  UNL     1      21.152  -1.338  54.365  1.00  0.00     0.086 A 
HETATM   11  C10 UNL     1      22.517  -0.863  54.249  1.00  0.00     0.097 A 
HETATM   12  N2  UNL     1      23.379  -0.212  53.721  1.00  0.00    -0.240 NA
HETATM   13  C11 UNL     1      23.912   0.633  52.824  1.00  0.00     0.178 A 
HETATM   14  O1  UNL     1      25.177   0.852  53.050  1.00  0.00    -0.291 OA
HETATM   15  C12 UNL     1      25.728   1.669  52.205  1.00  0.00     0.085 A 
HETATM   16  C13 UNL     1      24.712   2.029  51.318  1.00  0.00     0.007 A 
HETATM   17  C14 UNL     1      23.525   1.381  51.687  1.00  0.00     0.041 A 
HETATM   18  C15 UNL     1      25.053   2.877  50.352  1.00  0.00    -0.008 A 
HETATM   19  C16 UNL     1      26.499   3.179  50.545  1.00  0.00     0.058 A 
HETATM   20  C17 UNL     1      26.790   2.351  51.743  1.00  0.00     0.015 A 
ENDROOT
BRANCH   1  21
HETATM   21  N1  UNL     1      21.687   2.767  51.121  1.00  0.00     0.087 N 
HETATM   22  H1  UNL     1      21.059   2.898  51.946  1.00  0.00     0.313 HD
HETATM   23  H2  UNL     1      21.171   2.978  50.222  1.00  0.00     0.313 HD
ENDBRANCH   1  21
TORSDOF 1
ENDMDL
