MODEL 1
REMARK VINA RESULT:      -9.5      0.000      0.000
REMARK  5 active torsions:
REMARK  status: ('A' for Active; 'I' for Inactive)
REMARK    1  A    between atoms: C3_5  and  C4_6 
REMARK    2  A    between atoms: C4_6  and  O1_7 
REMARK    3  A    between atoms: O1_7  and  C5_8 
REMARK    4  A    between atoms: C13_19  and  N5_20 
REMARK    5  A    between atoms: N5_20  and  C14_21 
ROOT
HETATM    1  C1  UNL     1      21.594  -0.684  54.544  1.00  0.00     0.312 C 
HETATM    2  N1  UNL     1      21.753   0.596  53.713  1.00  0.00     0.108 NA
HETATM    3  C2  UNL     1      22.970   0.428  53.117  1.00  0.00     0.395 C 
HETATM    4  N2  UNL     1      23.743   1.250  52.306  1.00  0.00    -0.367 N 
HETATM    5  C3  UNL     1      24.152   2.563  52.668  1.00  0.00     0.031 C 
HETATM    6  C9  UNL     1      23.841   3.808  52.492  1.00  0.00     0.044 C 
HETATM    7  C10 UNL     1      22.844   4.617  51.785  1.00  0.00     0.037 A 
HETATM    8  C11 UNL     1      21.493   4.171  51.618  1.00  0.00     0.057 A 
HETATM    9  N3  UNL     1      20.563   4.880  51.009  1.00  0.00    -0.245 NA
HETATM   10  C12 UNL     1      20.881   6.079  50.516  1.00  0.00     0.235 A 
HETATM   11  N4  UNL     1      22.116   6.526  50.649  1.00  0.00    -0.224 NA
HETATM   12  C13 UNL     1      23.099   5.853  51.256  1.00  0.00     0.141 A 
HETATM   13  C20 UNL     1      21.279   2.882  52.132  1.00  0.00     0.140 C 
HETATM   14  C21 UNL     1      20.239   1.995  52.416  1.00  0.00     0.160 C 
HETATM   15  O3  UNL     1      19.117   2.332  52.072  1.00  0.00    -0.296 OA
HETATM   16  C22 UNL     1      20.462   0.688  53.106  1.00  0.00     0.352 C 
HETATM   17  H6  UNL     1      24.100   0.987  51.353  1.00  0.00     0.161 HD
ENDROOT
BRANCH  12  18
HETATM   18  N5  UNL     1      24.396   6.409  51.342  1.00  0.00    -0.340 N 
HETATM   19  H18 UNL     1      24.694   6.847  52.242  1.00  0.00     0.167 HD
BRANCH  18  20
HETATM   20  C14 UNL     1      25.419   6.467  50.366  1.00  0.00     0.035 A 
HETATM   21  C15 UNL     1      25.837   5.339  49.664  1.00  0.00     0.032 A 
HETATM   22  C16 UNL     1      26.816   5.341  48.707  1.00  0.00     0.046 A 
HETATM   23  C17 UNL     1      27.456   6.497  48.385  1.00  0.00     0.138 A 
HETATM   24  F1  UNL     1      28.405   6.451  47.447  1.00  0.00    -0.204 F 
HETATM   25  C18 UNL     1      27.092   7.639  49.040  1.00  0.00     0.074 A 
HETATM   26 CL1  UNL     1      27.936   9.124  48.603  1.00  0.00    -0.081 Cl
HETATM   27  C19 UNL     1      26.103   7.600  49.995  1.00  0.00     0.056 A 
ENDBRANCH  18  20
ENDBRANCH  12  18
BRANCH   5  28
HETATM   28  C4  UNL     1      25.329   2.224  53.512  1.00  0.00     0.225 C 
BRANCH  28  29
HETATM   29  O1  UNL     1      26.520   2.145  52.803  1.00  0.00    -0.378 OA
BRANCH  29  30
HETATM   30  C5  UNL     1      27.250   1.006  53.093  1.00  0.00     0.147 C 
HETATM   31  C6  UNL     1      26.842  -0.065  52.106  1.00  0.00     0.060 C 
HETATM   32  C7  UNL     1      26.665  -1.278  52.970  1.00  0.00     0.170 C 
HETATM   33  O2  UNL     1      27.134  -0.934  54.239  1.00  0.00    -0.389 OA
HETATM   34  C8  UNL     1      26.755   0.413  54.409  1.00  0.00     0.199 C 
ENDBRANCH  29  30
ENDBRANCH  28  29
ENDBRANCH   5  28
TORSDOF 5
ENDMDL
MODEL 2
REMARK VINA RESULT:      -9.2      3.762      6.436
REMARK  5 active torsions:
REMARK  status: ('A' for Active; 'I' for Inactive)
REMARK    1  A    between atoms: C3_5  and  C4_6 
REMARK    2  A    between atoms: C4_6  and  O1_7 
REMARK    3  A    between atoms: O1_7  and  C5_8 
REMARK    4  A    between atoms: C13_19  and  N5_20 
REMARK    5  A    between atoms: N5_20  and  C14_21 
ROOT
HETATM    1  C1  UNL     1      17.020   0.378  50.147  1.00  0.00     0.312 C 
HETATM    2  N1  UNL     1      18.241   0.254  51.069  1.00  0.00     0.108 NA
HETATM    3  C2  UNL     1      18.720   1.532  51.121  1.00  0.00     0.395 C 
HETATM    4  N2  UNL     1      19.846   2.092  51.712  1.00  0.00    -0.367 N 
HETATM    5  C3  UNL     1      21.175   1.652  51.463  1.00  0.00     0.031 C 
HETATM    6  C9  UNL     1      22.107   0.904  51.961  1.00  0.00     0.044 C 
HETATM    7  C10 UNL     1      22.340   0.043  53.125  1.00  0.00     0.037 A 
HETATM    8  C11 UNL     1      21.289  -0.737  53.708  1.00  0.00     0.057 A 
HETATM    9  N3  UNL     1      21.465  -1.539  54.739  1.00  0.00    -0.245 NA
HETATM   10  C12 UNL     1      22.680  -1.642  55.280  1.00  0.00     0.235 A 
HETATM   11  N4  UNL     1      23.676  -0.939  54.773  1.00  0.00    -0.224 NA
HETATM   12  C13 UNL     1      23.558  -0.111  53.729  1.00  0.00     0.141 A 
HETATM   13  C20 UNL     1      20.046  -0.520  53.092  1.00  0.00     0.140 C 
HETATM   14  C21 UNL     1      18.750  -1.039  53.070  1.00  0.00     0.160 C 
HETATM   15  O3  UNL     1      18.498  -1.929  53.866  1.00  0.00    -0.296 OA
HETATM   16  C22 UNL     1      17.702  -0.545  52.126  1.00  0.00     0.352 C 
HETATM   17  H6  UNL     1      19.829   2.890  52.395  1.00  0.00     0.161 HD
ENDROOT
BRANCH  12  18
HETATM   18  N5  UNL     1      24.681   0.609  53.260  1.00  0.00    -0.340 N 
HETATM   19  H18 UNL     1      24.522   1.508  52.753  1.00  0.00     0.167 HD
BRANCH  18  20
HETATM   20  C14 UNL     1      26.058   0.307  53.376  1.00  0.00     0.035 A 
HETATM   21  C15 UNL     1      26.581  -0.927  52.996  1.00  0.00     0.032 A 
HETATM   22  C16 UNL     1      27.904  -1.269  53.083  1.00  0.00     0.046 A 
HETATM   23  C17 UNL     1      28.810  -0.377  53.568  1.00  0.00     0.138 A 
HETATM   24  F1  UNL     1      30.089  -0.754  53.634  1.00  0.00    -0.204 F 
HETATM   25  C18 UNL     1      28.359   0.852  53.959  1.00  0.00     0.074 A 
HETATM   26 CL1  UNL     1      29.554   1.988  54.583  1.00  0.00    -0.081 Cl
HETATM   27  C19 UNL     1      27.023   1.160  53.856  1.00  0.00     0.056 A 
ENDBRANCH  18  20
ENDBRANCH  12  18
BRANCH   5  28
HETATM   28  C4  UNL     1      21.434   2.377  50.190  1.00  0.00     0.225 C 
BRANCH  28  29
HETATM   29  O1  UNL     1      21.494   3.757  50.337  1.00  0.00    -0.378 OA
BRANCH  29  30
HETATM   30  C5  UNL     1      22.726   4.286  49.992  1.00  0.00     0.147 C 
HETATM   31  C6  UNL     1      23.522   3.192  49.317  1.00  0.00     0.060 C 
HETATM   32  C7  UNL     1      24.874   3.308  49.958  1.00  0.00     0.170 C 
HETATM   33  O2  UNL     1      24.850   4.470  50.730  1.00  0.00    -0.389 OA
HETATM   34  C8  UNL     1      23.544   4.523  51.259  1.00  0.00     0.199 C 
ENDBRANCH  29  30
ENDBRANCH  28  29
ENDBRANCH   5  28
TORSDOF 5
ENDMDL
MODEL 3
REMARK VINA RESULT:      -9.0      2.921      5.967
REMARK  5 active torsions:
REMARK  status: ('A' for Active; 'I' for Inactive)
REMARK    1  A    between atoms: C3_5  and  C4_6 
REMARK    2  A    between atoms: C4_6  and  O1_7 
REMARK    3  A    between atoms: O1_7  and  C5_8 
REMARK    4  A    between atoms: C13_19  and  N5_20 
REMARK    5  A    between atoms: N5_20  and  C14_21 
ROOT
HETATM    1  C1  UNL     1      29.182   1.689  54.547  1.00  0.00     0.312 C 
HETATM    2  N1  UNL     1      27.783   1.316  54.041  1.00  0.00     0.108 NA
HETATM    3  C2  UNL     1      27.938   1.304  52.684  1.00  0.00     0.395 C 
HETATM    4  N2  UNL     1      27.044   1.123  51.636  1.00  0.00    -0.367 N 
HETATM    5  C3  UNL     1      25.870   1.904  51.449  1.00  0.00     0.031 C 
HETATM    6  C9  UNL     1      24.593   1.883  51.660  1.00  0.00     0.044 C 
HETATM    7  C10 UNL     1      23.574   0.999  52.235  1.00  0.00     0.037 A 
HETATM    8  C11 UNL     1      23.855   0.154  53.357  1.00  0.00     0.057 A 
HETATM    9  N3  UNL     1      22.960  -0.635  53.916  1.00  0.00    -0.245 NA
HETATM   10  C12 UNL     1      21.721  -0.662  53.421  1.00  0.00     0.235 A 
HETATM   11  N4  UNL     1      21.421   0.101  52.386  1.00  0.00    -0.224 NA
HETATM   12  C13 UNL     1      22.286   0.921  51.779  1.00  0.00     0.141 A 
HETATM   13  C20 UNL     1      25.196   0.226  53.768  1.00  0.00     0.140 C 
HETATM   14  C21 UNL     1      26.026  -0.184  54.814  1.00  0.00     0.160 C 
HETATM   15  O3  UNL     1      25.528  -0.910  55.660  1.00  0.00    -0.296 OA
HETATM   16  C22 UNL     1      27.457   0.232  54.916  1.00  0.00     0.352 C 
HETATM   17  H6  UNL     1      27.145   0.398  50.881  1.00  0.00     0.161 HD
ENDROOT
BRANCH  12  18
HETATM   18  N5  UNL     1      21.876   1.695  50.669  1.00  0.00    -0.340 N 
HETATM   19  H18 UNL     1      21.500   1.203  49.828  1.00  0.00     0.167 HD
BRANCH  18  20
HETATM   20  C14 UNL     1      21.878   3.099  50.499  1.00  0.00     0.035 A 
HETATM   21  C15 UNL     1      21.518   3.970  51.525  1.00  0.00     0.032 A 
HETATM   22  C16 UNL     1      21.508   5.335  51.416  1.00  0.00     0.046 A 
HETATM   23  C17 UNL     1      21.865   5.929  50.245  1.00  0.00     0.138 A 
HETATM   24  F1  UNL     1      21.839   7.263  50.185  1.00  0.00    -0.204 F 
HETATM   25  C18 UNL     1      22.227   5.129  49.200  1.00  0.00     0.074 A 
HETATM   26 CL1  UNL     1      22.685   5.925  47.695  1.00  0.00    -0.081 Cl
HETATM   27  C19 UNL     1      22.226   3.761  49.347  1.00  0.00     0.056 A 
ENDBRANCH  18  20
ENDBRANCH  12  18
BRANCH   5  28
HETATM   28  C4  UNL     1      26.473   3.089  50.782  1.00  0.00     0.225 C 
BRANCH  28  29
HETATM   29  O1  UNL     1      25.559   4.098  50.506  1.00  0.00    -0.378 OA
BRANCH  29  30
HETATM   30  C5  UNL     1      25.808   4.741  49.306  1.00  0.00     0.147 C 
HETATM   31  C6  UNL     1      27.232   4.430  48.904  1.00  0.00     0.060 C 
HETATM   32  C7  UNL     1      27.767   5.765  48.477  1.00  0.00     0.170 C 
HETATM   33  O2  UNL     1      26.681   6.640  48.455  1.00  0.00    -0.389 OA
HETATM   34  C8  UNL     1      25.880   6.246  49.547  1.00  0.00     0.199 C 
ENDBRANCH  29  30
ENDBRANCH  28  29
ENDBRANCH   5  28
TORSDOF 5
ENDMDL
MODEL 4
REMARK VINA RESULT:      -8.8      3.057      6.294
REMARK  5 active torsions:
REMARK  status: ('A' for Active; 'I' for Inactive)
REMARK    1  A    between atoms: C3_5  and  C4_6 
REMARK    2  A    between atoms: C4_6  and  O1_7 
REMARK    3  A    between atoms: O1_7  and  C5_8 
REMARK    4  A    between atoms: C13_19  and  N5_20 
REMARK    5  A    between atoms: N5_20  and  C14_21 
ROOT
HETATM    1  C1  UNL     1      28.775   2.353  53.828  1.00  0.00     0.312 C 
HETATM    2  N1  UNL     1      27.367   1.808  53.555  1.00  0.00     0.108 NA
HETATM    3  C2  UNL     1      27.225   1.980  52.208  1.00  0.00     0.395 C 
HETATM    4  N2  UNL     1      26.161   1.771  51.339  1.00  0.00    -0.367 N 
HETATM    5  C3  UNL     1      24.875   2.357  51.503  1.00  0.00     0.031 C 
HETATM    6  C9  UNL     1      23.690   2.094  51.953  1.00  0.00     0.044 C 
HETATM    7  C10 UNL     1      22.957   0.989  52.579  1.00  0.00     0.037 A 
HETATM    8  C11 UNL     1      23.591   0.081  53.486  1.00  0.00     0.057 A 
HETATM    9  N3  UNL     1      22.960  -0.909  54.086  1.00  0.00    -0.245 NA
HETATM   10  C12 UNL     1      21.660  -1.089  53.844  1.00  0.00     0.235 A 
HETATM   11  N4  UNL     1      21.038  -0.274  53.012  1.00  0.00    -0.224 NA
HETATM   12  C13 UNL     1      21.625   0.746  52.377  1.00  0.00     0.141 A 
HETATM   13  C20 UNL     1      24.965   0.332  53.634  1.00  0.00     0.140 C 
HETATM   14  C21 UNL     1      26.051  -0.048  54.425  1.00  0.00     0.160 C 
HETATM   15  O3  UNL     1      25.857  -0.941  55.235  1.00  0.00    -0.296 OA
HETATM   16  C22 UNL     1      27.396   0.591  54.306  1.00  0.00     0.352 C 
HETATM   17  H6  UNL     1      26.199   1.166  50.480  1.00  0.00     0.161 HD
ENDROOT
BRANCH  12  18
HETATM   18  N5  UNL     1      20.878   1.561  51.495  1.00  0.00    -0.340 N 
HETATM   19  H18 UNL     1      19.947   1.916  51.809  1.00  0.00     0.167 HD
BRANCH  18  20
HETATM   20  C14 UNL     1      21.201   2.012  50.194  1.00  0.00     0.035 A 
HETATM   21  C15 UNL     1      21.673   1.149  49.207  1.00  0.00     0.032 A 
HETATM   22  C16 UNL     1      21.994   1.532  47.932  1.00  0.00     0.046 A 
HETATM   23  C17 UNL     1      21.862   2.832  47.555  1.00  0.00     0.138 A 
HETATM   24  F1  UNL     1      22.188   3.159  46.302  1.00  0.00    -0.204 F 
HETATM   25  C18 UNL     1      21.405   3.728  48.478  1.00  0.00     0.074 A 
HETATM   26 CL1  UNL     1      21.243   5.406  47.962  1.00  0.00    -0.081 Cl
HETATM   27  C19 UNL     1      21.091   3.307  49.749  1.00  0.00     0.056 A 
ENDBRANCH  18  20
ENDBRANCH  12  18
BRANCH   5  28
HETATM   28  C4  UNL     1      25.145   3.696  50.915  1.00  0.00     0.225 C 
BRANCH  28  29
HETATM   29  O1  UNL     1      24.808   3.792  49.570  1.00  0.00    -0.378 OA
BRANCH  29  30
HETATM   30  C5  UNL     1      24.721   5.100  49.125  1.00  0.00     0.147 C 
HETATM   31  C6  UNL     1      26.130   5.630  48.981  1.00  0.00     0.060 C 
HETATM   32  C7  UNL     1      26.050   6.989  49.610  1.00  0.00     0.170 C 
HETATM   33  O2  UNL     1      24.699   7.231  49.865  1.00  0.00    -0.389 OA
HETATM   34  C8  UNL     1      24.177   5.979  50.247  1.00  0.00     0.199 C 
ENDBRANCH  29  30
ENDBRANCH  28  29
ENDBRANCH   5  28
TORSDOF 5
ENDMDL
MODEL 5
REMARK VINA RESULT:      -8.6      3.705      6.666
REMARK  5 active torsions:
REMARK  status: ('A' for Active; 'I' for Inactive)
REMARK    1  A    between atoms: C3_5  and  C4_6 
REMARK    2  A    between atoms: C4_6  and  O1_7 
REMARK    3  A    between atoms: O1_7  and  C5_8 
REMARK    4  A    between atoms: C13_19  and  N5_20 
REMARK    5  A    between atoms: N5_20  and  C14_21 
ROOT
HETATM    1  C1  UNL     1      17.851   2.186  49.550  1.00  0.00     0.312 C 
HETATM    2  N1  UNL     1      18.979   1.783  50.509  1.00  0.00     0.108 NA
HETATM    3  C2  UNL     1      19.598   2.971  50.774  1.00  0.00     0.395 C 
HETATM    4  N2  UNL     1      20.736   3.297  51.502  1.00  0.00    -0.367 N 
HETATM    5  C3  UNL     1      22.020   2.733  51.264  1.00  0.00     0.031 C 
HETATM    6  C9  UNL     1      22.820   1.812  51.697  1.00  0.00     0.044 C 
HETATM    7  C10 UNL     1      22.866   0.775  52.733  1.00  0.00     0.037 A 
HETATM    8  C11 UNL     1      21.693   0.060  53.137  1.00  0.00     0.057 A 
HETATM    9  N3  UNL     1      21.699  -0.894  54.047  1.00  0.00    -0.245 NA
HETATM   10  C12 UNL     1      22.853  -1.222  54.633  1.00  0.00     0.235 A 
HETATM   11  N4  UNL     1      23.958  -0.586  54.289  1.00  0.00    -0.224 NA
HETATM   12  C13 UNL     1      24.012   0.387  53.374  1.00  0.00     0.141 A 
HETATM   13  C20 UNL     1      20.531   0.515  52.493  1.00  0.00     0.140 C 
HETATM   14  C21 UNL     1      19.189   0.171  52.323  1.00  0.00     0.160 C 
HETATM   15  O3  UNL     1      18.779  -0.784  52.965  1.00  0.00    -0.296 OA
HETATM   16  C22 UNL     1      18.276   0.918  51.406  1.00  0.00     0.352 C 
HETATM   17  H6  UNL     1      20.763   3.988  52.293  1.00  0.00     0.161 HD
ENDROOT
BRANCH  12  18
HETATM   18  N5  UNL     1      25.242   1.019  53.078  1.00  0.00    -0.340 N 
HETATM   19  H18 UNL     1      25.225   1.985  52.681  1.00  0.00     0.167 HD
BRANCH  18  20
HETATM   20  C14 UNL     1      26.563   0.543  53.247  1.00  0.00     0.035 A 
HETATM   21  C15 UNL     1      27.606   1.378  53.644  1.00  0.00     0.032 A 
HETATM   22  C16 UNL     1      28.899   0.968  53.827  1.00  0.00     0.046 A 
HETATM   23  C17 UNL     1      29.241  -0.332  53.618  1.00  0.00     0.138 A 
HETATM   24  F1  UNL     1      30.515  -0.685  53.808  1.00  0.00    -0.204 F 
HETATM   25  C18 UNL     1      28.264  -1.200  53.225  1.00  0.00     0.074 A 
HETATM   26 CL1  UNL     1      28.733  -2.879  52.961  1.00  0.00    -0.081 Cl
HETATM   27  C19 UNL     1      26.974  -0.753  53.052  1.00  0.00     0.056 A 
ENDBRANCH  18  20
ENDBRANCH  12  18
BRANCH   5  28
HETATM   28  C4  UNL     1      22.452   3.590  50.127  1.00  0.00     0.225 C 
BRANCH  28  29
HETATM   29  O1  UNL     1      23.733   4.108  50.276  1.00  0.00    -0.378 OA
BRANCH  29  30
HETATM   30  C5  UNL     1      23.825   5.440  49.912  1.00  0.00     0.147 C 
HETATM   31  C6  UNL     1      25.248   5.697  49.470  1.00  0.00     0.060 C 
HETATM   32  C7  UNL     1      25.590   6.989  50.152  1.00  0.00     0.170 C 
HETATM   33  O2  UNL     1      24.407   7.466  50.718  1.00  0.00    -0.389 OA
HETATM   34  C8  UNL     1      23.731   6.311  51.162  1.00  0.00     0.199 C 
ENDBRANCH  29  30
ENDBRANCH  28  29
ENDBRANCH   5  28
TORSDOF 5
ENDMDL
MODEL 6
REMARK VINA RESULT:      -8.5      3.769      6.183
REMARK  5 active torsions:
REMARK  status: ('A' for Active; 'I' for Inactive)
REMARK    1  A    between atoms: C3_5  and  C4_6 
REMARK    2  A    between atoms: C4_6  and  O1_7 
REMARK    3  A    between atoms: O1_7  and  C5_8 
REMARK    4  A    between atoms: C13_19  and  N5_20 
REMARK    5  A    between atoms: N5_20  and  C14_21 
ROOT
HETATM    1  C1  UNL     1      18.404   3.577  48.802  1.00  0.00     0.312 C 
HETATM    2  N1  UNL     1      19.893   3.333  49.083  1.00  0.00     0.108 NA
HETATM    3  C2  UNL     1      19.970   1.973  49.181  1.00  0.00     0.395 C 
HETATM    4  N2  UNL     1      21.010   1.110  49.503  1.00  0.00    -0.367 N 
HETATM    5  C3  UNL     1      21.769   1.195  50.703  1.00  0.00     0.031 C 
HETATM    6  C9  UNL     1      22.891   1.647  51.164  1.00  0.00     0.044 C 
HETATM    7  C10 UNL     1      24.081   2.363  50.693  1.00  0.00     0.037 A 
HETATM    8  C11 UNL     1      24.003   3.365  49.672  1.00  0.00     0.057 A 
HETATM    9  N3  UNL     1      25.045   4.046  49.240  1.00  0.00    -0.245 NA
HETATM   10  C12 UNL     1      26.245   3.800  49.770  1.00  0.00     0.235 A 
HETATM   11  N4  UNL     1      26.360   2.882  50.713  1.00  0.00    -0.224 NA
HETATM   12  C13 UNL     1      25.340   2.162  51.191  1.00  0.00     0.141 A 
HETATM   13  C20 UNL     1      22.706   3.512  49.154  1.00  0.00     0.140 C 
HETATM   14  C21 UNL     1      21.968   4.355  48.320  1.00  0.00     0.160 C 
HETATM   15  O3  UNL     1      22.583   5.244  47.751  1.00  0.00    -0.296 OA
HETATM   16  C22 UNL     1      20.496   4.198  48.117  1.00  0.00     0.352 C 
HETATM   17  H6  UNL     1      21.337   0.315  48.899  1.00  0.00     0.161 HD
ENDROOT
BRANCH  12  18
HETATM   18  N5  UNL     1      25.561   1.194  52.197  1.00  0.00    -0.340 N 
HETATM   19  H18 UNL     1      24.736   0.705  52.611  1.00  0.00     0.167 HD
BRANCH  18  20
HETATM   20  C14 UNL     1      26.777   0.741  52.761  1.00  0.00     0.035 A 
HETATM   21  C15 UNL     1      27.199  -0.582  52.647  1.00  0.00     0.032 A 
HETATM   22  C16 UNL     1      28.367  -1.070  53.169  1.00  0.00     0.046 A 
HETATM   23  C17 UNL     1      29.206  -0.247  53.855  1.00  0.00     0.138 A 
HETATM   24  F1  UNL     1      30.334  -0.768  54.346  1.00  0.00    -0.204 F 
HETATM   25  C18 UNL     1      28.848   1.062  54.002  1.00  0.00     0.074 A 
HETATM   26 CL1  UNL     1      29.953   2.106  54.894  1.00  0.00    -0.081 Cl
HETATM   27  C19 UNL     1      27.667   1.517  53.463  1.00  0.00     0.056 A 
ENDBRANCH  18  20
ENDBRANCH  12  18
BRANCH   5  28
HETATM   28  C4  UNL     1      20.843   0.485  51.625  1.00  0.00     0.225 C 
BRANCH  28  29
HETATM   29  O1  UNL     1      20.566   1.190  52.789  1.00  0.00    -0.378 OA
BRANCH  29  30
HETATM   30  C5  UNL     1      20.580   0.394  53.922  1.00  0.00     0.147 C 
HETATM   31  C6  UNL     1      22.021   0.047  54.221  1.00  0.00     0.060 C 
HETATM   32  C7  UNL     1      21.964  -1.423  54.518  1.00  0.00     0.170 C 
HETATM   33  O2  UNL     1      20.613  -1.765  54.575  1.00  0.00    -0.389 OA
HETATM   34  C8  UNL     1      19.999  -0.975  53.581  1.00  0.00     0.199 C 
ENDBRANCH  29  30
ENDBRANCH  28  29
ENDBRANCH   5  28
TORSDOF 5
ENDMDL
MODEL 7
REMARK VINA RESULT:      -8.5      4.266      7.786
REMARK  5 active torsions:
REMARK  status: ('A' for Active; 'I' for Inactive)
REMARK    1  A    between atoms: C3_5  and  C4_6 
REMARK    2  A    between atoms: C4_6  and  O1_7 
REMARK    3  A    between atoms: O1_7  and  C5_8 
REMARK    4  A    between atoms: C13_19  and  N5_20 
REMARK    5  A    between atoms: N5_20  and  C14_21 
ROOT
HETATM    1  C1  UNL     1      28.628   2.310  53.818  1.00  0.00     0.312 C 
HETATM    2  N1  UNL     1      27.251   1.662  53.628  1.00  0.00     0.108 NA
HETATM    3  C2  UNL     1      27.123   1.598  52.270  1.00  0.00     0.395 C 
HETATM    4  N2  UNL     1      26.084   1.197  51.439  1.00  0.00    -0.367 N 
HETATM    5  C3  UNL     1      24.771   1.740  51.492  1.00  0.00     0.031 C 
HETATM    6  C9  UNL     1      23.592   1.501  51.969  1.00  0.00     0.044 C 
HETATM    7  C10 UNL     1      22.899   0.483  52.765  1.00  0.00     0.037 A 
HETATM    8  C11 UNL     1      23.558  -0.229  53.818  1.00  0.00     0.057 A 
HETATM    9  N3  UNL     1      22.963  -1.133  54.570  1.00  0.00    -0.245 NA
HETATM   10  C12 UNL     1      21.677  -1.412  54.351  1.00  0.00     0.235 A 
HETATM   11  N4  UNL     1      21.032  -0.779  53.388  1.00  0.00    -0.224 NA
HETATM   12  C13 UNL     1      21.582   0.147  52.596  1.00  0.00     0.141 A 
HETATM   13  C20 UNL     1      24.917   0.108  53.933  1.00  0.00     0.140 C 
HETATM   14  C21 UNL     1      26.006  -0.082  54.786  1.00  0.00     0.160 C 
HETATM   15  O3  UNL     1      25.839  -0.835  55.734  1.00  0.00    -0.296 OA
HETATM   16  C22 UNL     1      27.322   0.591  54.573  1.00  0.00     0.352 C 
HETATM   17  H6  UNL     1      26.163   0.458  50.695  1.00  0.00     0.161 HD
ENDROOT
BRANCH  12  18
HETATM   18  N5  UNL     1      20.814   0.767  51.583  1.00  0.00    -0.340 N 
HETATM   19  H18 UNL     1      21.300   1.103  50.722  1.00  0.00     0.167 HD
BRANCH  18  20
HETATM   20  C14 UNL     1      19.422   1.013  51.531  1.00  0.00     0.035 A 
HETATM   21  C15 UNL     1      18.492  -0.017  51.413  1.00  0.00     0.032 A 
HETATM   22  C16 UNL     1      17.136   0.165  51.363  1.00  0.00     0.046 A 
HETATM   23  C17 UNL     1      16.612   1.419  51.429  1.00  0.00     0.138 A 
HETATM   24  F1  UNL     1      15.284   1.548  51.376  1.00  0.00    -0.204 F 
HETATM   25  C18 UNL     1      17.473   2.472  51.545  1.00  0.00     0.074 A 
HETATM   26 CL1  UNL     1      16.767   4.086  51.628  1.00  0.00    -0.081 Cl
HETATM   27  C19 UNL     1      18.830   2.251  51.592  1.00  0.00     0.056 A 
ENDBRANCH  18  20
ENDBRANCH  12  18
BRANCH   5  28
HETATM   28  C4  UNL     1      24.989   2.973  50.689  1.00  0.00     0.225 C 
BRANCH  28  29
HETATM   29  O1  UNL     1      23.945   3.886  50.774  1.00  0.00    -0.378 OA
BRANCH  29  30
HETATM   30  C5  UNL     1      24.113   4.982  49.946  1.00  0.00     0.147 C 
HETATM   31  C6  UNL     1      25.460   4.846  49.273  1.00  0.00     0.060 C 
HETATM   32  C7  UNL     1      26.046   6.222  49.397  1.00  0.00     0.170 C 
HETATM   33  O2  UNL     1      25.031   7.043  49.892  1.00  0.00    -0.389 OA
HETATM   34  C8  UNL     1      24.323   6.230  50.800  1.00  0.00     0.199 C 
ENDBRANCH  29  30
ENDBRANCH  28  29
ENDBRANCH   5  28
TORSDOF 5
ENDMDL
MODEL 8
REMARK VINA RESULT:      -8.3      4.063      6.732
REMARK  5 active torsions:
REMARK  status: ('A' for Active; 'I' for Inactive)
REMARK    1  A    between atoms: C3_5  and  C4_6 
REMARK    2  A    between atoms: C4_6  and  O1_7 
REMARK    3  A    between atoms: O1_7  and  C5_8 
REMARK    4  A    between atoms: C13_19  and  N5_20 
REMARK    5  A    between atoms: N5_20  and  C14_21 
ROOT
HETATM    1  C1  UNL     1      27.185   7.301  48.506  1.00  0.00     0.312 C 
HETATM    2  N1  UNL     1      25.917   6.441  48.592  1.00  0.00     0.108 NA
HETATM    3  C2  UNL     1      25.887   6.066  49.905  1.00  0.00     0.395 C 
HETATM    4  N2  UNL     1      25.051   5.220  50.624  1.00  0.00    -0.367 N 
HETATM    5  C3  UNL     1      24.807   3.862  50.276  1.00  0.00     0.031 C 
HETATM    6  C9  UNL     1      23.945   3.108  49.673  1.00  0.00     0.044 C 
HETATM    7  C10 UNL     1      22.664   3.225  48.970  1.00  0.00     0.037 A 
HETATM    8  C11 UNL     1      22.343   4.370  48.171  1.00  0.00     0.057 A 
HETATM    9  N3  UNL     1      21.212   4.500  47.506  1.00  0.00    -0.245 NA
HETATM   10  C12 UNL     1      20.307   3.522  47.571  1.00  0.00     0.235 A 
HETATM   11  N4  UNL     1      20.563   2.450  48.298  1.00  0.00    -0.224 NA
HETATM   12  C13 UNL     1      21.690   2.262  48.991  1.00  0.00     0.141 A 
HETATM   13  C20 UNL     1      23.343   5.355  48.209  1.00  0.00     0.140 C 
HETATM   14  C21 UNL     1      23.705   6.548  47.579  1.00  0.00     0.160 C 
HETATM   15  O3  UNL     1      22.917   7.001  46.764  1.00  0.00    -0.296 OA
HETATM   16  C22 UNL     1      24.988   7.255  47.871  1.00  0.00     0.352 C 
HETATM   17  H6  UNL     1      24.521   5.495  51.488  1.00  0.00     0.161 HD
ENDROOT
BRANCH  12  18
HETATM   18  N5  UNL     1      21.873   1.083  49.750  1.00  0.00    -0.340 N 
HETATM   19  H18 UNL     1      22.226   0.227  49.268  1.00  0.00     0.167 HD
BRANCH  18  20
HETATM   20  C14 UNL     1      21.656   0.857  51.130  1.00  0.00     0.035 A 
HETATM   21  C15 UNL     1      20.492   1.269  51.774  1.00  0.00     0.032 A 
HETATM   22  C16 UNL     1      20.230   1.071  53.103  1.00  0.00     0.046 A 
HETATM   23  C17 UNL     1      21.138   0.435  53.892  1.00  0.00     0.138 A 
HETATM   24  F1  UNL     1      20.840   0.265  55.182  1.00  0.00    -0.204 F 
HETATM   25  C18 UNL     1      22.301   0.007  53.319  1.00  0.00     0.074 A 
HETATM   26 CL1  UNL     1      23.460  -0.815  54.363  1.00  0.00    -0.081 Cl
HETATM   27  C19 UNL     1      22.530   0.223  51.980  1.00  0.00     0.056 A 
ENDBRANCH  18  20
ENDBRANCH  12  18
BRANCH   5  28
HETATM   28  C4  UNL     1      26.018   3.239  50.876  1.00  0.00     0.225 C 
BRANCH  28  29
HETATM   29  O1  UNL     1      25.781   1.993  51.441  1.00  0.00    -0.378 OA
BRANCH  29  30
HETATM   30  C5  UNL     1      26.781   1.592  52.309  1.00  0.00     0.147 C 
HETATM   31  C6  UNL     1      26.684   0.090  52.460  1.00  0.00     0.060 C 
HETATM   32  C7  UNL     1      26.821  -0.115  53.940  1.00  0.00     0.170 C 
HETATM   33  O2  UNL     1      27.165   1.123  54.483  1.00  0.00    -0.389 OA
HETATM   34  C8  UNL     1      26.442   2.063  53.720  1.00  0.00     0.199 C 
ENDBRANCH  29  30
ENDBRANCH  28  29
ENDBRANCH   5  28
TORSDOF 5
ENDMDL
MODEL 9
REMARK VINA RESULT:      -8.3      3.719      6.492
REMARK  5 active torsions:
REMARK  status: ('A' for Active; 'I' for Inactive)
REMARK    1  A    between atoms: C3_5  and  C4_6 
REMARK    2  A    between atoms: C4_6  and  O1_7 
REMARK    3  A    between atoms: O1_7  and  C5_8 
REMARK    4  A    between atoms: C13_19  and  N5_20 
REMARK    5  A    between atoms: N5_20  and  C14_21 
ROOT
HETATM    1  C1  UNL     1      25.041   8.079  50.125  1.00  0.00     0.312 C 
HETATM    2  N1  UNL     1      23.994   6.994  50.413  1.00  0.00     0.108 NA
HETATM    3  C2  UNL     1      24.574   6.263  51.410  1.00  0.00     0.395 C 
HETATM    4  N2  UNL     1      24.195   5.098  52.066  1.00  0.00    -0.367 N 
HETATM    5  C3  UNL     1      23.898   3.875  51.403  1.00  0.00     0.031 C 
HETATM    6  C9  UNL     1      22.902   3.167  50.979  1.00  0.00     0.044 C 
HETATM    7  C10 UNL     1      21.437   3.218  50.937  1.00  0.00     0.037 A 
HETATM    8  C11 UNL     1      20.730   4.454  50.780  1.00  0.00     0.057 A 
HETATM    9  N3  UNL     1      19.416   4.538  50.715  1.00  0.00    -0.245 NA
HETATM   10  C12 UNL     1      18.691   3.421  50.798  1.00  0.00     0.235 A 
HETATM   11  N4  UNL     1      19.304   2.261  50.944  1.00  0.00    -0.224 NA
HETATM   12  C13 UNL     1      20.631   2.114  51.016  1.00  0.00     0.141 A 
HETATM   13  C20 UNL     1      21.585   5.568  50.748  1.00  0.00     0.140 C 
HETATM   14  C21 UNL     1      21.560   6.938  50.478  1.00  0.00     0.160 C 
HETATM   15  O3  UNL     1      20.468   7.437  50.258  1.00  0.00    -0.296 OA
HETATM   16  C22 UNL     1      22.797   7.775  50.453  1.00  0.00     0.352 C 
HETATM   17  H6  UNL     1      24.090   5.004  53.108  1.00  0.00     0.161 HD
ENDROOT
BRANCH  12  18
HETATM   18  N5  UNL     1      21.199   0.830  51.182  1.00  0.00    -0.340 N 
HETATM   19  H18 UNL     1      21.363   0.242  50.335  1.00  0.00     0.167 HD
BRANCH  18  20
HETATM   20  C14 UNL     1      21.615   0.175  52.365  1.00  0.00     0.035 A 
HETATM   21  C15 UNL     1      20.715  -0.472  53.209  1.00  0.00     0.032 A 
HETATM   22  C16 UNL     1      21.065  -1.125  54.361  1.00  0.00     0.046 A 
HETATM   23  C17 UNL     1      22.367  -1.171  54.752  1.00  0.00     0.138 A 
HETATM   24  F1  UNL     1      22.661  -1.818  55.883  1.00  0.00    -0.204 F 
HETATM   25  C18 UNL     1      23.299  -0.554  53.967  1.00  0.00     0.074 A 
HETATM   26 CL1  UNL     1      24.979  -0.629  54.496  1.00  0.00    -0.081 Cl
HETATM   27  C19 UNL     1      22.910   0.092  52.816  1.00  0.00     0.056 A 
ENDBRANCH  18  20
ENDBRANCH  12  18
BRANCH   5  28
HETATM   28  C4  UNL     1      25.282   3.364  51.212  1.00  0.00     0.225 C 
BRANCH  28  29
HETATM   29  O1  UNL     1      25.565   2.228  51.960  1.00  0.00    -0.378 OA
BRANCH  29  30
HETATM   30  C5  UNL     1      26.908   1.895  51.955  1.00  0.00     0.147 C 
HETATM   31  C6  UNL     1      27.008   0.386  51.943  1.00  0.00     0.060 C 
HETATM   32  C7  UNL     1      28.061   0.104  52.973  1.00  0.00     0.170 C 
HETATM   33  O2  UNL     1      28.605   1.338  53.334  1.00  0.00    -0.389 OA
HETATM   34  C8  UNL     1      27.514   2.231  53.316  1.00  0.00     0.199 C 
ENDBRANCH  29  30
ENDBRANCH  28  29
ENDBRANCH   5  28
TORSDOF 5
ENDMDL
