MODEL 1
REMARK VINA RESULT:      -8.4      0.000      0.000
REMARK  4 active torsions:
REMARK  status: ('A' for Active; 'I' for Inactive)
REMARK    1  A    between atoms: C6_7  and  N1_8 
REMARK    2  A    between atoms: N1_8  and  C7_9 
REMARK    3  A    between atoms: C14_18  and  C15_19 
REMARK    4  A    between atoms: C19_24  and  C20_25 
ROOT
HETATM    1  C7  UNL     1      24.773   2.069  52.633  1.00  0.00     0.008 A 
HETATM    2  C8  UNL     1      24.587   3.167  53.360  1.00  0.00     0.024 A 
HETATM    3  C9  UNL     1      23.675   4.228  52.923  1.00  0.00     0.001 A 
HETATM    4  C10 UNL     1      23.072   4.006  51.775  1.00  0.00     0.021 A 
HETATM    5  C11 UNL     1      23.178   2.854  50.873  1.00  0.00     0.227 A 
HETATM    6  C12 UNL     1      24.111   1.782  51.333  1.00  0.00     0.109 A 
HETATM    7  N2  UNL     1      21.890   2.262  50.565  1.00  0.00     0.122 N 
HETATM    8  C13 UNL     1      22.134   1.656  49.252  1.00  0.00     0.420 C 
HETATM    9  N3  UNL     1      23.012   2.616  48.576  1.00  0.00    -0.260 NA
HETATM   10  C14 UNL     1      23.617   3.309  49.509  1.00  0.00     0.086 C 
HETATM   11  H16 UNL     1      21.132   2.963  50.485  1.00  0.00     0.320 HD
ENDROOT
BRANCH  10  12
HETATM   12  C15 UNL     1      24.563   4.354  49.198  1.00  0.00     0.019 A 
HETATM   13  C16 UNL     1      25.946   4.350  49.333  1.00  0.00     0.130 A 
HETATM   14  N4  UNL     1      26.682   5.406  48.998  1.00  0.00    -0.272 NA
HETATM   15  C17 UNL     1      26.123   6.543  48.505  1.00  0.00     0.117 A 
HETATM   16  C18 UNL     1      24.750   6.605  48.349  1.00  0.00     0.031 A 
HETATM   17  C19 UNL     1      23.985   5.510  48.697  1.00  0.00    -0.020 A 
BRANCH  17  18
HETATM   18  C20 UNL     1      22.549   5.674  48.494  1.00  0.00     0.024 C 
HETATM   19  C21 UNL     1      21.738   6.510  49.124  1.00  0.00     0.085 C 
HETATM   20 CL1  UNL     1      20.034   6.627  48.805  1.00  0.00    -0.097 Cl
ENDBRANCH  17  18
ENDBRANCH  10  12
BRANCH   1  21
HETATM   21  N1  UNL     1      25.660   1.060  53.079  1.00  0.00    -0.382 N 
HETATM   22  H10 UNL     1      24.975   0.617  53.755  1.00  0.00     0.160 HD
BRANCH  21  23
HETATM   23  C6  UNL     1      27.002   0.563  52.893  1.00  0.00     0.151 C 
HETATM   24  C1  UNL     1      27.889   1.213  53.877  1.00  0.00     0.149 C 
HETATM   25  O1  UNL     1      27.921   2.407  54.115  1.00  0.00    -0.296 OA
HETATM   26  C2  UNL     1      28.824   0.344  54.648  1.00  0.00     0.080 C 
HETATM   27  C3  UNL     1      29.411  -0.744  53.779  1.00  0.00     0.007 C 
HETATM   28  C4  UNL     1      28.381  -1.526  53.041  1.00  0.00     0.003 C 
HETATM   29  C5  UNL     1      27.000  -0.930  53.111  1.00  0.00     0.033 C 
ENDBRANCH  21  23
ENDBRANCH   1  21
TORSDOF 4
ENDMDL
MODEL 2
REMARK VINA RESULT:      -8.4      2.284      3.777
REMARK  4 active torsions:
REMARK  status: ('A' for Active; 'I' for Inactive)
REMARK    1  A    between atoms: C6_7  and  N1_8 
REMARK    2  A    between atoms: N1_8  and  C7_9 
REMARK    3  A    between atoms: C14_18  and  C15_19 
REMARK    4  A    between atoms: C19_24  and  C20_25 
ROOT
HETATM    1  C7  UNL     1      25.931   2.636  51.380  1.00  0.00     0.008 A 
HETATM    2  C8  UNL     1      26.594   3.150  50.348  1.00  0.00     0.024 A 
HETATM    3  C9  UNL     1      26.125   4.357  49.662  1.00  0.00     0.001 A 
HETATM    4  C10 UNL     1      25.015   4.874  50.142  1.00  0.00     0.021 A 
HETATM    5  C11 UNL     1      24.182   4.421  51.262  1.00  0.00     0.227 A 
HETATM    6  C12 UNL     1      24.675   3.191  51.951  1.00  0.00     0.109 A 
HETATM    7  N2  UNL     1      23.957   5.459  52.250  1.00  0.00     0.122 N 
HETATM    8  C13 UNL     1      22.676   5.054  52.839  1.00  0.00     0.420 C 
HETATM    9  N3  UNL     1      21.912   4.534  51.700  1.00  0.00    -0.260 NA
HETATM   10  C14 UNL     1      22.778   4.167  50.789  1.00  0.00     0.086 C 
HETATM   11  H16 UNL     1      23.860   6.401  51.830  1.00  0.00     0.320 HD
ENDROOT
BRANCH  10  12
HETATM   12  C15 UNL     1      22.370   3.604  49.524  1.00  0.00     0.019 A 
HETATM   13  C16 UNL     1      22.167   4.244  48.307  1.00  0.00     0.130 A 
HETATM   14  N4  UNL     1      21.787   3.575  47.223  1.00  0.00    -0.272 NA
HETATM   15  C17 UNL     1      21.578   2.232  47.245  1.00  0.00     0.117 A 
HETATM   16  C18 UNL     1      21.765   1.541  48.429  1.00  0.00     0.031 A 
HETATM   17  C19 UNL     1      22.158   2.235  49.556  1.00  0.00    -0.020 A 
BRANCH  17  18
HETATM   18  C20 UNL     1      22.329   1.418  50.753  1.00  0.00     0.024 C 
HETATM   19  C21 UNL     1      21.517   0.474  51.205  1.00  0.00     0.085 C 
HETATM   20 CL1  UNL     1      21.815  -0.445  52.649  1.00  0.00    -0.097 Cl
ENDBRANCH  17  18
ENDBRANCH  10  12
BRANCH   1  21
HETATM   21  N1  UNL     1      26.408   1.469  52.024  1.00  0.00    -0.382 N 
HETATM   22  H10 UNL     1      25.461   1.166  52.394  1.00  0.00     0.160 HD
BRANCH  21  23
HETATM   23  C6  UNL     1      27.615   0.718  52.269  1.00  0.00     0.151 C 
HETATM   24  C1  UNL     1      28.436   1.448  53.255  1.00  0.00     0.149 C 
HETATM   25  O1  UNL     1      28.691   2.638  53.216  1.00  0.00    -0.296 OA
HETATM   26  C2  UNL     1      29.000   0.671  54.396  1.00  0.00     0.080 C 
HETATM   27  C3  UNL     1      29.474  -0.694  53.956  1.00  0.00     0.007 C 
HETATM   28  C4  UNL     1      28.444  -1.458  53.200  1.00  0.00     0.003 C 
HETATM   29  C5  UNL     1      27.241  -0.638  52.814  1.00  0.00     0.033 C 
ENDBRANCH  21  23
ENDBRANCH   1  21
TORSDOF 4
ENDMDL
MODEL 3
REMARK VINA RESULT:      -8.3      2.451      3.711
REMARK  4 active torsions:
REMARK  status: ('A' for Active; 'I' for Inactive)
REMARK    1  A    between atoms: C6_7  and  N1_8 
REMARK    2  A    between atoms: N1_8  and  C7_9 
REMARK    3  A    between atoms: C14_18  and  C15_19 
REMARK    4  A    between atoms: C19_24  and  C20_25 
ROOT
HETATM    1  C7  UNL     1      26.163   3.129  50.286  1.00  0.00     0.008 A 
HETATM    2  C8  UNL     1      26.875   3.837  49.415  1.00  0.00     0.024 A 
HETATM    3  C9  UNL     1      26.459   5.179  48.999  1.00  0.00     0.001 A 
HETATM    4  C10 UNL     1      25.346   5.612  49.550  1.00  0.00     0.021 A 
HETATM    5  C11 UNL     1      24.463   4.950  50.515  1.00  0.00     0.227 A 
HETATM    6  C12 UNL     1      24.901   3.583  50.929  1.00  0.00     0.109 A 
HETATM    7  N2  UNL     1      24.228   5.751  51.702  1.00  0.00     0.122 N 
HETATM    8  C13 UNL     1      22.917   5.267  52.148  1.00  0.00     0.420 C 
HETATM    9  N3  UNL     1      22.181   5.036  50.900  1.00  0.00    -0.260 NA
HETATM   10  C14 UNL     1      23.071   4.852  49.957  1.00  0.00     0.086 C 
HETATM   11  H16 UNL     1      24.168   6.765  51.499  1.00  0.00     0.320 HD
ENDROOT
BRANCH  10  12
HETATM   12  C15 UNL     1      22.695   4.596  48.587  1.00  0.00     0.019 A 
HETATM   13  C16 UNL     1      22.600   5.487  47.525  1.00  0.00     0.130 A 
HETATM   14  N4  UNL     1      22.236   5.087  46.310  1.00  0.00    -0.272 NA
HETATM   15  C17 UNL     1      21.937   3.788  46.041  1.00  0.00     0.117 A 
HETATM   16  C18 UNL     1      22.014   2.856  47.060  1.00  0.00     0.031 A 
HETATM   17  C19 UNL     1      22.392   3.269  48.322  1.00  0.00    -0.020 A 
BRANCH  17  18
HETATM   18  C20 UNL     1      22.443   2.211  49.326  1.00  0.00     0.024 C 
HETATM   19  C21 UNL     1      21.428   1.512  49.810  1.00  0.00     0.085 C 
HETATM   20 CL1  UNL     1      21.599   0.267  51.010  1.00  0.00    -0.097 Cl
ENDBRANCH  17  18
ENDBRANCH  10  12
BRANCH   1  21
HETATM   21  N1  UNL     1      26.587   1.834  50.670  1.00  0.00    -0.382 N 
HETATM   22  H10 UNL     1      26.797   1.502  49.686  1.00  0.00     0.160 HD
BRANCH  21  23
HETATM   23  C6  UNL     1      26.776   0.997  51.831  1.00  0.00     0.151 C 
HETATM   24  C1  UNL     1      27.397   1.803  52.900  1.00  0.00     0.149 C 
HETATM   25  O1  UNL     1      28.358   2.538  52.760  1.00  0.00    -0.296 OA
HETATM   26  C2  UNL     1      26.804   1.717  54.265  1.00  0.00     0.080 C 
HETATM   27  C3  UNL     1      26.385   0.304  54.599  1.00  0.00     0.007 C 
HETATM   28  C4  UNL     1      25.517  -0.313  53.559  1.00  0.00     0.003 C 
HETATM   29  C5  UNL     1      25.431   0.488  52.286  1.00  0.00     0.033 C 
ENDBRANCH  21  23
ENDBRANCH   1  21
TORSDOF 4
ENDMDL
MODEL 4
REMARK VINA RESULT:      -8.0      2.149      2.780
REMARK  4 active torsions:
REMARK  status: ('A' for Active; 'I' for Inactive)
REMARK    1  A    between atoms: C6_7  and  N1_8 
REMARK    2  A    between atoms: N1_8  and  C7_9 
REMARK    3  A    between atoms: C14_18  and  C15_19 
REMARK    4  A    between atoms: C19_24  and  C20_25 
ROOT
HETATM    1  C7  UNL     1      24.314   2.294  51.640  1.00  0.00     0.008 A 
HETATM    2  C8  UNL     1      23.460   2.450  52.647  1.00  0.00     0.024 A 
HETATM    3  C9  UNL     1      22.037   2.711  52.410  1.00  0.00     0.001 A 
HETATM    4  C10 UNL     1      21.688   2.777  51.144  1.00  0.00     0.021 A 
HETATM    5  C11 UNL     1      22.511   2.628  49.939  1.00  0.00     0.227 A 
HETATM    6  C12 UNL     1      23.957   2.363  50.198  1.00  0.00     0.109 A 
HETATM    7  N2  UNL     1      21.999   1.619  49.031  1.00  0.00     0.122 N 
HETATM    8  C13 UNL     1      22.504   2.083  47.735  1.00  0.00     0.420 C 
HETATM    9  N3  UNL     1      22.398   3.544  47.815  1.00  0.00    -0.260 NA
HETATM   10  C14 UNL     1      22.402   3.861  49.086  1.00  0.00     0.086 C 
HETATM   11  H16 UNL     1      20.964   1.588  49.005  1.00  0.00     0.320 HD
ENDROOT
BRANCH  10  12
HETATM   12  C15 UNL     1      22.309   5.230  49.536  1.00  0.00     0.019 A 
HETATM   13  C16 UNL     1      21.211   5.910  50.048  1.00  0.00     0.130 A 
HETATM   14  N4  UNL     1      21.292   7.184  50.420  1.00  0.00    -0.272 NA
HETATM   15  C17 UNL     1      22.451   7.889  50.322  1.00  0.00     0.117 A 
HETATM   16  C18 UNL     1      23.578   7.263  49.820  1.00  0.00     0.031 A 
HETATM   17  C19 UNL     1      23.495   5.941  49.431  1.00  0.00    -0.020 A 
BRANCH  17  18
HETATM   18  C20 UNL     1      24.736   5.373  48.915  1.00  0.00     0.024 C 
HETATM   19  C21 UNL     1      25.935   5.417  49.475  1.00  0.00     0.085 C 
HETATM   20 CL1  UNL     1      27.356   4.705  48.773  1.00  0.00    -0.097 Cl
ENDBRANCH  17  18
ENDBRANCH  10  12
BRANCH   1  21
HETATM   21  N1  UNL     1      25.683   2.043  51.898  1.00  0.00    -0.382 N 
HETATM   22  H10 UNL     1      25.929   3.051  52.119  1.00  0.00     0.160 HD
BRANCH  21  23
HETATM   23  C6  UNL     1      26.657   0.979  51.934  1.00  0.00     0.151 C 
HETATM   24  C1  UNL     1      27.794   1.405  52.772  1.00  0.00     0.149 C 
HETATM   25  O1  UNL     1      28.362   2.479  52.695  1.00  0.00    -0.296 OA
HETATM   26  C2  UNL     1      28.295   0.447  53.800  1.00  0.00     0.080 C 
HETATM   27  C3  UNL     1      28.293  -0.972  53.281  1.00  0.00     0.007 C 
HETATM   28  C4  UNL     1      26.983  -1.385  52.705  1.00  0.00     0.003 C 
HETATM   29  C5  UNL     1      26.011  -0.248  52.529  1.00  0.00     0.033 C 
ENDBRANCH  21  23
ENDBRANCH   1  21
TORSDOF 4
ENDMDL
MODEL 5
REMARK VINA RESULT:      -7.9      3.367      6.775
REMARK  4 active torsions:
REMARK  status: ('A' for Active; 'I' for Inactive)
REMARK    1  A    between atoms: C6_7  and  N1_8 
REMARK    2  A    between atoms: N1_8  and  C7_9 
REMARK    3  A    between atoms: C14_18  and  C15_19 
REMARK    4  A    between atoms: C19_24  and  C20_25 
ROOT
HETATM    1  C7  UNL     1      24.465   4.955  50.356  1.00  0.00     0.008 A 
HETATM    2  C8  UNL     1      23.584   5.551  51.153  1.00  0.00     0.024 A 
HETATM    3  C9  UNL     1      23.194   4.962  52.437  1.00  0.00     0.001 A 
HETATM    4  C10 UNL     1      23.777   3.818  52.725  1.00  0.00     0.021 A 
HETATM    5  C11 UNL     1      24.758   3.050  51.950  1.00  0.00     0.227 A 
HETATM    6  C12 UNL     1      25.145   3.664  50.645  1.00  0.00     0.109 A 
HETATM    7  N2  UNL     1      25.958   2.749  52.707  1.00  0.00     0.122 N 
HETATM    8  C13 UNL     1      26.432   1.521  52.060  1.00  0.00     0.420 C 
HETATM    9  N3  UNL     1      25.202   0.786  51.750  1.00  0.00    -0.260 NA
HETATM   10  C14 UNL     1      24.233   1.666  51.685  1.00  0.00     0.086 C 
HETATM   11  H16 UNL     1      25.768   2.559  53.707  1.00  0.00     0.320 HD
ENDROOT
BRANCH  10  12
HETATM   12  C15 UNL     1      22.871   1.289  51.395  1.00  0.00     0.019 A 
HETATM   13  C16 UNL     1      22.084   1.626  50.300  1.00  0.00     0.130 A 
HETATM   14  N4  UNL     1      20.832   1.192  50.181  1.00  0.00    -0.272 NA
HETATM   15  C17 UNL     1      20.257   0.396  51.121  1.00  0.00     0.117 A 
HETATM   16  C18 UNL     1      20.992   0.027  52.233  1.00  0.00     0.031 A 
HETATM   17  C19 UNL     1      22.291   0.478  52.359  1.00  0.00    -0.020 A 
BRANCH  17  18
HETATM   18  C20 UNL     1      22.982   0.035  53.565  1.00  0.00     0.024 C 
HETATM   19  C21 UNL     1      22.639  -0.959  54.369  1.00  0.00     0.085 C 
HETATM   20 CL1  UNL     1      23.536  -1.406  55.789  1.00  0.00    -0.097 Cl
ENDBRANCH  17  18
ENDBRANCH  10  12
BRANCH   1  21
HETATM   21  N1  UNL     1      24.824   5.546  49.120  1.00  0.00    -0.382 N 
HETATM   22  H10 UNL     1      24.006   5.146  48.577  1.00  0.00     0.160 HD
BRANCH  21  23
HETATM   23  C6  UNL     1      25.822   6.393  48.513  1.00  0.00     0.151 C 
HETATM   24  C1  UNL     1      25.834   7.691  49.216  1.00  0.00     0.149 C 
HETATM   25  O1  UNL     1      24.849   8.350  49.496  1.00  0.00    -0.296 OA
HETATM   26  C2  UNL     1      27.158   8.246  49.622  1.00  0.00     0.080 C 
HETATM   27  C3  UNL     1      28.207   8.008  48.561  1.00  0.00     0.007 C 
HETATM   28  C4  UNL     1      28.292   6.586  48.127  1.00  0.00     0.003 C 
HETATM   29  C5  UNL     1      27.168   5.726  48.642  1.00  0.00     0.033 C 
ENDBRANCH  21  23
ENDBRANCH   1  21
TORSDOF 4
ENDMDL
MODEL 6
REMARK VINA RESULT:      -7.9      1.746      2.906
REMARK  4 active torsions:
REMARK  status: ('A' for Active; 'I' for Inactive)
REMARK    1  A    between atoms: C6_7  and  N1_8 
REMARK    2  A    between atoms: N1_8  and  C7_9 
REMARK    3  A    between atoms: C14_18  and  C15_19 
REMARK    4  A    between atoms: C19_24  and  C20_25 
ROOT
HETATM    1  C7  UNL     1      25.865   2.749  51.236  1.00  0.00     0.008 A 
HETATM    2  C8  UNL     1      26.642   3.304  50.311  1.00  0.00     0.024 A 
HETATM    3  C9  UNL     1      26.269   4.557  49.649  1.00  0.00     0.001 A 
HETATM    4  C10 UNL     1      25.123   5.072  50.040  1.00  0.00     0.021 A 
HETATM    5  C11 UNL     1      24.169   4.577  51.039  1.00  0.00     0.227 A 
HETATM    6  C12 UNL     1      24.565   3.300  51.704  1.00  0.00     0.109 A 
HETATM    7  N2  UNL     1      23.858   5.565  52.055  1.00  0.00     0.122 N 
HETATM    8  C13 UNL     1      22.516   5.157  52.483  1.00  0.00     0.420 C 
HETATM    9  N3  UNL     1      21.867   4.718  51.243  1.00  0.00    -0.260 NA
HETATM   10  C14 UNL     1      22.819   4.382  50.408  1.00  0.00     0.086 C 
HETATM   11  H16 UNL     1      23.822   6.530  51.683  1.00  0.00     0.320 HD
ENDROOT
BRANCH  10  12
HETATM   12  C15 UNL     1      22.537   3.900  49.077  1.00  0.00     0.019 A 
HETATM   13  C16 UNL     1      22.573   2.598  48.593  1.00  0.00     0.130 A 
HETATM   14  N4  UNL     1      22.283   2.317  47.325  1.00  0.00    -0.272 NA
HETATM   15  C17 UNL     1      21.938   3.286  46.437  1.00  0.00     0.117 A 
HETATM   16  C18 UNL     1      21.886   4.601  46.862  1.00  0.00     0.031 A 
HETATM   17  C19 UNL     1      22.187   4.895  48.177  1.00  0.00    -0.020 A 
BRANCH  17  18
HETATM   18  C20 UNL     1      22.104   6.309  48.526  1.00  0.00     0.024 C 
HETATM   19  C21 UNL     1      22.744   7.318  47.956  1.00  0.00     0.085 C 
HETATM   20 CL1  UNL     1      22.572   8.974  48.451  1.00  0.00    -0.097 Cl
ENDBRANCH  17  18
ENDBRANCH  10  12
BRANCH   1  21
HETATM   21  N1  UNL     1      26.251   1.538  51.860  1.00  0.00    -0.382 N 
HETATM   22  H10 UNL     1      25.278   1.287  52.199  1.00  0.00     0.160 HD
BRANCH  21  23
HETATM   23  C6  UNL     1      27.402   0.705  52.112  1.00  0.00     0.151 C 
HETATM   24  C1  UNL     1      28.245   1.358  53.133  1.00  0.00     0.149 C 
HETATM   25  O1  UNL     1      28.577   2.529  53.128  1.00  0.00    -0.296 OA
HETATM   26  C2  UNL     1      28.732   0.521  54.266  1.00  0.00     0.080 C 
HETATM   27  C3  UNL     1      29.128  -0.862  53.803  1.00  0.00     0.007 C 
HETATM   28  C4  UNL     1      28.069  -1.540  53.007  1.00  0.00     0.003 C 
HETATM   29  C5  UNL     1      26.930  -0.636  52.615  1.00  0.00     0.033 C 
ENDBRANCH  21  23
ENDBRANCH   1  21
TORSDOF 4
ENDMDL
MODEL 7
REMARK VINA RESULT:      -7.8      3.361      6.687
REMARK  4 active torsions:
REMARK  status: ('A' for Active; 'I' for Inactive)
REMARK    1  A    between atoms: C6_7  and  N1_8 
REMARK    2  A    between atoms: N1_8  and  C7_9 
REMARK    3  A    between atoms: C14_18  and  C15_19 
REMARK    4  A    between atoms: C19_24  and  C20_25 
ROOT
HETATM    1  C7  UNL     1      22.502   3.678  48.832  1.00  0.00     0.008 A 
HETATM    2  C8  UNL     1      22.651   2.531  48.177  1.00  0.00     0.024 A 
HETATM    3  C9  UNL     1      21.861   1.345  48.521  1.00  0.00     0.001 A 
HETATM    4  C10 UNL     1      21.013   1.511  49.513  1.00  0.00     0.021 A 
HETATM    5  C11 UNL     1      20.743   2.705  50.321  1.00  0.00     0.227 A 
HETATM    6  C12 UNL     1      21.555   3.904  49.957  1.00  0.00     0.109 A 
HETATM    7  N2  UNL     1      19.338   3.069  50.331  1.00  0.00     0.122 N 
HETATM    8  C13 UNL     1      19.210   3.772  51.612  1.00  0.00     0.420 C 
HETATM    9  N3  UNL     1      20.084   3.020  52.518  1.00  0.00    -0.260 NA
HETATM   10  C14 UNL     1      20.970   2.404  51.776  1.00  0.00     0.086 C 
HETATM   11  H16 UNL     1      18.708   2.247  50.326  1.00  0.00     0.320 HD
ENDROOT
BRANCH  10  12
HETATM   12  C15 UNL     1      21.997   1.563  52.344  1.00  0.00     0.019 A 
HETATM   13  C16 UNL     1      23.347   1.836  52.531  1.00  0.00     0.130 A 
HETATM   14  N4  UNL     1      24.169   0.944  53.075  1.00  0.00    -0.272 NA
HETATM   15  C17 UNL     1      23.735  -0.280  53.478  1.00  0.00     0.117 A 
HETATM   16  C18 UNL     1      22.401  -0.608  53.317  1.00  0.00     0.031 A 
HETATM   17  C19 UNL     1      21.546   0.317  52.751  1.00  0.00    -0.020 A 
BRANCH  17  18
HETATM   18  C20 UNL     1      20.161  -0.124  52.625  1.00  0.00     0.024 C 
HETATM   19  C21 UNL     1      19.443  -0.786  53.518  1.00  0.00     0.085 C 
HETATM   20 CL1  UNL     1      17.792  -1.266  53.266  1.00  0.00    -0.097 Cl
ENDBRANCH  17  18
ENDBRANCH  10  12
BRANCH   1  21
HETATM   21  N1  UNL     1      23.278   4.808  48.479  1.00  0.00    -0.382 N 
HETATM   22  H10 UNL     1      22.810   4.960  47.539  1.00  0.00     0.160 HD
BRANCH  21  23
HETATM   23  C6  UNL     1      24.341   5.654  48.965  1.00  0.00     0.151 C 
HETATM   24  C1  UNL     1      25.516   4.814  49.266  1.00  0.00     0.149 C 
HETATM   25  O1  UNL     1      25.494   3.774  49.900  1.00  0.00    -0.296 OA
HETATM   26  C2  UNL     1      26.841   5.267  48.755  1.00  0.00     0.080 C 
HETATM   27  C3  UNL     1      26.997   6.766  48.872  1.00  0.00     0.007 C 
HETATM   28  C4  UNL     1      25.864   7.522  48.272  1.00  0.00     0.003 C 
HETATM   29  C5  UNL     1      24.689   6.659  47.895  1.00  0.00     0.033 C 
ENDBRANCH  21  23
ENDBRANCH   1  21
TORSDOF 4
ENDMDL
MODEL 8
REMARK VINA RESULT:      -7.4      2.836      4.440
REMARK  4 active torsions:
REMARK  status: ('A' for Active; 'I' for Inactive)
REMARK    1  A    between atoms: C6_7  and  N1_8 
REMARK    2  A    between atoms: N1_8  and  C7_9 
REMARK    3  A    between atoms: C14_18  and  C15_19 
REMARK    4  A    between atoms: C19_24  and  C20_25 
ROOT
HETATM    1  C7  UNL     1      25.058   3.520  50.998  1.00  0.00     0.008 A 
HETATM    2  C8  UNL     1      25.982   3.242  50.084  1.00  0.00     0.024 A 
HETATM    3  C9  UNL     1      26.423   4.244  49.110  1.00  0.00     0.001 A 
HETATM    4  C10 UNL     1      25.837   5.417  49.216  1.00  0.00     0.021 A 
HETATM    5  C11 UNL     1      24.810   5.866  50.163  1.00  0.00     0.227 A 
HETATM    6  C12 UNL     1      24.373   4.832  51.148  1.00  0.00     0.109 A 
HETATM    7  N2  UNL     1      25.193   7.069  50.877  1.00  0.00     0.122 N 
HETATM    8  C13 UNL     1      23.892   7.664  51.201  1.00  0.00     0.420 C 
HETATM    9  N3  UNL     1      23.071   7.388  50.017  1.00  0.00    -0.260 NA
HETATM   10  C14 UNL     1      23.598   6.350  49.416  1.00  0.00     0.086 C 
HETATM   11  H16 UNL     1      25.737   7.729  50.293  1.00  0.00     0.320 HD
ENDROOT
BRANCH  10  12
HETATM   12  C15 UNL     1      23.040   5.799  48.204  1.00  0.00     0.019 A 
HETATM   13  C16 UNL     1      22.385   4.588  48.015  1.00  0.00     0.130 A 
HETATM   14  N4  UNL     1      21.926   4.224  46.821  1.00  0.00    -0.272 NA
HETATM   15  C17 UNL     1      22.072   5.014  45.724  1.00  0.00     0.117 A 
HETATM   16  C18 UNL     1      22.716   6.231  45.853  1.00  0.00     0.031 A 
HETATM   17  C19 UNL     1      23.195   6.611  47.091  1.00  0.00    -0.020 A 
BRANCH  17  18
HETATM   18  C20 UNL     1      23.858   7.910  47.122  1.00  0.00     0.024 C 
HETATM   19  C21 UNL     1      25.088   8.195  46.724  1.00  0.00     0.085 C 
HETATM   20 CL1  UNL     1      25.785   9.784  46.805  1.00  0.00    -0.097 Cl
ENDBRANCH  17  18
ENDBRANCH  10  12
BRANCH   1  21
HETATM   21  N1  UNL     1      24.650   2.533  51.926  1.00  0.00    -0.382 N 
HETATM   22  H10 UNL     1      25.073   3.012  52.773  1.00  0.00     0.160 HD
BRANCH  21  23
HETATM   23  C6  UNL     1      23.944   1.278  52.014  1.00  0.00     0.151 C 
HETATM   24  C1  UNL     1      24.760   0.328  52.794  1.00  0.00     0.149 C 
HETATM   25  O1  UNL     1      25.949   0.120  52.630  1.00  0.00    -0.296 OA
HETATM   26  C2  UNL     1      24.081  -0.445  53.874  1.00  0.00     0.080 C 
HETATM   27  C3  UNL     1      22.697  -0.882  53.456  1.00  0.00     0.007 C 
HETATM   28  C4  UNL     1      21.859   0.236  52.940  1.00  0.00     0.003 C 
HETATM   29  C5  UNL     1      22.624   1.511  52.707  1.00  0.00     0.033 C 
ENDBRANCH  21  23
ENDBRANCH   1  21
TORSDOF 4
ENDMDL
MODEL 9
REMARK VINA RESULT:      -7.1      6.068      9.042
REMARK  4 active torsions:
REMARK  status: ('A' for Active; 'I' for Inactive)
REMARK    1  A    between atoms: C6_7  and  N1_8 
REMARK    2  A    between atoms: N1_8  and  C7_9 
REMARK    3  A    between atoms: C14_18  and  C15_19 
REMARK    4  A    between atoms: C19_24  and  C20_25 
ROOT
HETATM    1  C7  UNL     1      32.388   7.658  46.296  1.00  0.00     0.008 A 
HETATM    2  C8  UNL     1      31.684   7.460  45.185  1.00  0.00     0.024 A 
HETATM    3  C9  UNL     1      30.332   8.005  45.028  1.00  0.00     0.001 A 
HETATM    4  C10 UNL     1      29.886   8.690  46.059  1.00  0.00     0.021 A 
HETATM    5  C11 UNL     1      30.541   8.987  47.337  1.00  0.00     0.227 A 
HETATM    6  C12 UNL     1      31.918   8.425  47.480  1.00  0.00     0.109 A 
HETATM    7  N2  UNL     1      30.576  10.407  47.633  1.00  0.00     0.122 N 
HETATM    8  C13 UNL     1      30.626  10.417  49.099  1.00  0.00     0.420 C 
HETATM    9  N3  UNL     1      29.753   9.305  49.491  1.00  0.00    -0.260 NA
HETATM   10  C14 UNL     1      29.703   8.478  48.476  1.00  0.00     0.086 C 
HETATM   11  H16 UNL     1      29.726  10.906  47.315  1.00  0.00     0.320 HD
ENDROOT
BRANCH  10  12
HETATM   12  C15 UNL     1      28.926   7.262  48.514  1.00  0.00     0.019 A 
HETATM   13  C16 UNL     1      29.360   5.944  48.438  1.00  0.00     0.130 A 
HETATM   14  N4  UNL     1      28.506   4.925  48.488  1.00  0.00    -0.272 NA
HETATM   15  C17 UNL     1      27.167   5.117  48.617  1.00  0.00     0.117 A 
HETATM   16  C18 UNL     1      26.676   6.408  48.697  1.00  0.00     0.031 A 
HETATM   17  C19 UNL     1      27.561   7.467  48.644  1.00  0.00    -0.020 A 
BRANCH  17  18
HETATM   18  C20 UNL     1      26.946   8.787  48.737  1.00  0.00     0.024 C 
HETATM   19  C21 UNL     1      26.084   9.334  47.894  1.00  0.00     0.085 C 
HETATM   20 CL1  UNL     1      25.409  10.922  48.098  1.00  0.00    -0.097 Cl
ENDBRANCH  17  18
ENDBRANCH  10  12
BRANCH   1  21
HETATM   21  N1  UNL     1      33.691   7.120  46.420  1.00  0.00    -0.382 N 
HETATM   22  H10 UNL     1      34.194   8.038  46.250  1.00  0.00     0.160 HD
BRANCH  21  23
HETATM   23  C6  UNL     1      34.392   5.884  46.671  1.00  0.00     0.151 C 
HETATM   24  C1  UNL     1      33.737   5.189  47.797  1.00  0.00     0.149 C 
HETATM   25  O1  UNL     1      33.419   5.704  48.853  1.00  0.00    -0.296 OA
HETATM   26  C2  UNL     1      33.438   3.737  47.634  1.00  0.00     0.080 C 
HETATM   27  C3  UNL     1      34.555   3.018  46.914  1.00  0.00     0.007 C 
HETATM   28  C4  UNL     1      34.942   3.669  45.632  1.00  0.00     0.003 C 
HETATM   29  C5  UNL     1      34.326   5.028  45.431  1.00  0.00     0.033 C 
ENDBRANCH  21  23
ENDBRANCH   1  21
TORSDOF 4
ENDMDL
