MODEL 1
REMARK VINA RESULT:      -8.8      0.000      0.000
REMARK  3 active torsions:
REMARK  status: ('A' for Active; 'I' for Inactive)
REMARK    1  A    between atoms: C3_3  and  C4_5 
REMARK    2  A    between atoms: N2_10  and  C7_11 
REMARK    3  A    between atoms: C15_22  and  N5_23 
ROOT
HETATM    1  C4  UNL     1      22.152   2.538  50.771  1.00  0.00     0.013 C 
HETATM    2  C5  UNL     1      23.258   2.355  51.533  1.00  0.00     0.075 C 
HETATM    3 CL2  UNL     1      24.269   3.812  51.695  1.00  0.00    -0.081 Cl
HETATM    4  C6  UNL     1      23.851   1.283  52.303  1.00  0.00     0.112 A 
HETATM    5  N1  UNL     1      25.141   1.077  52.532  1.00  0.00    -0.169 NA
HETATM    6  N2  UNL     1      25.407   0.047  53.290  1.00  0.00    -0.265 N 
HETATM    7  C11 UNL     1      24.273  -0.570  53.662  1.00  0.00     0.128 A 
HETATM    8  C12 UNL     1      23.382   0.201  53.049  1.00  0.00     0.025 A 
HETATM    9  C13 UNL     1      21.950  -0.037  53.063  1.00  0.00    -0.002 A 
HETATM   10  C14 UNL     1      21.082  -0.455  54.029  1.00  0.00     0.131 A 
HETATM   11  N4  UNL     1      19.784  -0.531  53.747  1.00  0.00    -0.240 NA
HETATM   12  C15 UNL     1      19.308  -0.211  52.550  1.00  0.00     0.154 A 
HETATM   13  C16 UNL     1      19.961   0.233  51.411  1.00  0.00     0.116 A 
HETATM   14  C17 UNL     1      21.272   0.236  51.919  1.00  0.00     0.054 A 
HETATM   15  O1  UNL     1      20.603   0.672  50.286  1.00  0.00    -0.338 OA
HETATM   16  C18 UNL     1      20.858   2.080  50.097  1.00  0.00     0.161 C 
HETATM   17  C19 UNL     1      20.981   2.261  48.634  1.00  0.00     0.045 C 
ENDROOT
BRANCH   6  18
HETATM   18  C7  UNL     1      26.766  -0.286  53.648  1.00  0.00     0.174 C 
HETATM   19  C8  UNL     1      27.511  -1.105  52.628  1.00  0.00     0.068 C 
HETATM   20  C9  UNL     1      28.716  -1.682  53.347  1.00  0.00     0.273 C 
HETATM   21  N3  UNL     1      29.484  -0.751  54.099  1.00  0.00     0.092 N 
HETATM   22  C10 UNL     1      29.485   0.603  53.642  1.00  0.00     0.345 C 
HETATM   23  H10 UNL     1      30.476  -1.128  54.167  1.00  0.00     0.316 HD
HETATM   24  S1  UNL     1      27.776   1.244  53.821  1.00  0.00    -0.112 SA
ENDBRANCH   6  18
BRANCH   1  25
HETATM   25  C3  UNL     1      22.119   3.914  50.291  1.00  0.00     0.024 A 
HETATM   26  C2  UNL     1      22.494   4.960  49.581  1.00  0.00     0.111 A 
HETATM   27  C1  UNL     1      23.438   5.090  48.425  1.00  0.00     0.032 C 
HETATM   28 CL1  UNL     1      21.144   5.157  51.119  1.00  0.00    -0.176 Cl
ENDBRANCH   1  25
BRANCH  12  29
HETATM   29  N5  UNL     1      18.046  -0.159  51.863  1.00  0.00    -0.382 N 
HETATM   30  H15 UNL     1      17.522   0.618  51.406  1.00  0.00     0.157 HD
HETATM   31  H16 UNL     1      17.352  -0.921  51.663  1.00  0.00     0.157 HD
ENDBRANCH  12  29
TORSDOF 3
ENDMDL
MODEL 2
REMARK VINA RESULT:      -8.8      3.075      6.181
REMARK  3 active torsions:
REMARK  status: ('A' for Active; 'I' for Inactive)
REMARK    1  A    between atoms: C3_3  and  C4_5 
REMARK    2  A    between atoms: N2_10  and  C7_11 
REMARK    3  A    between atoms: C15_22  and  N5_23 
ROOT
HETATM    1  C4  UNL     1      25.266   0.147  53.105  1.00  0.00     0.013 C 
HETATM    2  C5  UNL     1      25.316   1.155  52.200  1.00  0.00     0.075 C 
HETATM    3 CL2  UNL     1      26.797   1.163  51.212  1.00  0.00    -0.081 Cl
HETATM    4  C6  UNL     1      24.462   2.243  51.776  1.00  0.00     0.112 A 
HETATM    5  N1  UNL     1      24.840   3.421  51.297  1.00  0.00    -0.169 NA
HETATM    6  N2  UNL     1      23.861   4.216  50.957  1.00  0.00    -0.265 N 
HETATM    7  C11 UNL     1      22.675   3.626  51.184  1.00  0.00     0.128 A 
HETATM    8  C12 UNL     1      23.087   2.462  51.669  1.00  0.00     0.025 A 
HETATM    9  C13 UNL     1      22.201   1.416  52.146  1.00  0.00    -0.002 A 
HETATM   10  C14 UNL     1      21.008   0.927  51.698  1.00  0.00     0.131 A 
HETATM   11  N4  UNL     1      20.446  -0.097  52.335  1.00  0.00    -0.240 NA
HETATM   12  C15 UNL     1      21.015  -0.660  53.394  1.00  0.00     0.154 A 
HETATM   13  C16 UNL     1      22.203  -0.362  54.043  1.00  0.00     0.116 A 
HETATM   14  C17 UNL     1      22.610   0.713  53.233  1.00  0.00     0.054 A 
HETATM   15  O1  UNL     1      23.376  -0.070  54.684  1.00  0.00    -0.338 OA
HETATM   16  C18 UNL     1      24.615  -0.655  54.233  1.00  0.00     0.161 C 
HETATM   17  C19 UNL     1      25.505  -0.642  55.415  1.00  0.00     0.045 C 
ENDROOT
BRANCH   6  18
HETATM   18  C7  UNL     1      24.118   5.522  50.396  1.00  0.00     0.174 C 
HETATM   19  C8  UNL     1      24.172   6.646  51.396  1.00  0.00     0.068 C 
HETATM   20  C9  UNL     1      24.033   7.928  50.599  1.00  0.00     0.273 C 
HETATM   21  N3  UNL     1      24.889   8.042  49.468  1.00  0.00     0.092 N 
HETATM   22  C10 UNL     1      26.139   7.353  49.533  1.00  0.00     0.345 C 
HETATM   23  H10 UNL     1      25.037   9.077  49.275  1.00  0.00     0.316 HD
HETATM   24  S1  UNL     1      25.774   5.557  49.592  1.00  0.00    -0.112 SA
ENDBRANCH   6  18
BRANCH   1  25
HETATM   25  C3  UNL     1      26.479  -0.654  53.001  1.00  0.00     0.024 A 
HETATM   26  C2  UNL     1      27.766  -0.927  53.109  1.00  0.00     0.111 A 
HETATM   27  C1  UNL     1      28.882  -0.201  53.793  1.00  0.00     0.032 C 
HETATM   28 CL1  UNL     1      26.501  -2.181  52.081  1.00  0.00    -0.176 Cl
ENDBRANCH   1  25
BRANCH  12  29
HETATM   29  N5  UNL     1      20.757  -1.723  54.328  1.00  0.00    -0.382 N 
HETATM   30  H15 UNL     1      20.129  -2.555  54.294  1.00  0.00     0.157 HD
HETATM   31  H16 UNL     1      21.159  -1.900  55.281  1.00  0.00     0.157 HD
ENDBRANCH  12  29
TORSDOF 3
ENDMDL
MODEL 3
REMARK VINA RESULT:      -8.4      3.849      6.320
REMARK  3 active torsions:
REMARK  status: ('A' for Active; 'I' for Inactive)
REMARK    1  A    between atoms: C3_3  and  C4_5 
REMARK    2  A    between atoms: N2_10  and  C7_11 
REMARK    3  A    between atoms: C15_22  and  N5_23 
ROOT
HETATM    1  C4  UNL     1      23.333   5.215  48.378  1.00  0.00     0.013 C 
HETATM    2  C5  UNL     1      23.637   4.016  48.933  1.00  0.00     0.075 C 
HETATM    3 CL2  UNL     1      22.503   2.714  48.501  1.00  0.00    -0.081 Cl
HETATM    4  C6  UNL     1      24.677   3.472  49.780  1.00  0.00     0.112 A 
HETATM    5  N1  UNL     1      24.565   2.480  50.653  1.00  0.00    -0.169 NA
HETATM    6  N2  UNL     1      25.672   2.162  51.268  1.00  0.00    -0.265 N 
HETATM    7  C11 UNL     1      26.683   2.943  50.853  1.00  0.00     0.128 A 
HETATM    8  C12 UNL     1      26.040   3.701  49.973  1.00  0.00     0.025 A 
HETATM    9  C13 UNL     1      26.652   4.791  49.234  1.00  0.00    -0.002 A 
HETATM   10  C14 UNL     1      27.869   4.948  48.638  1.00  0.00     0.131 A 
HETATM   11  N4  UNL     1      28.128   6.071  47.975  1.00  0.00    -0.240 NA
HETATM   12  C15 UNL     1      27.232   7.046  47.874  1.00  0.00     0.154 A 
HETATM   13  C16 UNL     1      25.944   7.140  48.376  1.00  0.00     0.116 A 
HETATM   14  C17 UNL     1      25.887   5.891  49.020  1.00  0.00     0.054 A 
HETATM   15  O1  UNL     1      24.671   7.235  48.870  1.00  0.00    -0.338 OA
HETATM   16  C18 UNL     1      23.559   6.706  48.120  1.00  0.00     0.161 C 
HETATM   17  C19 UNL     1      22.377   7.464  48.585  1.00  0.00     0.045 C 
ENDROOT
BRANCH   6  18
HETATM   18  C7  UNL     1      25.710   1.083  52.228  1.00  0.00     0.174 C 
HETATM   19  C8  UNL     1      26.732   0.014  51.945  1.00  0.00     0.068 C 
HETATM   20  C9  UNL     1      26.338  -1.182  52.791  1.00  0.00     0.273 C 
HETATM   21  N3  UNL     1      26.072  -0.902  54.160  1.00  0.00     0.092 N 
HETATM   22  C10 UNL     1      26.764   0.206  54.739  1.00  0.00     0.345 C 
HETATM   23  H10 UNL     1      26.252  -1.791  54.714  1.00  0.00     0.316 HD
HETATM   24  S1  UNL     1      26.178   1.723  53.890  1.00  0.00    -0.112 SA
ENDBRANCH   6  18
BRANCH   1  25
HETATM   25  C3  UNL     1      22.127   5.081  47.571  1.00  0.00     0.024 A 
HETATM   26  C2  UNL     1      20.843   4.899  47.330  1.00  0.00     0.111 A 
HETATM   27  C1  UNL     1      19.654   4.875  48.241  1.00  0.00     0.032 C 
HETATM   28 CL1  UNL     1      22.219   4.877  45.802  1.00  0.00    -0.176 Cl
ENDBRANCH   1  25
BRANCH  12  29
HETATM   29  N5  UNL     1      27.113   8.353  47.286  1.00  0.00    -0.382 N 
HETATM   30  H15 UNL     1      26.614   9.218  47.586  1.00  0.00     0.157 HD
HETATM   31  H16 UNL     1      27.516   8.735  46.396  1.00  0.00     0.157 HD
ENDBRANCH  12  29
TORSDOF 3
ENDMDL
MODEL 4
REMARK VINA RESULT:      -8.2      3.750      7.247
REMARK  3 active torsions:
REMARK  status: ('A' for Active; 'I' for Inactive)
REMARK    1  A    between atoms: C3_3  and  C4_5 
REMARK    2  A    between atoms: N2_10  and  C7_11 
REMARK    3  A    between atoms: C15_22  and  N5_23 
ROOT
HETATM    1  C4  UNL     1      24.605   1.147  52.384  1.00  0.00     0.013 C 
HETATM    2  C5  UNL     1      23.407   0.620  52.738  1.00  0.00     0.075 C 
HETATM    3 CL2  UNL     1      23.524  -0.697  53.930  1.00  0.00    -0.081 Cl
HETATM    4  C6  UNL     1      22.013   0.857  52.433  1.00  0.00     0.112 A 
HETATM    5  N1  UNL     1      21.032  -0.036  52.416  1.00  0.00    -0.169 NA
HETATM    6  N2  UNL     1      19.851   0.450  52.139  1.00  0.00    -0.265 N 
HETATM    7  C11 UNL     1      19.924   1.776  51.931  1.00  0.00     0.128 A 
HETATM    8  C12 UNL     1      21.225   1.965  52.116  1.00  0.00     0.025 A 
HETATM    9  C13 UNL     1      21.894   3.243  51.959  1.00  0.00    -0.002 A 
HETATM   10  C14 UNL     1      21.553   4.523  52.291  1.00  0.00     0.131 A 
HETATM   11  N4  UNL     1      22.419   5.506  52.060  1.00  0.00    -0.240 NA
HETATM   12  C15 UNL     1      23.609   5.278  51.517  1.00  0.00     0.154 A 
HETATM   13  C16 UNL     1      24.193   4.095  51.094  1.00  0.00     0.116 A 
HETATM   14  C17 UNL     1      23.138   3.222  51.418  1.00  0.00     0.054 A 
HETATM   15  O1  UNL     1      24.772   2.927  50.676  1.00  0.00    -0.338 OA
HETATM   16  C18 UNL     1      25.508   2.107  51.607  1.00  0.00     0.161 C 
HETATM   17  C19 UNL     1      26.451   1.325  50.778  1.00  0.00     0.045 C 
ENDROOT
BRANCH   6  18
HETATM   18  C7  UNL     1      18.682  -0.398  52.111  1.00  0.00     0.174 C 
HETATM   19  C8  UNL     1      18.347  -1.065  53.418  1.00  0.00     0.068 C 
HETATM   20  C9  UNL     1      17.386  -2.189  53.085  1.00  0.00     0.273 C 
HETATM   21  N3  UNL     1      16.288  -1.831  52.255  1.00  0.00     0.092 N 
HETATM   22  C10 UNL     1      15.832  -0.480  52.336  1.00  0.00     0.345 C 
HETATM   23  H10 UNL     1      15.495  -2.511  52.453  1.00  0.00     0.316 HD
HETATM   24  S1  UNL     1      17.182   0.595  51.716  1.00  0.00    -0.112 SA
ENDBRANCH   6  18
BRANCH   1  25
HETATM   25  C3  UNL     1      25.668   0.454  53.102  1.00  0.00     0.024 A 
HETATM   26  C2  UNL     1      26.483  -0.539  53.400  1.00  0.00     0.111 A 
HETATM   27  C1  UNL     1      26.791  -1.820  52.688  1.00  0.00     0.032 C 
HETATM   28 CL1  UNL     1      26.320   1.100  54.631  1.00  0.00    -0.176 Cl
ENDBRANCH   1  25
BRANCH  12  29
HETATM   29  N5  UNL     1      24.777   6.014  51.115  1.00  0.00    -0.382 N 
HETATM   30  H15 UNL     1      25.552   5.800  50.451  1.00  0.00     0.157 HD
HETATM   31  H16 UNL     1      25.116   6.961  51.412  1.00  0.00     0.157 HD
ENDBRANCH  12  29
TORSDOF 3
ENDMDL
MODEL 5
REMARK VINA RESULT:      -7.8      2.933      6.598
REMARK  3 active torsions:
REMARK  status: ('A' for Active; 'I' for Inactive)
REMARK    1  A    between atoms: C3_3  and  C4_5 
REMARK    2  A    between atoms: N2_10  and  C7_11 
REMARK    3  A    between atoms: C15_22  and  N5_23 
ROOT
HETATM    1  C4  UNL     1      22.737   3.071  51.063  1.00  0.00     0.013 C 
HETATM    2  C5  UNL     1      21.700   2.200  51.006  1.00  0.00     0.075 C 
HETATM    3 CL2  UNL     1      20.828   2.219  49.454  1.00  0.00    -0.081 Cl
HETATM    4  C6  UNL     1      21.103   1.204  51.869  1.00  0.00     0.112 A 
HETATM    5  N1  UNL     1      19.829   0.836  51.909  1.00  0.00    -0.169 NA
HETATM    6  N2  UNL     1      19.559  -0.115  52.764  1.00  0.00    -0.265 N 
HETATM    7  C11 UNL     1      20.672  -0.497  53.412  1.00  0.00     0.128 A 
HETATM    8  C12 UNL     1      21.556   0.316  52.846  1.00  0.00     0.025 A 
HETATM    9  C13 UNL     1      22.959   0.378  53.213  1.00  0.00    -0.002 A 
HETATM   10  C14 UNL     1      23.882  -0.573  53.539  1.00  0.00     0.131 A 
HETATM   11  N4  UNL     1      25.136  -0.203  53.785  1.00  0.00    -0.240 NA
HETATM   12  C15 UNL     1      25.517   1.067  53.722  1.00  0.00     0.154 A 
HETATM   13  C16 UNL     1      24.792   2.210  53.421  1.00  0.00     0.116 A 
HETATM   14  C17 UNL     1      23.541   1.604  53.206  1.00  0.00     0.054 A 
HETATM   15  O1  UNL     1      24.079   3.339  53.123  1.00  0.00    -0.338 OA
HETATM   16  C18 UNL     1      23.919   3.756  51.751  1.00  0.00     0.161 C 
HETATM   17  C19 UNL     1      23.668   5.212  51.813  1.00  0.00     0.045 C 
ENDROOT
BRANCH   6  18
HETATM   18  C7  UNL     1      18.219  -0.638  52.900  1.00  0.00     0.174 C 
HETATM   19  C8  UNL     1      17.459  -0.789  51.609  1.00  0.00     0.068 C 
HETATM   20  C9  UNL     1      16.000  -0.941  51.993  1.00  0.00     0.273 C 
HETATM   21  N3  UNL     1      15.730  -1.902  53.006  1.00  0.00     0.092 N 
HETATM   22  C10 UNL     1      16.629  -3.008  53.103  1.00  0.00     0.345 C 
HETATM   23  H10 UNL     1      14.730  -2.239  52.876  1.00  0.00     0.316 HD
HETATM   24  S1  UNL     1      18.266  -2.342  53.596  1.00  0.00    -0.112 SA
ENDBRANCH   6  18
BRANCH   1  25
HETATM   25  C3  UNL     1      22.831   3.791  49.800  1.00  0.00     0.024 A 
HETATM   26  C2  UNL     1      22.464   4.635  48.854  1.00  0.00     0.111 A 
HETATM   27  C1  UNL     1      21.399   5.686  48.819  1.00  0.00     0.032 C 
HETATM   28 CL1  UNL     1      24.008   3.310  48.549  1.00  0.00    -0.176 Cl
ENDBRANCH   1  25
BRANCH  12  29
HETATM   29  N5  UNL     1      26.705   1.854  53.910  1.00  0.00    -0.382 N 
HETATM   30  H15 UNL     1      27.504   2.086  53.281  1.00  0.00     0.157 HD
HETATM   31  H16 UNL     1      27.039   2.386  54.750  1.00  0.00     0.157 HD
ENDBRANCH  12  29
TORSDOF 3
ENDMDL
MODEL 6
REMARK VINA RESULT:      -7.7      5.731      7.997
REMARK  3 active torsions:
REMARK  status: ('A' for Active; 'I' for Inactive)
REMARK    1  A    between atoms: C3_3  and  C4_5 
REMARK    2  A    between atoms: N2_10  and  C7_11 
REMARK    3  A    between atoms: C15_22  and  N5_23 
ROOT
HETATM    1  C4  UNL     1      24.858   4.668  50.125  1.00  0.00     0.013 C 
HETATM    2  C5  UNL     1      26.052   4.484  49.510  1.00  0.00     0.075 C 
HETATM    3 CL2  UNL     1      26.516   2.774  49.336  1.00  0.00    -0.081 Cl
HETATM    4  C6  UNL     1      27.074   5.313  48.909  1.00  0.00     0.112 A 
HETATM    5  N1  UNL     1      28.375   5.064  48.845  1.00  0.00    -0.169 NA
HETATM    6  N2  UNL     1      29.077   5.967  48.214  1.00  0.00    -0.265 N 
HETATM    7  C11 UNL     1      28.284   6.958  47.773  1.00  0.00     0.128 A 
HETATM    8  C12 UNL     1      27.109   6.522  48.212  1.00  0.00     0.025 A 
HETATM    9  C13 UNL     1      25.861   7.247  48.059  1.00  0.00    -0.002 A 
HETATM   10  C14 UNL     1      25.327   7.983  47.041  1.00  0.00     0.131 A 
HETATM   11  N4  UNL     1      24.108   8.497  47.182  1.00  0.00    -0.240 NA
HETATM   12  C15 UNL     1      23.394   8.313  48.286  1.00  0.00     0.154 A 
HETATM   13  C16 UNL     1      23.694   7.620  49.447  1.00  0.00     0.116 A 
HETATM   14  C17 UNL     1      24.982   7.180  49.091  1.00  0.00     0.054 A 
HETATM   15  O1  UNL     1      23.990   6.935  50.595  1.00  0.00    -0.338 OA
HETATM   16  C18 UNL     1      23.719   5.521  50.687  1.00  0.00     0.161 C 
HETATM   17  C19 UNL     1      23.574   5.245  52.133  1.00  0.00     0.045 C 
ENDROOT
BRANCH   6  18
HETATM   18  C7  UNL     1      30.504   5.818  48.041  1.00  0.00     0.174 C 
HETATM   19  C8  UNL     1      30.936   4.531  47.390  1.00  0.00     0.068 C 
HETATM   20  C9  UNL     1      32.419   4.391  47.675  1.00  0.00     0.273 C 
HETATM   21  N3  UNL     1      33.208   5.541  47.396  1.00  0.00     0.092 N 
HETATM   22  C10 UNL     1      32.742   6.407  46.360  1.00  0.00     0.345 C 
HETATM   23  H10 UNL     1      34.200   5.214  47.199  1.00  0.00     0.316 HD
HETATM   24  S1  UNL     1      31.152   7.128  46.921  1.00  0.00    -0.112 SA
ENDBRANCH   6  18
BRANCH   1  25
HETATM   25  C3  UNL     1      24.292   3.372  50.476  1.00  0.00     0.024 A 
HETATM   26  C2  UNL     1      24.185   2.232  51.131  1.00  0.00     0.111 A 
HETATM   27  C1  UNL     1      24.859   1.732  52.371  1.00  0.00     0.032 C 
HETATM   28 CL1  UNL     1      23.076   2.584  49.436  1.00  0.00    -0.176 Cl
ENDBRANCH   1  25
BRANCH  12  29
HETATM   29  N5  UNL     1      22.109   8.677  48.820  1.00  0.00    -0.382 N 
HETATM   30  H15 UNL     1      21.640   9.597  48.963  1.00  0.00     0.157 HD
HETATM   31  H16 UNL     1      21.337   8.075  49.197  1.00  0.00     0.157 HD
ENDBRANCH  12  29
TORSDOF 3
ENDMDL
MODEL 7
REMARK VINA RESULT:      -7.6      8.880     12.207
REMARK  3 active torsions:
REMARK  status: ('A' for Active; 'I' for Inactive)
REMARK    1  A    between atoms: C3_3  and  C4_5 
REMARK    2  A    between atoms: N2_10  and  C7_11 
REMARK    3  A    between atoms: C15_22  and  N5_23 
ROOT
HETATM    1  C4  UNL     1      32.550   6.874  46.983  1.00  0.00     0.013 C 
HETATM    2  C5  UNL     1      31.521   6.287  47.643  1.00  0.00     0.075 C 
HETATM    3 CL2  UNL     1      31.919   4.691  48.324  1.00  0.00    -0.081 Cl
HETATM    4  C6  UNL     1      30.156   6.618  47.987  1.00  0.00     0.112 A 
HETATM    5  N1  UNL     1      29.141   5.779  48.143  1.00  0.00    -0.169 NA
HETATM    6  N2  UNL     1      28.012   6.340  48.488  1.00  0.00    -0.265 N 
HETATM    7  C11 UNL     1      28.162   7.670  48.602  1.00  0.00     0.128 A 
HETATM    8  C12 UNL     1      29.449   7.782  48.294  1.00  0.00     0.025 A 
HETATM    9  C13 UNL     1      30.159   9.045  48.206  1.00  0.00    -0.002 A 
HETATM   10  C14 UNL     1      30.129  10.188  48.950  1.00  0.00     0.131 A 
HETATM   11  N4  UNL     1      30.956  11.184  48.645  1.00  0.00    -0.240 NA
HETATM   12  C15 UNL     1      31.813  11.097  47.635  1.00  0.00     0.154 A 
HETATM   13  C16 UNL     1      32.044  10.068  46.736  1.00  0.00     0.116 A 
HETATM   14  C17 UNL     1      31.093   9.156  47.226  1.00  0.00     0.054 A 
HETATM   15  O1  UNL     1      32.273   9.053  45.848  1.00  0.00    -0.338 OA
HETATM   16  C18 UNL     1      33.201   7.998  46.175  1.00  0.00     0.161 C 
HETATM   17  C19 UNL     1      33.656   7.460  44.874  1.00  0.00     0.045 C 
ENDROOT
BRANCH   6  18
HETATM   18  C7  UNL     1      26.825   5.550  48.720  1.00  0.00     0.174 C 
HETATM   19  C8  UNL     1      27.044   4.289  49.514  1.00  0.00     0.068 C 
HETATM   20  C9  UNL     1      25.814   3.431  49.291  1.00  0.00     0.273 C 
HETATM   21  N3  UNL     1      24.566   4.089  49.473  1.00  0.00     0.092 N 
HETATM   22  C10 UNL     1      24.539   5.176  50.399  1.00  0.00     0.345 C 
HETATM   23  H10 UNL     1      23.845   3.352  49.734  1.00  0.00     0.316 HD
HETATM   24  S1  UNL     1      25.607   6.503  49.717  1.00  0.00    -0.112 SA
ENDBRANCH   6  18
BRANCH   1  25
HETATM   25  C3  UNL     1      33.712   5.995  47.024  1.00  0.00     0.024 A 
HETATM   26  C2  UNL     1      34.440   4.931  46.740  1.00  0.00     0.111 A 
HETATM   27  C1  UNL     1      34.257   3.844  45.727  1.00  0.00     0.032 C 
HETATM   28 CL1  UNL     1      35.013   6.240  48.219  1.00  0.00    -0.176 Cl
ENDBRANCH   1  25
BRANCH  12  29
HETATM   29  N5  UNL     1      32.822  11.899  46.996  1.00  0.00    -0.382 N 
HETATM   30  H15 UNL     1      33.075  12.907  47.072  1.00  0.00     0.157 HD
HETATM   31  H16 UNL     1      33.550  11.633  46.288  1.00  0.00     0.157 HD
ENDBRANCH  12  29
TORSDOF 3
ENDMDL
MODEL 8
REMARK VINA RESULT:      -7.6      1.774      2.450
REMARK  3 active torsions:
REMARK  status: ('A' for Active; 'I' for Inactive)
REMARK    1  A    between atoms: C3_3  and  C4_5 
REMARK    2  A    between atoms: N2_10  and  C7_11 
REMARK    3  A    between atoms: C15_22  and  N5_23 
ROOT
HETATM    1  C4  UNL     1      22.608   4.472  49.445  1.00  0.00     0.013 C 
HETATM    2  C5  UNL     1      23.380   4.272  50.541  1.00  0.00     0.075 C 
HETATM    3 CL2  UNL     1      24.217   5.736  51.111  1.00  0.00    -0.081 Cl
HETATM    4  C6  UNL     1      23.700   3.172  51.426  1.00  0.00     0.112 A 
HETATM    5  N1  UNL     1      24.832   2.978  52.089  1.00  0.00    -0.169 NA
HETATM    6  N2  UNL     1      24.849   1.916  52.849  1.00  0.00    -0.265 N 
HETATM    7  C11 UNL     1      23.678   1.261  52.769  1.00  0.00     0.128 A 
HETATM    8  C12 UNL     1      23.035   2.045  51.913  1.00  0.00     0.025 A 
HETATM    9  C13 UNL     1      21.700   1.781  51.408  1.00  0.00    -0.002 A 
HETATM   10  C14 UNL     1      20.561   1.299  51.986  1.00  0.00     0.131 A 
HETATM   11  N4  UNL     1      19.450   1.214  51.259  1.00  0.00    -0.240 NA
HETATM   12  C15 UNL     1      19.417   1.586  49.985  1.00  0.00     0.154 A 
HETATM   13  C16 UNL     1      20.414   2.099  49.171  1.00  0.00     0.116 A 
HETATM   14  C17 UNL     1      21.461   2.099  50.111  1.00  0.00     0.054 A 
HETATM   15  O1  UNL     1      21.397   2.606  48.366  1.00  0.00    -0.338 OA
HETATM   16  C18 UNL     1      21.652   4.026  48.337  1.00  0.00     0.161 C 
HETATM   17  C19 UNL     1      22.278   4.284  47.022  1.00  0.00     0.045 C 
ENDROOT
BRANCH   6  18
HETATM   18  C7  UNL     1      26.004   1.590  53.652  1.00  0.00     0.174 C 
HETATM   19  C8  UNL     1      26.211   0.119  53.903  1.00  0.00     0.068 C 
HETATM   20  C9  UNL     1      27.184   0.021  55.062  1.00  0.00     0.273 C 
HETATM   21  N3  UNL     1      28.356   0.818  54.947  1.00  0.00     0.092 N 
HETATM   22  C10 UNL     1      28.822   1.094  53.625  1.00  0.00     0.345 C 
HETATM   23  H10 UNL     1      29.119   0.359  55.528  1.00  0.00     0.316 HD
HETATM   24  S1  UNL     1      27.546   2.121  52.798  1.00  0.00    -0.112 SA
ENDBRANCH   6  18
BRANCH   1  25
HETATM   25  C3  UNL     1      22.699   5.870  49.041  1.00  0.00     0.024 A 
HETATM   26  C2  UNL     1      23.263   6.957  48.550  1.00  0.00     0.111 A 
HETATM   27  C1  UNL     1      24.544   7.160  47.802  1.00  0.00     0.032 C 
HETATM   28 CL1  UNL     1      21.458   7.054  49.529  1.00  0.00    -0.176 Cl
ENDBRANCH   1  25
BRANCH  12  29
HETATM   29  N5  UNL     1      18.478   1.650  48.898  1.00  0.00    -0.382 N 
HETATM   30  H15 UNL     1      17.506   2.019  48.826  1.00  0.00     0.157 HD
HETATM   31  H16 UNL     1      18.571   1.327  47.904  1.00  0.00     0.157 HD
ENDBRANCH  12  29
TORSDOF 3
ENDMDL
MODEL 9
REMARK VINA RESULT:      -7.5      2.630      4.516
REMARK  3 active torsions:
REMARK  status: ('A' for Active; 'I' for Inactive)
REMARK    1  A    between atoms: C3_3  and  C4_5 
REMARK    2  A    between atoms: N2_10  and  C7_11 
REMARK    3  A    between atoms: C15_22  and  N5_23 
ROOT
HETATM    1  C4  UNL     1      20.971   2.164  51.168  1.00  0.00     0.013 C 
HETATM    2  C5  UNL     1      22.084   1.436  51.428  1.00  0.00     0.075 C 
HETATM    3 CL2  UNL     1      21.795  -0.319  51.505  1.00  0.00    -0.081 Cl
HETATM    4  C6  UNL     1      23.494   1.690  51.637  1.00  0.00     0.112 A 
HETATM    5  N1  UNL     1      24.333   0.991  52.389  1.00  0.00    -0.169 NA
HETATM    6  N2  UNL     1      25.567   1.419  52.378  1.00  0.00    -0.265 N 
HETATM    7  C11 UNL     1      25.686   2.496  51.583  1.00  0.00     0.128 A 
HETATM    8  C12 UNL     1      24.430   2.615  51.170  1.00  0.00     0.025 A 
HETATM    9  C13 UNL     1      23.953   3.676  50.304  1.00  0.00    -0.002 A 
HETATM   10  C14 UNL     1      24.482   4.298  49.210  1.00  0.00     0.131 A 
HETATM   11  N4  UNL     1      23.766   5.226  48.580  1.00  0.00    -0.240 NA
HETATM   12  C15 UNL     1      22.547   5.563  48.985  1.00  0.00     0.154 A 
HETATM   13  C16 UNL     1      21.789   5.096  50.046  1.00  0.00     0.116 A 
HETATM   14  C17 UNL     1      22.710   4.162  50.555  1.00  0.00     0.054 A 
HETATM   15  O1  UNL     1      21.039   4.635  51.094  1.00  0.00    -0.338 OA
HETATM   16  C18 UNL     1      20.206   3.468  50.933  1.00  0.00     0.161 C 
HETATM   17  C19 UNL     1      19.146   3.601  51.955  1.00  0.00     0.045 C 
ENDROOT
BRANCH   6  18
HETATM   18  C7  UNL     1      26.599   0.742  53.129  1.00  0.00     0.174 C 
HETATM   19  C8  UNL     1      27.237  -0.427  52.426  1.00  0.00     0.068 C 
HETATM   20  C9  UNL     1      27.958  -1.222  53.497  1.00  0.00     0.273 C 
HETATM   21  N3  UNL     1      28.797  -0.465  54.361  1.00  0.00     0.092 N 
HETATM   22  C10 UNL     1      29.375   0.724  53.821  1.00  0.00     0.345 C 
HETATM   23  H10 UNL     1      29.550  -1.116  54.734  1.00  0.00     0.316 HD
HETATM   24  S1  UNL     1      28.003   1.887  53.460  1.00  0.00    -0.112 SA
ENDBRANCH   6  18
BRANCH   1  25
HETATM   25  C3  UNL     1      19.830   1.267  51.029  1.00  0.00     0.024 A 
HETATM   26  C2  UNL     1      18.978   0.324  51.382  1.00  0.00     0.111 A 
HETATM   27  C1  UNL     1      18.737  -0.356  52.694  1.00  0.00     0.032 C 
HETATM   28 CL1  UNL     1      19.022   1.041  49.455  1.00  0.00    -0.176 Cl
ENDBRANCH   1  25
BRANCH  12  29
HETATM   29  N5  UNL     1      21.493   6.469  48.614  1.00  0.00    -0.382 N 
HETATM   30  H15 UNL     1      20.903   6.553  47.759  1.00  0.00     0.157 HD
HETATM   31  H16 UNL     1      21.072   7.271  49.144  1.00  0.00     0.157 HD
ENDBRANCH  12  29
TORSDOF 3
ENDMDL
