MODEL 1
REMARK VINA RESULT:      -8.0      0.000      0.000
REMARK  2 active torsions:
REMARK  status: ('A' for Active; 'I' for Inactive)
REMARK    1  A    between atoms: C3_3  and  O1_4 
REMARK    2  A    between atoms: O1_4  and  C4_5 
ROOT
HETATM    1  C1  UNL     1      23.392  -1.370  55.641  1.00  0.00     0.014 C 
HETATM    2  C2  UNL     1      22.532  -0.920  54.909  1.00  0.00    -0.091 C 
HETATM    3  C3  UNL     1      21.503  -0.355  54.017  1.00  0.00     0.268 C 
ENDROOT
BRANCH   3   4
HETATM    4  O1  UNL     1      21.905  -0.648  52.707  1.00  0.00    -0.343 OA
BRANCH   4   5
HETATM    5  C4  UNL     1      22.094   0.366  51.750  1.00  0.00     0.062 A 
HETATM    6  C5  UNL     1      23.168   1.140  51.576  1.00  0.00     0.012 A 
HETATM    7  C6  UNL     1      22.911   2.045  50.467  1.00  0.00    -0.028 A 
HETATM    8  C17 UNL     1      24.356   1.029  52.408  1.00  0.00    -0.008 A 
HETATM    9  C7  UNL     1      21.700   1.793  50.007  1.00  0.00    -0.011 A 
HETATM   10  C9  UNL     1      23.912   3.030  50.013  1.00  0.00     0.189 C 
HETATM   11  C8  UNL     1      21.028   0.702  50.756  1.00  0.00     0.093 A 
HETATM   12  N1  UNL     1      23.404   4.352  50.330  1.00  0.00    -0.278 NA
HETATM   13  C10 UNL     1      23.446   4.671  51.577  1.00  0.00     0.226 C 
HETATM   14  N2  UNL     1      23.737   4.430  52.936  1.00  0.00    -0.254 NA
HETATM   15  C11 UNL     1      24.283   3.342  53.296  1.00  0.00     0.130 C 
HETATM   16  C12 UNL     1      24.866   2.036  53.192  1.00  0.00    -0.006 A 
HETATM   17  C13 UNL     1      25.992   1.883  53.962  1.00  0.00     0.040 A 
HETATM   18  C14 UNL     1      26.657   0.670  53.964  1.00  0.00     0.073 A 
HETATM   19 CL1  UNL     1      28.095   0.389  54.911  1.00  0.00    -0.081 Cl
HETATM   20  C15 UNL     1      26.109  -0.292  53.171  1.00  0.00     0.139 A 
HETATM   21  F1  UNL     1      26.764  -1.495  53.168  1.00  0.00    -0.204 F 
HETATM   22  C16 UNL     1      24.974  -0.201  52.371  1.00  0.00     0.057 A 
ENDBRANCH   4   5
ENDBRANCH   3   4
TORSDOF 2
ENDMDL
MODEL 2
REMARK VINA RESULT:      -7.8      3.563      5.164
REMARK  2 active torsions:
REMARK  status: ('A' for Active; 'I' for Inactive)
REMARK    1  A    between atoms: C3_3  and  O1_4 
REMARK    2  A    between atoms: O1_4  and  C4_5 
ROOT
HETATM    1  C1  UNL     1      29.901   0.024  53.496  1.00  0.00     0.014 C 
HETATM    2  C2  UNL     1      29.044   0.873  53.645  1.00  0.00    -0.091 C 
HETATM    3  C3  UNL     1      28.021   1.920  53.818  1.00  0.00     0.268 C 
ENDROOT
BRANCH   3   4
HETATM    4  O1  UNL     1      27.439   2.123  52.559  1.00  0.00    -0.343 OA
BRANCH   4   5
HETATM    5  C4  UNL     1      26.113   1.738  52.291  1.00  0.00     0.062 A 
HETATM    6  C5  UNL     1      25.242   2.317  51.459  1.00  0.00     0.012 A 
HETATM    7  C6  UNL     1      23.994   1.573  51.506  1.00  0.00    -0.028 A 
HETATM    8  C17 UNL     1      25.575   3.498  50.677  1.00  0.00    -0.008 A 
HETATM    9  C7  UNL     1      24.145   0.575  52.355  1.00  0.00    -0.011 A 
HETATM   10  C9  UNL     1      22.825   1.955  50.689  1.00  0.00     0.189 C 
HETATM   11  C8  UNL     1      25.499   0.550  52.961  1.00  0.00     0.093 A 
HETATM   12  N1  UNL     1      21.794   2.432  51.592  1.00  0.00    -0.278 NA
HETATM   13  C10 UNL     1      22.003   3.599  52.097  1.00  0.00     0.226 C 
HETATM   14  N2  UNL     1      22.745   4.785  52.278  1.00  0.00    -0.254 NA
HETATM   15  C11 UNL     1      23.833   4.968  51.650  1.00  0.00     0.130 C 
HETATM   16  C12 UNL     1      24.929   4.708  50.763  1.00  0.00    -0.006 A 
HETATM   17  C13 UNL     1      25.280   5.795  50.001  1.00  0.00     0.040 A 
HETATM   18  C14 UNL     1      26.326   5.690  49.103  1.00  0.00     0.073 A 
HETATM   19 CL1  UNL     1      26.836   7.020  48.096  1.00  0.00    -0.081 Cl
HETATM   20  C15 UNL     1      26.931   4.470  49.059  1.00  0.00     0.139 A 
HETATM   21  F1  UNL     1      27.967   4.359  48.171  1.00  0.00    -0.204 F 
HETATM   22  C16 UNL     1      26.625   3.334  49.801  1.00  0.00     0.057 A 
ENDBRANCH   4   5
ENDBRANCH   3   4
TORSDOF 2
ENDMDL
MODEL 3
REMARK VINA RESULT:      -7.7      2.825      4.164
REMARK  2 active torsions:
REMARK  status: ('A' for Active; 'I' for Inactive)
REMARK    1  A    between atoms: C3_3  and  O1_4 
REMARK    2  A    between atoms: O1_4  and  C4_5 
ROOT
HETATM    1  C1  UNL     1      26.844  -1.456  52.330  1.00  0.00     0.014 C 
HETATM    2  C2  UNL     1      26.461  -0.869  53.323  1.00  0.00    -0.091 C 
HETATM    3  C3  UNL     1      26.012  -0.137  54.521  1.00  0.00     0.268 C 
ENDROOT
BRANCH   3   4
HETATM    4  O1  UNL     1      25.049   0.785  54.090  1.00  0.00    -0.343 OA
BRANCH   4   5
HETATM    5  C4  UNL     1      23.833   0.366  53.518  1.00  0.00     0.062 A 
HETATM    6  C5  UNL     1      23.193   0.895  52.473  1.00  0.00     0.012 A 
HETATM    7  C6  UNL     1      21.977   0.131  52.240  1.00  0.00    -0.028 A 
HETATM    8  C17 UNL     1      23.700   2.049  51.746  1.00  0.00    -0.008 A 
HETATM    9  C7  UNL     1      21.920  -0.829  53.143  1.00  0.00    -0.011 A 
HETATM   10  C9  UNL     1      21.045   0.459  51.144  1.00  0.00     0.189 C 
HETATM   11  C8  UNL     1      23.082  -0.806  54.066  1.00  0.00     0.093 A 
HETATM   12  N1  UNL     1      19.818   0.952  51.741  1.00  0.00    -0.278 NA
HETATM   13  C10 UNL     1      19.887   2.142  52.231  1.00  0.00     0.226 C 
HETATM   14  N2  UNL     1      20.551   3.347  52.540  1.00  0.00    -0.254 NA
HETATM   15  C11 UNL     1      21.759   3.525  52.194  1.00  0.00     0.130 C 
HETATM   16  C12 UNL     1      23.043   3.250  51.617  1.00  0.00    -0.006 A 
HETATM   17  C13 UNL     1      23.564   4.312  50.920  1.00  0.00     0.040 A 
HETATM   18  C14 UNL     1      24.801   4.189  50.315  1.00  0.00     0.073 A 
HETATM   19 CL1  UNL     1      25.536   5.488  49.409  1.00  0.00    -0.081 Cl
HETATM   20  C15 UNL     1      25.408   2.980  50.475  1.00  0.00     0.139 A 
HETATM   21  F1  UNL     1      26.633   2.852  49.877  1.00  0.00    -0.204 F 
HETATM   22  C16 UNL     1      24.935   1.869  51.166  1.00  0.00     0.057 A 
ENDBRANCH   4   5
ENDBRANCH   3   4
TORSDOF 2
ENDMDL
MODEL 4
REMARK VINA RESULT:      -7.6      2.846      4.550
REMARK  2 active torsions:
REMARK  status: ('A' for Active; 'I' for Inactive)
REMARK    1  A    between atoms: C3_3  and  O1_4 
REMARK    2  A    between atoms: O1_4  and  C4_5 
ROOT
HETATM    1  C1  UNL     1      27.946   0.231  54.853  1.00  0.00     0.014 C 
HETATM    2  C2  UNL     1      27.551  -0.229  53.800  1.00  0.00    -0.091 C 
HETATM    3  C3  UNL     1      27.058  -0.804  52.535  1.00  0.00     0.268 C 
ENDROOT
BRANCH   3   4
HETATM    4  O1  UNL     1      25.773  -0.285  52.332  1.00  0.00    -0.343 OA
BRANCH   4   5
HETATM    5  C4  UNL     1      25.575   1.025  51.858  1.00  0.00     0.062 A 
HETATM    6  C5  UNL     1      24.423   1.688  51.734  1.00  0.00     0.012 A 
HETATM    7  C6  UNL     1      24.705   3.012  51.202  1.00  0.00    -0.028 A 
HETATM    8  C17 UNL     1      23.140   1.103  52.095  1.00  0.00    -0.008 A 
HETATM    9  C7  UNL     1      26.008   3.109  51.023  1.00  0.00    -0.011 A 
HETATM   10  C9  UNL     1      23.637   4.000  50.955  1.00  0.00     0.189 C 
HETATM   11  C8  UNL     1      26.726   1.870  51.412  1.00  0.00     0.093 A 
HETATM   12  N1  UNL     1      23.529   4.183  49.520  1.00  0.00    -0.278 NA
HETATM   13  C10 UNL     1      22.974   3.211  48.883  1.00  0.00     0.226 C 
HETATM   14  N2  UNL     1      22.352   1.947  48.794  1.00  0.00    -0.254 NA
HETATM   15  C11 UNL     1      22.124   1.265  49.840  1.00  0.00     0.130 C 
HETATM   16  C12 UNL     1      22.089   0.912  51.229  1.00  0.00    -0.006 A 
HETATM   17  C13 UNL     1      20.897   0.354  51.618  1.00  0.00     0.040 A 
HETATM   18  C14 UNL     1      20.724  -0.040  52.932  1.00  0.00     0.073 A 
HETATM   19 CL1  UNL     1      19.242  -0.756  53.510  1.00  0.00    -0.081 Cl
HETATM   20  C15 UNL     1      21.796   0.170  53.745  1.00  0.00     0.139 A 
HETATM   21  F1  UNL     1      21.631  -0.217  55.049  1.00  0.00    -0.204 F 
HETATM   22  C16 UNL     1      23.027   0.729  53.415  1.00  0.00     0.057 A 
ENDBRANCH   4   5
ENDBRANCH   3   4
TORSDOF 2
ENDMDL
MODEL 5
REMARK VINA RESULT:      -7.5      3.340      5.281
REMARK  2 active torsions:
REMARK  status: ('A' for Active; 'I' for Inactive)
REMARK    1  A    between atoms: C3_3  and  O1_4 
REMARK    2  A    between atoms: O1_4  and  C4_5 
ROOT
HETATM    1  C1  UNL     1      22.677   3.295  49.064  1.00  0.00     0.014 C 
HETATM    2  C2  UNL     1      22.954   3.855  50.106  1.00  0.00    -0.091 C 
HETATM    3  C3  UNL     1      23.268   4.530  51.379  1.00  0.00     0.268 C 
ENDROOT
BRANCH   3   4
HETATM    4  O1  UNL     1      23.678   3.530  52.271  1.00  0.00    -0.343 OA
BRANCH   4   5
HETATM    5  C4  UNL     1      24.783   2.705  51.994  1.00  0.00     0.062 A 
HETATM    6  C5  UNL     1      24.890   1.386  52.177  1.00  0.00     0.012 A 
HETATM    7  C6  UNL     1      26.214   0.965  51.749  1.00  0.00    -0.028 A 
HETATM    8  C17 UNL     1      23.807   0.582  52.724  1.00  0.00    -0.008 A 
HETATM    9  C7  UNL     1      26.863   2.032  51.322  1.00  0.00    -0.011 A 
HETATM   10  C9  UNL     1      26.646  -0.445  51.815  1.00  0.00     0.189 C 
HETATM   11  C8  UNL     1      26.046   3.267  51.422  1.00  0.00     0.093 A 
HETATM   12  N1  UNL     1      27.679  -0.542  52.828  1.00  0.00    -0.278 NA
HETATM   13  C10 UNL     1      27.264  -0.463  54.045  1.00  0.00     0.226 C 
HETATM   14  N2  UNL     1      26.270  -0.322  55.036  1.00  0.00    -0.254 NA
HETATM   15  C11 UNL     1      25.046  -0.224  54.714  1.00  0.00     0.130 C 
HETATM   16  C12 UNL     1      23.880  -0.155  53.882  1.00  0.00    -0.006 A 
HETATM   17  C13 UNL     1      22.829  -0.899  54.358  1.00  0.00     0.040 A 
HETATM   18  C14 UNL     1      21.637  -0.922  53.658  1.00  0.00     0.073 A 
HETATM   19 CL1  UNL     1      20.253  -1.841  54.191  1.00  0.00    -0.081 Cl
HETATM   20  C15 UNL     1      21.619  -0.174  52.520  1.00  0.00     0.139 A 
HETATM   21  F1  UNL     1      20.441  -0.193  51.822  1.00  0.00    -0.204 F 
HETATM   22  C16 UNL     1      22.645   0.599  51.985  1.00  0.00     0.057 A 
ENDBRANCH   4   5
ENDBRANCH   3   4
TORSDOF 2
ENDMDL
MODEL 6
REMARK VINA RESULT:      -7.4      3.569      5.440
REMARK  2 active torsions:
REMARK  status: ('A' for Active; 'I' for Inactive)
REMARK    1  A    between atoms: C3_3  and  O1_4 
REMARK    2  A    between atoms: O1_4  and  C4_5 
ROOT
HETATM    1  C1  UNL     1      22.656   2.686  47.952  1.00  0.00     0.014 C 
HETATM    2  C2  UNL     1      22.128   1.899  48.713  1.00  0.00    -0.091 C 
HETATM    3  C3  UNL     1      21.511   0.936  49.644  1.00  0.00     0.268 C 
ENDROOT
BRANCH   3   4
HETATM    4  O1  UNL     1      21.507   1.546  50.906  1.00  0.00    -0.343 OA
BRANCH   4   5
HETATM    5  C4  UNL     1      22.568   1.370  51.812  1.00  0.00     0.062 A 
HETATM    6  C5  UNL     1      23.509   2.253  52.156  1.00  0.00     0.012 A 
HETATM    7  C6  UNL     1      24.396   1.629  53.125  1.00  0.00    -0.028 A 
HETATM    8  C17 UNL     1      23.562   3.597  51.601  1.00  0.00    -0.008 A 
HETATM    9  C7  UNL     1      23.970   0.399  53.336  1.00  0.00    -0.011 A 
HETATM   10  C9  UNL     1      25.543   2.350  53.713  1.00  0.00     0.189 C 
HETATM   11  C8  UNL     1      22.762   0.075  52.536  1.00  0.00     0.093 A 
HETATM   12  N1  UNL     1      26.756   1.733  53.211  1.00  0.00    -0.278 NA
HETATM   13  C10 UNL     1      27.037   1.996  51.981  1.00  0.00     0.226 C 
HETATM   14  N2  UNL     1      26.802   2.608  50.733  1.00  0.00    -0.254 NA
HETATM   15  C11 UNL     1      25.804   3.375  50.567  1.00  0.00     0.130 C 
HETATM   16  C12 UNL     1      24.612   4.110  50.877  1.00  0.00    -0.006 A 
HETATM   17  C13 UNL     1      24.615   5.386  50.372  1.00  0.00     0.040 A 
HETATM   18  C14 UNL     1      23.524   6.208  50.590  1.00  0.00     0.073 A 
HETATM   19 CL1  UNL     1      23.446   7.844  49.986  1.00  0.00    -0.081 Cl
HETATM   20  C15 UNL     1      22.513   5.650  51.311  1.00  0.00     0.139 A 
HETATM   21  F1  UNL     1      21.431   6.460  51.531  1.00  0.00    -0.204 F 
HETATM   22  C16 UNL     1      22.448   4.368  51.848  1.00  0.00     0.057 A 
ENDBRANCH   4   5
ENDBRANCH   3   4
TORSDOF 2
ENDMDL
MODEL 7
REMARK VINA RESULT:      -7.2      3.263      5.260
REMARK  2 active torsions:
REMARK  status: ('A' for Active; 'I' for Inactive)
REMARK    1  A    between atoms: C3_3  and  O1_4 
REMARK    2  A    between atoms: O1_4  and  C4_5 
ROOT
HETATM    1  C1  UNL     1      22.141   2.798  47.337  1.00  0.00     0.014 C 
HETATM    2  C2  UNL     1      22.383   3.782  48.007  1.00  0.00    -0.091 C 
HETATM    3  C3  UNL     1      22.654   4.974  48.832  1.00  0.00     0.268 C 
ENDROOT
BRANCH   3   4
HETATM    4  O1  UNL     1      23.140   4.508  50.061  1.00  0.00    -0.343 OA
BRANCH   4   5
HETATM    5  C4  UNL     1      24.411   3.915  50.173  1.00  0.00     0.062 A 
HETATM    6  C5  UNL     1      24.733   2.774  50.789  1.00  0.00     0.012 A 
HETATM    7  C6  UNL     1      26.164   2.559  50.645  1.00  0.00    -0.028 A 
HETATM    8  C17 UNL     1      23.748   1.947  51.469  1.00  0.00    -0.008 A 
HETATM    9  C7  UNL     1      26.660   3.566  49.952  1.00  0.00    -0.011 A 
HETATM   10  C9  UNL     1      26.838   1.374  51.211  1.00  0.00     0.189 C 
HETATM   11  C8  UNL     1      25.620   4.552  49.565  1.00  0.00     0.093 A 
HETATM   12  N1  UNL     1      27.695   1.828  52.289  1.00  0.00    -0.278 NA
HETATM   13  C10 UNL     1      27.083   2.173  53.369  1.00  0.00     0.226 C 
HETATM   14  N2  UNL     1      25.936   2.375  54.164  1.00  0.00    -0.254 NA
HETATM   15  C11 UNL     1      24.783   2.087  53.718  1.00  0.00     0.130 C 
HETATM   16  C12 UNL     1      23.773   1.632  52.807  1.00  0.00    -0.006 A 
HETATM   17  C13 UNL     1      22.818   0.846  53.404  1.00  0.00     0.040 A 
HETATM   18  C14 UNL     1      21.779   0.340  52.645  1.00  0.00     0.073 A 
HETATM   19 CL1  UNL     1      20.526  -0.668  53.323  1.00  0.00    -0.081 Cl
HETATM   20  C15 UNL     1      21.803   0.684  51.328  1.00  0.00     0.139 A 
HETATM   21  F1  UNL     1      20.777   0.184  50.571  1.00  0.00    -0.204 F 
HETATM   22  C16 UNL     1      22.737   1.473  50.664  1.00  0.00     0.057 A 
ENDBRANCH   4   5
ENDBRANCH   3   4
TORSDOF 2
ENDMDL
MODEL 8
REMARK VINA RESULT:      -7.0      3.860      6.045
REMARK  2 active torsions:
REMARK  status: ('A' for Active; 'I' for Inactive)
REMARK    1  A    between atoms: C3_3  and  O1_4 
REMARK    2  A    between atoms: O1_4  and  C4_5 
ROOT
HETATM    1  C1  UNL     1      21.177   4.815  51.528  1.00  0.00     0.014 C 
HETATM    2  C2  UNL     1      22.337   4.579  51.803  1.00  0.00    -0.091 C 
HETATM    3  C3  UNL     1      23.737   4.277  52.154  1.00  0.00     0.268 C 
ENDROOT
BRANCH   3   4
HETATM    4  O1  UNL     1      24.073   3.096  51.477  1.00  0.00    -0.343 OA
BRANCH   4   5
HETATM    5  C4  UNL     1      24.100   1.853  52.135  1.00  0.00     0.062 A 
HETATM    6  C5  UNL     1      23.138   0.928  52.181  1.00  0.00     0.012 A 
HETATM    7  C6  UNL     1      23.612  -0.194  52.976  1.00  0.00    -0.028 A 
HETATM    8  C17 UNL     1      21.855   1.098  51.515  1.00  0.00    -0.008 A 
HETATM    9  C7  UNL     1      24.836   0.084  53.384  1.00  0.00    -0.011 A 
HETATM   10  C9  UNL     1      22.783  -1.392  53.213  1.00  0.00     0.189 C 
HETATM   11  C8  UNL     1      25.302   1.410  52.907  1.00  0.00     0.093 A 
HETATM   12  N1  UNL     1      22.430  -1.412  54.619  1.00  0.00    -0.278 NA
HETATM   13  C10 UNL     1      21.540  -0.550  54.974  1.00  0.00     0.226 C 
HETATM   14  N2  UNL     1      20.631   0.502  54.736  1.00  0.00    -0.254 NA
HETATM   15  C11 UNL     1      20.466   0.959  53.564  1.00  0.00     0.130 C 
HETATM   16  C12 UNL     1      20.635   1.110  52.147  1.00  0.00    -0.006 A 
HETATM   17  C13 UNL     1      19.449   1.275  51.475  1.00  0.00     0.040 A 
HETATM   18  C14 UNL     1      19.462   1.438  50.102  1.00  0.00     0.073 A 
HETATM   19 CL1  UNL     1      18.002   1.652  49.169  1.00  0.00    -0.081 Cl
HETATM   20  C15 UNL     1      20.696   1.420  49.527  1.00  0.00     0.139 A 
HETATM   21  F1  UNL     1      20.715   1.579  48.167  1.00  0.00    -0.204 F 
HETATM   22  C16 UNL     1      21.930   1.257  50.149  1.00  0.00     0.057 A 
ENDBRANCH   4   5
ENDBRANCH   3   4
TORSDOF 2
ENDMDL
MODEL 9
REMARK VINA RESULT:      -7.0      3.199      4.958
REMARK  2 active torsions:
REMARK  status: ('A' for Active; 'I' for Inactive)
REMARK    1  A    between atoms: C3_3  and  O1_4 
REMARK    2  A    between atoms: O1_4  and  C4_5 
ROOT
HETATM    1  C1  UNL     1      19.917   1.789  50.699  1.00  0.00     0.014 C 
HETATM    2  C2  UNL     1      20.326   1.136  51.639  1.00  0.00    -0.091 C 
HETATM    3  C3  UNL     1      20.814   0.322  52.767  1.00  0.00     0.268 C 
ENDROOT
BRANCH   3   4
HETATM    4  O1  UNL     1      22.094  -0.127  52.412  1.00  0.00    -0.343 OA
BRANCH   4   5
HETATM    5  C4  UNL     1      23.113  -0.279  53.371  1.00  0.00     0.062 A 
HETATM    6  C5  UNL     1      24.251   0.411  53.476  1.00  0.00     0.012 A 
HETATM    7  C6  UNL     1      24.994  -0.093  54.620  1.00  0.00    -0.028 A 
HETATM    8  C17 UNL     1      24.610   1.475  52.550  1.00  0.00    -0.008 A 
HETATM    9  C7  UNL     1      24.289  -1.063  55.168  1.00  0.00    -0.011 A 
HETATM   10  C9  UNL     1      26.301   0.468  55.013  1.00  0.00     0.189 C 
HETATM   11  C8  UNL     1      23.012  -1.307  54.453  1.00  0.00     0.093 A 
HETATM   12  N1  UNL     1      27.309  -0.544  54.764  1.00  0.00    -0.278 NA
HETATM   13  C10 UNL     1      27.602  -0.733  53.524  1.00  0.00     0.226 C 
HETATM   14  N2  UNL     1      27.479  -0.481  52.142  1.00  0.00    -0.254 NA
HETATM   15  C11 UNL     1      26.693   0.420  51.717  1.00  0.00     0.130 C 
HETATM   16  C12 UNL     1      25.727   1.480  51.749  1.00  0.00    -0.006 A 
HETATM   17  C13 UNL     1      26.022   2.509  50.889  1.00  0.00     0.040 A 
HETATM   18  C14 UNL     1      25.172   3.597  50.811  1.00  0.00     0.073 A 
HETATM   19 CL1  UNL     1      25.473   4.948  49.748  1.00  0.00    -0.081 Cl
HETATM   20  C15 UNL     1      24.082   3.541  51.625  1.00  0.00     0.139 A 
HETATM   21  F1  UNL     1      23.237   4.616  51.553  1.00  0.00    -0.204 F 
HETATM   22  C16 UNL     1      23.727   2.531  52.514  1.00  0.00     0.057 A 
ENDBRANCH   4   5
ENDBRANCH   3   4
TORSDOF 2
ENDMDL
