MODEL 1
REMARK VINA RESULT:      -9.4      0.000      0.000
REMARK  9 active torsions:
REMARK  status: ('A' for Active; 'I' for Inactive)
REMARK    1  A    between atoms: O1_1  and  C1_2 
REMARK    2  A    between atoms: C1_2  and  C2_3 
REMARK    3  A    between atoms: C2_3  and  C3_4 
REMARK    4  A    between atoms: C4_5  and  C5_6 
REMARK    5  A    between atoms: C14_15  and  N1_16 
REMARK    6  A    between atoms: N1_16  and  C15_17 
REMARK    7  A    between atoms: C15_17  and  C16_18 
REMARK    8  A    between atoms: C15_17  and  C17_20 
REMARK    9  A    between atoms: C16_18  and  O2_19 
ROOT
HETATM    1  C5  UNL     1      19.920   0.444  51.730  1.00  0.00     0.078 C 
HETATM    2  C6  UNL     1      20.716   0.765  50.679  1.00  0.00     0.049 C 
HETATM    3  C7  UNL     1      22.085   1.334  50.787  1.00  0.00    -0.022 A 
HETATM    4  C8  UNL     1      22.452   2.185  49.783  1.00  0.00     0.012 A 
HETATM    5  C9  UNL     1      23.670   2.818  49.911  1.00  0.00     0.001 A 
HETATM    6  C10 UNL     1      24.531   2.648  50.976  1.00  0.00     0.001 A 
HETATM    7  C11 UNL     1      24.190   1.778  52.031  1.00  0.00     0.013 A 
HETATM    8  C12 UNL     1      22.933   1.149  51.852  1.00  0.00    -0.007 A 
HETATM    9  C13 UNL     1      22.735   0.233  53.009  1.00  0.00     0.074 A 
HETATM   10  C14 UNL     1      23.979  -0.233  53.378  1.00  0.00     0.141 A 
HETATM   11  N2  UNL     1      23.913  -0.947  54.542  1.00  0.00    -0.224 NA
HETATM   12  C23 UNL     1      22.727  -1.124  55.169  1.00  0.00     0.238 A 
HETATM   13  N3  UNL     1      21.543  -0.657  54.762  1.00  0.00    -0.217 NA
HETATM   14  C24 UNL     1      21.492   0.065  53.625  1.00  0.00     0.186 A 
HETATM   15  O3  UNL     1      20.254   0.589  53.112  1.00  0.00    -0.291 OA
ENDROOT
BRANCH  10  16
HETATM   16  N1  UNL     1      25.164  -0.222  52.577  1.00  0.00    -0.363 N 
HETATM   17  H13 UNL     1      25.464   0.121  51.648  1.00  0.00     0.162 HD
BRANCH  16  18
HETATM   18  C15 UNL     1      26.251  -0.980  53.232  1.00  0.00     0.140 C 
BRANCH  18  19
HETATM   19  C16 UNL     1      26.834  -2.006  52.319  1.00  0.00     0.194 C 
BRANCH  19  20
HETATM   20  O2  UNL     1      27.643  -2.861  53.065  1.00  0.00    -0.399 OA
HETATM   21  H17 UNL     1      28.495  -2.409  53.296  1.00  0.00     0.209 HD
ENDBRANCH  19  20
ENDBRANCH  18  19
BRANCH  18  22
HETATM   22  C17 UNL     1      27.298   0.025  53.647  1.00  0.00    -0.034 A 
HETATM   23  C18 UNL     1      28.192   0.078  54.689  1.00  0.00     0.009 A 
HETATM   24  C19 UNL     1      29.031   1.162  54.799  1.00  0.00     0.001 A 
HETATM   25  C20 UNL     1      29.033   2.213  53.922  1.00  0.00     0.000 A 
HETATM   26  C21 UNL     1      28.140   2.174  52.871  1.00  0.00     0.001 A 
HETATM   27  C22 UNL     1      27.281   1.089  52.736  1.00  0.00     0.009 A 
ENDBRANCH  18  22
ENDBRANCH  16  18
ENDBRANCH  10  16
BRANCH   1  28
HETATM   28  C4  UNL     1      18.613  -0.098  51.345  1.00  0.00     0.033 C 
HETATM   29  C3  UNL     1      17.577  -0.715  51.874  1.00  0.00    -0.022 C 
BRANCH  29  30
HETATM   30  C2  UNL     1      16.918  -1.291  53.039  1.00  0.00     0.053 C 
BRANCH  30  31
HETATM   31  C1  UNL     1      17.707  -2.505  53.520  1.00  0.00     0.168 C 
BRANCH  31  32
HETATM   32  O1  UNL     1      18.837  -1.997  54.190  1.00  0.00    -0.401 OA
HETATM   33  H1  UNL     1      18.901  -2.345  55.109  1.00  0.00     0.209 HD
ENDBRANCH  31  32
ENDBRANCH  30  31
ENDBRANCH  29  30
ENDBRANCH   1  28
TORSDOF 9
ENDMDL
MODEL 2
REMARK VINA RESULT:      -8.8      3.550      5.530
REMARK  9 active torsions:
REMARK  status: ('A' for Active; 'I' for Inactive)
REMARK    1  A    between atoms: O1_1  and  C1_2 
REMARK    2  A    between atoms: C1_2  and  C2_3 
REMARK    3  A    between atoms: C2_3  and  C3_4 
REMARK    4  A    between atoms: C4_5  and  C5_6 
REMARK    5  A    between atoms: C14_15  and  N1_16 
REMARK    6  A    between atoms: N1_16  and  C15_17 
REMARK    7  A    between atoms: C15_17  and  C16_18 
REMARK    8  A    between atoms: C15_17  and  C17_20 
REMARK    9  A    between atoms: C16_18  and  O2_19 
ROOT
HETATM    1  C5  UNL     1      22.025   0.431  52.451  1.00  0.00     0.078 C 
HETATM    2  C6  UNL     1      23.063   0.788  53.248  1.00  0.00     0.049 C 
HETATM    3  C7  UNL     1      24.359   1.336  52.769  1.00  0.00    -0.022 A 
HETATM    4  C8  UNL     1      25.452   1.013  53.521  1.00  0.00     0.012 A 
HETATM    5  C9  UNL     1      26.682   1.410  53.043  1.00  0.00     0.001 A 
HETATM    6  C10 UNL     1      26.878   2.103  51.866  1.00  0.00     0.001 A 
HETATM    7  C11 UNL     1      25.775   2.456  51.061  1.00  0.00     0.013 A 
HETATM    8  C12 UNL     1      24.534   2.031  51.596  1.00  0.00    -0.007 A 
HETATM    9  C13 UNL     1      23.473   2.513  50.671  1.00  0.00     0.074 A 
HETATM   10  C14 UNL     1      23.910   3.706  50.134  1.00  0.00     0.141 A 
HETATM   11  N2  UNL     1      23.075   4.137  49.142  1.00  0.00    -0.224 NA
HETATM   12  C23 UNL     1      21.978   3.416  48.811  1.00  0.00     0.238 A 
HETATM   13  N3  UNL     1      21.592   2.266  49.371  1.00  0.00    -0.217 NA
HETATM   14  C24 UNL     1      22.347   1.747  50.361  1.00  0.00     0.186 A 
HETATM   15  O3  UNL     1      21.990   0.522  51.025  1.00  0.00    -0.291 OA
ENDROOT
BRANCH  10  16
HETATM   16  N1  UNL     1      24.938   4.550  50.661  1.00  0.00    -0.363 N 
HETATM   17  H13 UNL     1      25.597   4.557  51.458  1.00  0.00     0.162 HD
BRANCH  16  18
HETATM   18  C15 UNL     1      25.040   5.804  49.885  1.00  0.00     0.140 C 
BRANCH  18  19
HETATM   19  C16 UNL     1      24.894   7.005  50.759  1.00  0.00     0.194 C 
BRANCH  19  20
HETATM   20  O2  UNL     1      24.462   6.592  52.018  1.00  0.00    -0.399 OA
HETATM   21  H17 UNL     1      24.618   5.620  52.130  1.00  0.00     0.209 HD
ENDBRANCH  19  20
ENDBRANCH  18  19
BRANCH  18  22
HETATM   22  C17 UNL     1      26.390   5.794  49.210  1.00  0.00    -0.034 A 
HETATM   23  C18 UNL     1      27.300   4.802  48.937  1.00  0.00     0.009 A 
HETATM   24  C19 UNL     1      28.474   5.124  48.299  1.00  0.00     0.001 A 
HETATM   25  C20 UNL     1      28.803   6.395  47.912  1.00  0.00     0.000 A 
HETATM   26  C21 UNL     1      27.899   7.403  48.179  1.00  0.00     0.001 A 
HETATM   27  C22 UNL     1      26.704   7.104  48.823  1.00  0.00     0.009 A 
ENDBRANCH  18  22
ENDBRANCH  16  18
ENDBRANCH  10  16
BRANCH   1  28
HETATM   28  C4  UNL     1      20.862  -0.085  53.181  1.00  0.00     0.033 C 
HETATM   29  C3  UNL     1      19.581  -0.333  53.001  1.00  0.00    -0.022 C 
BRANCH  29  30
HETATM   30  C2  UNL     1      18.412  -0.330  52.133  1.00  0.00     0.053 C 
BRANCH  30  31
HETATM   31  C1  UNL     1      17.342  -1.248  52.718  1.00  0.00     0.168 C 
BRANCH  31  32
HETATM   32  O1  UNL     1      17.594  -1.308  54.103  1.00  0.00    -0.401 OA
HETATM   33  H1  UNL     1      17.634  -0.409  54.504  1.00  0.00     0.209 HD
ENDBRANCH  31  32
ENDBRANCH  30  31
ENDBRANCH  29  30
ENDBRANCH   1  28
TORSDOF 9
ENDMDL
MODEL 3
REMARK VINA RESULT:      -8.6      2.664      7.696
REMARK  9 active torsions:
REMARK  status: ('A' for Active; 'I' for Inactive)
REMARK    1  A    between atoms: O1_1  and  C1_2 
REMARK    2  A    between atoms: C1_2  and  C2_3 
REMARK    3  A    between atoms: C2_3  and  C3_4 
REMARK    4  A    between atoms: C4_5  and  C5_6 
REMARK    5  A    between atoms: C14_15  and  N1_16 
REMARK    6  A    between atoms: N1_16  and  C15_17 
REMARK    7  A    between atoms: C15_17  and  C16_18 
REMARK    8  A    between atoms: C15_17  and  C17_20 
REMARK    9  A    between atoms: C16_18  and  O2_19 
ROOT
HETATM    1  C5  UNL     1      26.387   0.575  54.425  1.00  0.00     0.078 C 
HETATM    2  C6  UNL     1      25.498  -0.446  54.497  1.00  0.00     0.049 C 
HETATM    3  C7  UNL     1      24.040  -0.330  54.229  1.00  0.00    -0.022 A 
HETATM    4  C8  UNL     1      23.237  -1.166  54.952  1.00  0.00     0.012 A 
HETATM    5  C9  UNL     1      21.876  -1.006  54.811  1.00  0.00     0.001 A 
HETATM    6  C10 UNL     1      21.279  -0.066  53.995  1.00  0.00     0.001 A 
HETATM    7  C11 UNL     1      22.072   0.814  53.231  1.00  0.00     0.013 A 
HETATM    8  C12 UNL     1      23.463   0.608  53.406  1.00  0.00    -0.007 A 
HETATM    9  C13 UNL     1      24.163   1.567  52.509  1.00  0.00     0.074 A 
HETATM   10  C14 UNL     1      23.368   1.739  51.396  1.00  0.00     0.141 A 
HETATM   11  N2  UNL     1      23.849   2.735  50.594  1.00  0.00    -0.224 NA
HETATM   12  C23 UNL     1      24.977   3.402  50.935  1.00  0.00     0.238 A 
HETATM   13  N3  UNL     1      25.719   3.189  52.025  1.00  0.00    -0.217 NA
HETATM   14  C24 UNL     1      25.333   2.229  52.889  1.00  0.00     0.186 A 
HETATM   15  O3  UNL     1      26.086   1.929  54.077  1.00  0.00    -0.291 OA
ENDROOT
BRANCH  10  16
HETATM   16  N1  UNL     1      22.321   0.868  50.955  1.00  0.00    -0.363 N 
HETATM   17  H13 UNL     1      22.041  -0.121  51.069  1.00  0.00     0.162 HD
BRANCH  16  18
HETATM   18  C15 UNL     1      21.422   1.561  50.008  1.00  0.00     0.140 C 
BRANCH  18  19
HETATM   19  C16 UNL     1      21.530   0.994  48.632  1.00  0.00     0.194 C 
BRANCH  19  20
HETATM   20  O2  UNL     1      22.439   1.757  47.903  1.00  0.00    -0.399 OA
HETATM   21  H17 UNL     1      22.159   2.708  47.898  1.00  0.00     0.209 HD
ENDBRANCH  19  20
ENDBRANCH  18  19
BRANCH  18  22
HETATM   22  C17 UNL     1      20.019   1.408  50.543  1.00  0.00    -0.034 A 
HETATM   23  C18 UNL     1      19.209   0.321  50.764  1.00  0.00     0.009 A 
HETATM   24  C19 UNL     1      17.944   0.517  51.265  1.00  0.00     0.001 A 
HETATM   25  C20 UNL     1      17.428   1.749  51.563  1.00  0.00     0.000 A 
HETATM   26  C21 UNL     1      18.231   2.851  51.347  1.00  0.00     0.001 A 
HETATM   27  C22 UNL     1      19.514   2.680  50.841  1.00  0.00     0.009 A 
ENDBRANCH  18  22
ENDBRANCH  16  18
ENDBRANCH  10  16
BRANCH   1  28
HETATM   28  C4  UNL     1      27.766   0.189  54.742  1.00  0.00     0.033 C 
HETATM   29  C3  UNL     1      28.759  -0.519  54.246  1.00  0.00    -0.022 C 
BRANCH  29  30
HETATM   30  C2  UNL     1      29.291  -1.368  53.188  1.00  0.00     0.053 C 
BRANCH  30  31
HETATM   31  C1  UNL     1      28.246  -2.410  52.799  1.00  0.00     0.168 C 
BRANCH  31  32
HETATM   32  O1  UNL     1      28.616  -3.600  53.457  1.00  0.00    -0.401 OA
HETATM   33  H1  UNL     1      29.315  -3.439  54.131  1.00  0.00     0.209 HD
ENDBRANCH  31  32
ENDBRANCH  30  31
ENDBRANCH  29  30
ENDBRANCH   1  28
TORSDOF 9
ENDMDL
MODEL 4
REMARK VINA RESULT:      -8.5      2.736      7.943
REMARK  9 active torsions:
REMARK  status: ('A' for Active; 'I' for Inactive)
REMARK    1  A    between atoms: O1_1  and  C1_2 
REMARK    2  A    between atoms: C1_2  and  C2_3 
REMARK    3  A    between atoms: C2_3  and  C3_4 
REMARK    4  A    between atoms: C4_5  and  C5_6 
REMARK    5  A    between atoms: C14_15  and  N1_16 
REMARK    6  A    between atoms: N1_16  and  C15_17 
REMARK    7  A    between atoms: C15_17  and  C16_18 
REMARK    8  A    between atoms: C15_17  and  C17_20 
REMARK    9  A    between atoms: C16_18  and  O2_19 
ROOT
HETATM    1  C5  UNL     1      25.921   0.249  54.187  1.00  0.00     0.078 C 
HETATM    2  C6  UNL     1      24.939  -0.685  54.250  1.00  0.00     0.049 C 
HETATM    3  C7  UNL     1      23.493  -0.419  54.037  1.00  0.00    -0.022 A 
HETATM    4  C8  UNL     1      22.635  -1.203  54.755  1.00  0.00     0.012 A 
HETATM    5  C9  UNL     1      21.291  -0.907  54.666  1.00  0.00     0.001 A 
HETATM    6  C10 UNL     1      20.765   0.119  53.908  1.00  0.00     0.001 A 
HETATM    7  C11 UNL     1      21.616   0.950  53.152  1.00  0.00     0.013 A 
HETATM    8  C12 UNL     1      22.985   0.604  53.271  1.00  0.00    -0.007 A 
HETATM    9  C13 UNL     1      23.747   1.528  52.388  1.00  0.00     0.074 A 
HETATM   10  C14 UNL     1      22.939   1.821  51.310  1.00  0.00     0.141 A 
HETATM   11  N2  UNL     1      23.490   2.800  50.531  1.00  0.00    -0.224 NA
HETATM   12  C23 UNL     1      24.688   3.340  50.859  1.00  0.00     0.238 A 
HETATM   13  N3  UNL     1      25.438   3.013  51.914  1.00  0.00    -0.217 NA
HETATM   14  C24 UNL     1      24.987   2.058  52.753  1.00  0.00     0.186 A 
HETATM   15  O3  UNL     1      25.743   1.638  53.902  1.00  0.00    -0.291 OA
ENDROOT
BRANCH  10  16
HETATM   16  N1  UNL     1      21.800   1.074  50.872  1.00  0.00    -0.363 N 
HETATM   17  H13 UNL     1      21.418   0.118  50.976  1.00  0.00     0.162 HD
BRANCH  16  18
HETATM   18  C15 UNL     1      20.967   1.874  49.950  1.00  0.00     0.140 C 
BRANCH  18  19
HETATM   19  C16 UNL     1      21.015   1.336  48.558  1.00  0.00     0.194 C 
BRANCH  19  20
HETATM   20  O2  UNL     1      22.194   1.765  47.953  1.00  0.00    -0.399 OA
HETATM   21  H17 UNL     1      21.993   2.187  47.078  1.00  0.00     0.209 HD
ENDBRANCH  19  20
ENDBRANCH  18  19
BRANCH  18  22
HETATM   22  C17 UNL     1      19.558   1.840  50.489  1.00  0.00    -0.034 A 
HETATM   23  C18 UNL     1      18.697   2.812  50.937  1.00  0.00     0.009 A 
HETATM   24  C19 UNL     1      17.449   2.449  51.384  1.00  0.00     0.001 A 
HETATM   25  C20 UNL     1      16.999   1.157  51.414  1.00  0.00     0.000 A 
HETATM   26  C21 UNL     1      17.853   0.169  50.967  1.00  0.00     0.001 A 
HETATM   27  C22 UNL     1      19.121   0.509  50.509  1.00  0.00     0.009 A 
ENDBRANCH  18  22
ENDBRANCH  16  18
ENDBRANCH  10  16
BRANCH   1  28
HETATM   28  C4  UNL     1      27.265  -0.280  54.442  1.00  0.00     0.033 C 
HETATM   29  C3  UNL     1      28.529   0.022  54.232  1.00  0.00    -0.022 C 
BRANCH  29  30
HETATM   30  C2  UNL     1      29.530   0.932  53.691  1.00  0.00     0.053 C 
BRANCH  30  31
HETATM   31  C1  UNL     1      29.075   2.373  53.903  1.00  0.00     0.168 C 
BRANCH  31  32
HETATM   32  O1  UNL     1      28.385   2.742  52.732  1.00  0.00    -0.401 OA
HETATM   33  H1  UNL     1      28.217   3.712  52.700  1.00  0.00     0.209 HD
ENDBRANCH  31  32
ENDBRANCH  30  31
ENDBRANCH  29  30
ENDBRANCH   1  28
TORSDOF 9
ENDMDL
MODEL 5
REMARK VINA RESULT:      -8.3      4.067      8.372
REMARK  9 active torsions:
REMARK  status: ('A' for Active; 'I' for Inactive)
REMARK    1  A    between atoms: O1_1  and  C1_2 
REMARK    2  A    between atoms: C1_2  and  C2_3 
REMARK    3  A    between atoms: C2_3  and  C3_4 
REMARK    4  A    between atoms: C4_5  and  C5_6 
REMARK    5  A    between atoms: C14_15  and  N1_16 
REMARK    6  A    between atoms: N1_16  and  C15_17 
REMARK    7  A    between atoms: C15_17  and  C16_18 
REMARK    8  A    between atoms: C15_17  and  C17_20 
REMARK    9  A    between atoms: C16_18  and  O2_19 
ROOT
HETATM    1  C5  UNL     1      26.013   4.961  49.748  1.00  0.00     0.078 C 
HETATM    2  C6  UNL     1      26.246   3.632  49.884  1.00  0.00     0.049 C 
HETATM    3  C7  UNL     1      25.666   2.766  50.943  1.00  0.00    -0.022 A 
HETATM    4  C8  UNL     1      26.452   1.728  51.355  1.00  0.00     0.012 A 
HETATM    5  C9  UNL     1      25.992   0.974  52.413  1.00  0.00     0.001 A 
HETATM    6  C10 UNL     1      24.803   1.200  53.076  1.00  0.00     0.001 A 
HETATM    7  C11 UNL     1      23.963   2.260  52.681  1.00  0.00     0.013 A 
HETATM    8  C12 UNL     1      24.475   3.002  51.588  1.00  0.00    -0.007 A 
HETATM    9  C13 UNL     1      23.467   4.045  51.257  1.00  0.00     0.074 A 
HETATM   10  C14 UNL     1      22.225   3.516  51.539  1.00  0.00     0.141 A 
HETATM   11  N2  UNL     1      21.247   4.464  51.428  1.00  0.00    -0.224 NA
HETATM   12  C23 UNL     1      21.562   5.731  51.071  1.00  0.00     0.238 A 
HETATM   13  N3  UNL     1      22.785   6.193  50.799  1.00  0.00    -0.217 NA
HETATM   14  C24 UNL     1      23.827   5.341  50.881  1.00  0.00     0.186 A 
HETATM   15  O3  UNL     1      25.173   5.757  50.588  1.00  0.00    -0.291 OA
ENDROOT
BRANCH  10  16
HETATM   16  N1  UNL     1      21.904   2.129  51.685  1.00  0.00    -0.363 N 
HETATM   17  H13 UNL     1      22.233   1.315  52.232  1.00  0.00     0.162 HD
BRANCH  16  18
HETATM   18  C15 UNL     1      20.847   1.728  50.733  1.00  0.00     0.140 C 
BRANCH  18  19
HETATM   19  C16 UNL     1      21.420   1.093  49.511  1.00  0.00     0.194 C 
BRANCH  19  20
HETATM   20  O2  UNL     1      20.628   1.433  48.416  1.00  0.00    -0.399 OA
HETATM   21  H17 UNL     1      21.062   1.136  47.576  1.00  0.00     0.209 HD
ENDBRANCH  19  20
ENDBRANCH  18  19
BRANCH  18  22
HETATM   22  C17 UNL     1      19.941   0.766  51.462  1.00  0.00    -0.034 A 
HETATM   23  C18 UNL     1      18.677   0.290  51.214  1.00  0.00     0.009 A 
HETATM   24  C19 UNL     1      18.106  -0.594  52.098  1.00  0.00     0.001 A 
HETATM   25  C20 UNL     1      18.727  -1.040  53.233  1.00  0.00     0.000 A 
HETATM   26  C21 UNL     1      19.998  -0.571  53.496  1.00  0.00     0.001 A 
HETATM   27  C22 UNL     1      20.598   0.324  52.618  1.00  0.00     0.009 A 
ENDBRANCH  18  22
ENDBRANCH  16  18
ENDBRANCH  10  16
BRANCH   1  28
HETATM   28  C4  UNL     1      26.715   5.579  48.618  1.00  0.00     0.033 C 
HETATM   29  C3  UNL     1      27.391   6.669  48.319  1.00  0.00    -0.022 C 
BRANCH  29  30
HETATM   30  C2  UNL     1      27.939   7.957  48.721  1.00  0.00     0.053 C 
BRANCH  30  31
HETATM   31  C1  UNL     1      26.859   8.771  49.427  1.00  0.00     0.168 C 
BRANCH  31  32
HETATM   32  O1  UNL     1      26.811   8.293  50.751  1.00  0.00    -0.401 OA
HETATM   33  H1  UNL     1      27.551   7.671  50.939  1.00  0.00     0.209 HD
ENDBRANCH  31  32
ENDBRANCH  30  31
ENDBRANCH  29  30
ENDBRANCH   1  28
TORSDOF 9
ENDMDL
MODEL 6
REMARK VINA RESULT:      -8.3      3.251      8.149
REMARK  9 active torsions:
REMARK  status: ('A' for Active; 'I' for Inactive)
REMARK    1  A    between atoms: O1_1  and  C1_2 
REMARK    2  A    between atoms: C1_2  and  C2_3 
REMARK    3  A    between atoms: C2_3  and  C3_4 
REMARK    4  A    between atoms: C4_5  and  C5_6 
REMARK    5  A    between atoms: C14_15  and  N1_16 
REMARK    6  A    between atoms: N1_16  and  C15_17 
REMARK    7  A    between atoms: C15_17  and  C16_18 
REMARK    8  A    between atoms: C15_17  and  C17_20 
REMARK    9  A    between atoms: C16_18  and  O2_19 
ROOT
HETATM    1  C5  UNL     1      25.139   2.438  51.665  1.00  0.00     0.078 C 
HETATM    2  C6  UNL     1      24.855   1.129  51.872  1.00  0.00     0.049 C 
HETATM    3  C7  UNL     1      23.741   0.619  52.712  1.00  0.00    -0.022 A 
HETATM    4  C8  UNL     1      23.974  -0.568  53.348  1.00  0.00     0.012 A 
HETATM    5  C9  UNL     1      23.006  -1.012  54.223  1.00  0.00     0.001 A 
HETATM    6  C10 UNL     1      21.830  -0.342  54.494  1.00  0.00     0.001 A 
HETATM    7  C11 UNL     1      21.551   0.885  53.858  1.00  0.00     0.013 A 
HETATM    8  C12 UNL     1      22.572   1.297  52.966  1.00  0.00    -0.007 A 
HETATM    9  C13 UNL     1      22.118   2.568  52.340  1.00  0.00     0.074 A 
HETATM   10  C14 UNL     1      20.745   2.505  52.237  1.00  0.00     0.141 A 
HETATM   11  N2  UNL     1      20.224   3.701  51.830  1.00  0.00    -0.224 NA
HETATM   12  C23 UNL     1      21.040   4.751  51.578  1.00  0.00     0.238 A 
HETATM   13  N3  UNL     1      22.371   4.758  51.685  1.00  0.00    -0.217 NA
HETATM   14  C24 UNL     1      22.991   3.628  52.082  1.00  0.00     0.186 A 
HETATM   15  O3  UNL     1      24.422   3.550  52.207  1.00  0.00    -0.291 OA
ENDROOT
BRANCH  10  16
HETATM   16  N1  UNL     1      19.941   1.322  52.288  1.00  0.00    -0.363 N 
HETATM   17  H13 UNL     1      19.849   0.477  52.878  1.00  0.00     0.162 HD
BRANCH  16  18
HETATM   18  C15 UNL     1      19.029   1.253  51.128  1.00  0.00     0.140 C 
BRANCH  18  19
HETATM   19  C16 UNL     1      19.758   0.895  49.876  1.00  0.00     0.194 C 
BRANCH  19  20
HETATM   20  O2  UNL     1      19.190   1.594  48.812  1.00  0.00    -0.399 OA
HETATM   21  H17 UNL     1      19.229   2.569  48.986  1.00  0.00     0.209 HD
ENDBRANCH  19  20
ENDBRANCH  18  19
BRANCH  18  22
HETATM   22  C17 UNL     1      17.982   0.215  51.453  1.00  0.00    -0.034 A 
HETATM   23  C18 UNL     1      16.764  -0.100  50.901  1.00  0.00     0.009 A 
HETATM   24  C19 UNL     1      16.024  -1.122  51.446  1.00  0.00     0.001 A 
HETATM   25  C20 UNL     1      16.429  -1.861  52.524  1.00  0.00     0.000 A 
HETATM   26  C21 UNL     1      17.651  -1.557  53.089  1.00  0.00     0.001 A 
HETATM   27  C22 UNL     1      18.419  -0.528  52.557  1.00  0.00     0.009 A 
ENDBRANCH  18  22
ENDBRANCH  16  18
ENDBRANCH  10  16
BRANCH   1  28
HETATM   28  C4  UNL     1      26.297   2.668  50.795  1.00  0.00     0.033 C 
HETATM   29  C3  UNL     1      26.734   3.523  49.893  1.00  0.00    -0.022 C 
BRANCH  29  30
HETATM   30  C2  UNL     1      26.532   4.735  49.110  1.00  0.00     0.053 C 
BRANCH  30  31
HETATM   31  C1  UNL     1      25.132   5.283  49.374  1.00  0.00     0.168 C 
BRANCH  31  32
HETATM   32  O1  UNL     1      25.193   5.923  50.628  1.00  0.00    -0.401 OA
HETATM   33  H1  UNL     1      25.208   5.271  51.367  1.00  0.00     0.209 HD
ENDBRANCH  31  32
ENDBRANCH  30  31
ENDBRANCH  29  30
ENDBRANCH   1  28
TORSDOF 9
ENDMDL
MODEL 7
REMARK VINA RESULT:      -8.0      2.775      4.460
REMARK  9 active torsions:
REMARK  status: ('A' for Active; 'I' for Inactive)
REMARK    1  A    between atoms: O1_1  and  C1_2 
REMARK    2  A    between atoms: C1_2  and  C2_3 
REMARK    3  A    between atoms: C2_3  and  C3_4 
REMARK    4  A    between atoms: C4_5  and  C5_6 
REMARK    5  A    between atoms: C14_15  and  N1_16 
REMARK    6  A    between atoms: N1_16  and  C15_17 
REMARK    7  A    between atoms: C15_17  and  C16_18 
REMARK    8  A    between atoms: C15_17  and  C17_20 
REMARK    9  A    between atoms: C16_18  and  O2_19 
ROOT
HETATM    1  C5  UNL     1      18.463   1.056  50.893  1.00  0.00     0.078 C 
HETATM    2  C6  UNL     1      18.668   0.675  52.178  1.00  0.00     0.049 C 
HETATM    3  C7  UNL     1      19.896   0.009  52.686  1.00  0.00    -0.022 A 
HETATM    4  C8  UNL     1      19.709  -0.870  53.715  1.00  0.00     0.012 A 
HETATM    5  C9  UNL     1      20.809  -1.588  54.134  1.00  0.00     0.001 A 
HETATM    6  C10 UNL     1      22.070  -1.478  53.586  1.00  0.00     0.001 A 
HETATM    7  C11 UNL     1      22.304  -0.582  52.523  1.00  0.00     0.013 A 
HETATM    8  C12 UNL     1      21.147   0.136  52.132  1.00  0.00    -0.007 A 
HETATM    9  C13 UNL     1      21.557   1.067  51.045  1.00  0.00     0.074 A 
HETATM   10  C14 UNL     1      22.859   1.442  51.300  1.00  0.00     0.141 A 
HETATM   11  N2  UNL     1      23.378   2.163  50.261  1.00  0.00    -0.224 NA
HETATM   12  C23 UNL     1      22.623   2.428  49.169  1.00  0.00     0.238 A 
HETATM   13  N3  UNL     1      21.357   2.046  48.975  1.00  0.00    -0.217 NA
HETATM   14  C24 UNL     1      20.747   1.326  49.938  1.00  0.00     0.186 A 
HETATM   15  O3  UNL     1      19.382   0.892  49.810  1.00  0.00    -0.291 OA
ENDROOT
BRANCH  10  16
HETATM   16  N1  UNL     1      23.544   1.344  52.553  1.00  0.00    -0.363 N 
HETATM   17  H13 UNL     1      23.376   0.951  53.495  1.00  0.00     0.162 HD
BRANCH  16  18
HETATM   18  C15 UNL     1      24.829   2.073  52.510  1.00  0.00     0.140 C 
BRANCH  18  19
HETATM   19  C16 UNL     1      24.868   3.177  53.514  1.00  0.00     0.194 C 
BRANCH  19  20
HETATM   20  O2  UNL     1      24.090   4.234  53.046  1.00  0.00    -0.399 OA
HETATM   21  H17 UNL     1      24.381   4.494  52.135  1.00  0.00     0.209 HD
ENDBRANCH  19  20
ENDBRANCH  18  19
BRANCH  18  22
HETATM   22  C17 UNL     1      25.916   1.063  52.783  1.00  0.00    -0.034 A 
HETATM   23  C18 UNL     1      26.121  -0.234  52.380  1.00  0.00     0.009 A 
HETATM   24  C19 UNL     1      27.235  -0.907  52.820  1.00  0.00     0.001 A 
HETATM   25  C20 UNL     1      28.174  -0.359  53.652  1.00  0.00     0.000 A 
HETATM   26  C21 UNL     1      27.983   0.944  54.066  1.00  0.00     0.001 A 
HETATM   27  C22 UNL     1      26.863   1.647  53.635  1.00  0.00     0.009 A 
ENDBRANCH  18  22
ENDBRANCH  16  18
ENDBRANCH  10  16
BRANCH   1  28
HETATM   28  C4  UNL     1      17.161   1.690  50.659  1.00  0.00     0.033 C 
HETATM   29  C3  UNL     1      16.436   2.703  51.087  1.00  0.00    -0.022 C 
BRANCH  29  30
HETATM   30  C2  UNL     1      16.281   3.853  51.968  1.00  0.00     0.053 C 
BRANCH  30  31
HETATM   31  C1  UNL     1      15.106   3.615  52.912  1.00  0.00     0.168 C 
BRANCH  31  32
HETATM   32  O1  UNL     1      15.255   4.541  53.963  1.00  0.00    -0.401 OA
HETATM   33  H1  UNL     1      14.401   4.977  54.186  1.00  0.00     0.209 HD
ENDBRANCH  31  32
ENDBRANCH  30  31
ENDBRANCH  29  30
ENDBRANCH   1  28
TORSDOF 9
ENDMDL
MODEL 8
REMARK VINA RESULT:      -8.0      3.916      8.238
REMARK  9 active torsions:
REMARK  status: ('A' for Active; 'I' for Inactive)
REMARK    1  A    between atoms: O1_1  and  C1_2 
REMARK    2  A    between atoms: C1_2  and  C2_3 
REMARK    3  A    between atoms: C2_3  and  C3_4 
REMARK    4  A    between atoms: C4_5  and  C5_6 
REMARK    5  A    between atoms: C14_15  and  N1_16 
REMARK    6  A    between atoms: N1_16  and  C15_17 
REMARK    7  A    between atoms: C15_17  and  C16_18 
REMARK    8  A    between atoms: C15_17  and  C17_20 
REMARK    9  A    between atoms: C16_18  and  O2_19 
ROOT
HETATM    1  C5  UNL     1      26.209   5.147  49.597  1.00  0.00     0.078 C 
HETATM    2  C6  UNL     1      26.558   3.843  49.733  1.00  0.00     0.049 C 
HETATM    3  C7  UNL     1      25.939   2.889  50.690  1.00  0.00    -0.022 A 
HETATM    4  C8  UNL     1      26.769   1.920  51.178  1.00  0.00     0.012 A 
HETATM    5  C9  UNL     1      26.257   1.088  52.152  1.00  0.00     0.001 A 
HETATM    6  C10 UNL     1      24.977   1.173  52.659  1.00  0.00     0.001 A 
HETATM    7  C11 UNL     1      24.090   2.159  52.181  1.00  0.00     0.013 A 
HETATM    8  C12 UNL     1      24.658   2.984  51.180  1.00  0.00    -0.007 A 
HETATM    9  C13 UNL     1      23.599   3.934  50.743  1.00  0.00     0.074 A 
HETATM   10  C14 UNL     1      22.392   3.276  50.850  1.00  0.00     0.141 A 
HETATM   11  N2  UNL     1      21.344   4.126  50.634  1.00  0.00    -0.224 NA
HETATM   12  C23 UNL     1      21.571   5.430  50.348  1.00  0.00     0.238 A 
HETATM   13  N3  UNL     1      22.765   6.019  50.246  1.00  0.00    -0.217 NA
HETATM   14  C24 UNL     1      23.870   5.271  50.444  1.00  0.00     0.186 A 
HETATM   15  O3  UNL     1      25.192   5.827  50.337  1.00  0.00    -0.291 OA
ENDROOT
BRANCH  10  16
HETATM   16  N1  UNL     1      22.198   1.860  50.925  1.00  0.00    -0.363 N 
HETATM   17  H13 UNL     1      22.713   0.997  50.679  1.00  0.00     0.162 HD
BRANCH  16  18
HETATM   18  C15 UNL     1      20.848   1.538  51.432  1.00  0.00     0.140 C 
BRANCH  18  19
HETATM   19  C16 UNL     1      20.044   0.790  50.421  1.00  0.00     0.194 C 
BRANCH  19  20
HETATM   20  O2  UNL     1      18.747   1.298  50.415  1.00  0.00    -0.399 OA
HETATM   21  H17 UNL     1      18.193   0.827  51.090  1.00  0.00     0.209 HD
ENDBRANCH  19  20
ENDBRANCH  18  19
BRANCH  18  22
HETATM   22  C17 UNL     1      21.033   0.715  52.684  1.00  0.00    -0.034 A 
HETATM   23  C18 UNL     1      20.632   0.879  53.987  1.00  0.00     0.009 A 
HETATM   24  C19 UNL     1      20.977  -0.069  54.920  1.00  0.00     0.001 A 
HETATM   25  C20 UNL     1      21.710  -1.188  54.630  1.00  0.00     0.000 A 
HETATM   26  C21 UNL     1      22.120  -1.367  53.325  1.00  0.00     0.001 A 
HETATM   27  C22 UNL     1      21.785  -0.423  52.362  1.00  0.00     0.009 A 
ENDBRANCH  18  22
ENDBRANCH  16  18
ENDBRANCH  10  16
BRANCH   1  28
HETATM   28  C4  UNL     1      26.982   5.868  48.581  1.00  0.00     0.033 C 
HETATM   29  C3  UNL     1      28.203   5.929  48.090  1.00  0.00    -0.022 C 
BRANCH  29  30
HETATM   30  C2  UNL     1      29.582   5.460  48.092  1.00  0.00     0.053 C 
BRANCH  30  31
HETATM   31  C1  UNL     1      30.459   6.464  48.834  1.00  0.00     0.168 C 
BRANCH  31  32
HETATM   32  O1  UNL     1      31.031   5.761  49.912  1.00  0.00    -0.401 OA
HETATM   33  H1  UNL     1      31.954   6.057  50.089  1.00  0.00     0.209 HD
ENDBRANCH  31  32
ENDBRANCH  30  31
ENDBRANCH  29  30
ENDBRANCH   1  28
TORSDOF 9
ENDMDL
MODEL 9
REMARK VINA RESULT:      -8.0      2.931      8.203
REMARK  9 active torsions:
REMARK  status: ('A' for Active; 'I' for Inactive)
REMARK    1  A    between atoms: O1_1  and  C1_2 
REMARK    2  A    between atoms: C1_2  and  C2_3 
REMARK    3  A    between atoms: C2_3  and  C3_4 
REMARK    4  A    between atoms: C4_5  and  C5_6 
REMARK    5  A    between atoms: C14_15  and  N1_16 
REMARK    6  A    between atoms: N1_16  and  C15_17 
REMARK    7  A    between atoms: C15_17  and  C16_18 
REMARK    8  A    between atoms: C15_17  and  C17_20 
REMARK    9  A    between atoms: C16_18  and  O2_19 
ROOT
HETATM    1  C5  UNL     1      25.121   1.241  52.809  1.00  0.00     0.078 C 
HETATM    2  C6  UNL     1      24.351   0.128  52.721  1.00  0.00     0.049 C 
HETATM    3  C7  UNL     1      22.904   0.062  53.052  1.00  0.00    -0.022 A 
HETATM    4  C8  UNL     1      22.466  -1.131  53.556  1.00  0.00     0.012 A 
HETATM    5  C9  UNL     1      21.156  -1.190  53.978  1.00  0.00     0.001 A 
HETATM    6  C10 UNL     1      20.269  -0.134  53.928  1.00  0.00     0.001 A 
HETATM    7  C11 UNL     1      20.681   1.112  53.414  1.00  0.00     0.013 A 
HETATM    8  C12 UNL     1      22.032   1.123  52.989  1.00  0.00    -0.007 A 
HETATM    9  C13 UNL     1      22.305   2.476  52.433  1.00  0.00     0.074 A 
HETATM   10  C14 UNL     1      21.133   2.926  51.862  1.00  0.00     0.141 A 
HETATM   11  N2  UNL     1      21.241   4.233  51.477  1.00  0.00    -0.224 NA
HETATM   12  C23 UNL     1      22.399   4.907  51.667  1.00  0.00     0.238 A 
HETATM   13  N3  UNL     1      23.514   4.420  52.218  1.00  0.00    -0.217 NA
HETATM   14  C24 UNL     1      23.517   3.139  52.638  1.00  0.00     0.186 A 
HETATM   15  O3  UNL     1      24.682   2.536  53.228  1.00  0.00    -0.291 OA
ENDROOT
BRANCH  10  16
HETATM   16  N1  UNL     1      20.014   2.124  51.471  1.00  0.00    -0.363 N 
HETATM   17  H13 UNL     1      19.694   1.146  51.570  1.00  0.00     0.162 HD
BRANCH  16  18
HETATM   18  C15 UNL     1      19.083   2.896  50.621  1.00  0.00     0.140 C 
BRANCH  18  19
HETATM   19  C16 UNL     1      19.122   2.434  49.202  1.00  0.00     0.194 C 
BRANCH  19  20
HETATM   20  O2  UNL     1      19.662   1.150  49.164  1.00  0.00    -0.399 OA
HETATM   21  H17 UNL     1      19.701   0.825  48.229  1.00  0.00     0.209 HD
ENDBRANCH  19  20
ENDBRANCH  18  19
BRANCH  18  22
HETATM   22  C17 UNL     1      17.703   2.717  51.205  1.00  0.00    -0.034 A 
HETATM   23  C18 UNL     1      16.903   1.620  51.412  1.00  0.00     0.009 A 
HETATM   24  C19 UNL     1      15.660   1.792  51.972  1.00  0.00     0.001 A 
HETATM   25  C20 UNL     1      15.156   3.009  52.344  1.00  0.00     0.000 A 
HETATM   26  C21 UNL     1      15.949   4.121  52.143  1.00  0.00     0.001 A 
HETATM   27  C22 UNL     1      17.210   3.974  51.578  1.00  0.00     0.009 A 
ENDBRANCH  18  22
ENDBRANCH  16  18
ENDBRANCH  10  16
BRANCH   1  28
HETATM   28  C4  UNL     1      26.521   1.031  52.425  1.00  0.00     0.033 C 
HETATM   29  C3  UNL     1      27.512   0.188  52.631  1.00  0.00    -0.022 C 
BRANCH  29  30
HETATM   30  C2  UNL     1      28.024  -1.018  53.267  1.00  0.00     0.053 C 
BRANCH  30  31
HETATM   31  C1  UNL     1      27.339  -2.241  52.663  1.00  0.00     0.168 C 
BRANCH  31  32
HETATM   32  O1  UNL     1      28.237  -3.314  52.828  1.00  0.00    -0.401 OA
HETATM   33  H1  UNL     1      28.290  -3.871  52.017  1.00  0.00     0.209 HD
ENDBRANCH  31  32
ENDBRANCH  30  31
ENDBRANCH  29  30
ENDBRANCH   1  28
TORSDOF 9
ENDMDL
