MODEL 1
REMARK VINA RESULT:      -6.5      0.000      0.000
REMARK  7 active torsions:
REMARK  status: ('A' for Active; 'I' for Inactive)
REMARK    1  A    between atoms: O1_2  and  C2_3 
REMARK    2  A    between atoms: N1_6  and  C5_7 
REMARK    3  A    between atoms: C7_11  and  C8_12 
REMARK    4  A    between atoms: C8_12  and  C9_13 
REMARK    5  A    between atoms: C9_13  and  C10_14 
REMARK    6  A    between atoms: C12_16  and  C13_17 
REMARK    7  A    between atoms: C13_17  and  O2_18 
ROOT
HETATM    1  C5  UNL     1      24.118  -0.273  53.856  1.00  0.00     0.145 A 
HETATM    2  N2  UNL     1      23.657  -1.149  54.783  1.00  0.00    -0.223 NA
HETATM    3  C6  UNL     1      22.306  -1.207  54.979  1.00  0.00     0.235 A 
HETATM    4  N3  UNL     1      21.505  -0.389  54.238  1.00  0.00    -0.246 NA
HETATM    5  C7  UNL     1      22.016   0.459  53.329  1.00  0.00     0.048 A 
HETATM    6  C12 UNL     1      23.358   0.574  53.081  1.00  0.00     0.036 A 
ENDROOT
BRANCH   1   7
HETATM    7  N1  UNL     1      25.527  -0.392  53.810  1.00  0.00    -0.317 N 
HETATM    8  C4  UNL     1      26.310   0.205  54.825  1.00  0.00     0.097 A 
HETATM    9  C3  UNL     1      27.605   0.237  54.951  1.00  0.00     0.026 A 
HETATM   10  C2  UNL     1      28.460  -0.417  53.934  1.00  0.00     0.169 A 
HETATM   11  C16 UNL     1      27.622  -1.028  52.901  1.00  0.00     0.026 A 
HETATM   12  C15 UNL     1      26.300  -1.048  52.792  1.00  0.00     0.097 A 
BRANCH  10  13
HETATM   13  O1  UNL     1      29.313   0.570  53.440  1.00  0.00    -0.383 OA
HETATM   14  C1  UNL     1      29.349   1.704  54.215  1.00  0.00     0.202 C 
ENDBRANCH  10  13
ENDBRANCH   1   7
BRANCH   6  15
HETATM   15  C13 UNL     1      24.024   1.472  52.140  1.00  0.00     0.211 C 
BRANCH  15  16
HETATM   16  O2  UNL     1      24.488   2.664  52.741  1.00  0.00    -0.391 OA
HETATM   17  C14 UNL     1      23.822   3.767  52.226  1.00  0.00     0.201 C 
ENDBRANCH  15  16
ENDBRANCH   6  15
BRANCH   5  18
HETATM   18  C8  UNL     1      21.040   1.275  52.525  1.00  0.00     0.060 C 
BRANCH  18  19
HETATM   19  C9  UNL     1      20.515   0.358  51.446  1.00  0.00     0.006 C 
BRANCH  19  20
HETATM   20  C10 UNL     1      20.192   1.057  50.156  1.00  0.00    -0.004 C 
HETATM   21  C11 UNL     1      21.459   0.958  49.309  1.00  0.00     0.005 C 
ENDBRANCH  19  20
ENDBRANCH  18  19
ENDBRANCH   5  18
TORSDOF 7
ENDMDL
MODEL 2
REMARK VINA RESULT:      -6.4      1.354      2.075
REMARK  7 active torsions:
REMARK  status: ('A' for Active; 'I' for Inactive)
REMARK    1  A    between atoms: O1_2  and  C2_3 
REMARK    2  A    between atoms: N1_6  and  C5_7 
REMARK    3  A    between atoms: C7_11  and  C8_12 
REMARK    4  A    between atoms: C8_12  and  C9_13 
REMARK    5  A    between atoms: C9_13  and  C10_14 
REMARK    6  A    between atoms: C12_16  and  C13_17 
REMARK    7  A    between atoms: C13_17  and  O2_18 
ROOT
HETATM    1  C5  UNL     1      23.774   0.018  53.820  1.00  0.00     0.145 A 
HETATM    2  N2  UNL     1      23.548  -0.979  54.711  1.00  0.00    -0.223 NA
HETATM    3  C6  UNL     1      22.249  -1.271  55.014  1.00  0.00     0.235 A 
HETATM    4  N3  UNL     1      21.261  -0.550  54.410  1.00  0.00    -0.246 NA
HETATM    5  C7  UNL     1      21.543   0.428  53.531  1.00  0.00     0.048 A 
HETATM    6  C12 UNL     1      22.820   0.777  53.181  1.00  0.00     0.036 A 
ENDROOT
BRANCH   1   7
HETATM    7  N1  UNL     1      25.174   0.136  53.647  1.00  0.00    -0.317 N 
HETATM    8  C4  UNL     1      25.875  -0.869  52.942  1.00  0.00     0.097 A 
HETATM    9  C3  UNL     1      27.151  -0.965  52.701  1.00  0.00     0.026 A 
HETATM   10  C2  UNL     1      28.074   0.081  53.196  1.00  0.00     0.169 A 
HETATM   11  C16 UNL     1      27.319   1.108  53.917  1.00  0.00     0.026 A 
HETATM   12  C15 UNL     1      26.015   1.186  54.151  1.00  0.00     0.097 A 
BRANCH  10  13
HETATM   13  O1  UNL     1      29.019  -0.568  53.992  1.00  0.00    -0.383 OA
HETATM   14  C1  UNL     1      29.529  -1.707  53.419  1.00  0.00     0.202 C 
ENDBRANCH  10  13
ENDBRANCH   1   7
BRANCH   6  15
HETATM   15  C13 UNL     1      23.243   1.832  52.262  1.00  0.00     0.211 C 
BRANCH  15  16
HETATM   16  O2  UNL     1      23.257   1.420  50.910  1.00  0.00    -0.391 OA
HETATM   17  C14 UNL     1      22.851   2.451  50.076  1.00  0.00     0.201 C 
ENDBRANCH  15  16
ENDBRANCH   6  15
BRANCH   5  18
HETATM   18  C8  UNL     1      20.378   1.123  52.880  1.00  0.00     0.060 C 
BRANCH  18  19
HETATM   19  C9  UNL     1      19.891   0.194  51.793  1.00  0.00     0.006 C 
BRANCH  19  20
HETATM   20  C10 UNL     1      18.396   0.044  51.745  1.00  0.00    -0.004 C 
HETATM   21  C11 UNL     1      18.059  -1.025  52.782  1.00  0.00     0.005 C 
ENDBRANCH  19  20
ENDBRANCH  18  19
ENDBRANCH   5  18
TORSDOF 7
ENDMDL
MODEL 3
REMARK VINA RESULT:      -6.2      2.539      3.904
REMARK  7 active torsions:
REMARK  status: ('A' for Active; 'I' for Inactive)
REMARK    1  A    between atoms: O1_2  and  C2_3 
REMARK    2  A    between atoms: N1_6  and  C5_7 
REMARK    3  A    between atoms: C7_11  and  C8_12 
REMARK    4  A    between atoms: C8_12  and  C9_13 
REMARK    5  A    between atoms: C9_13  and  C10_14 
REMARK    6  A    between atoms: C12_16  and  C13_17 
REMARK    7  A    between atoms: C13_17  and  O2_18 
ROOT
HETATM    1  C5  UNL     1      25.783   2.289  51.191  1.00  0.00     0.145 A 
HETATM    2  N2  UNL     1      26.779   3.059  50.687  1.00  0.00    -0.223 NA
HETATM    3  C6  UNL     1      26.436   4.021  49.781  1.00  0.00     0.235 A 
HETATM    4  N3  UNL     1      25.122   4.153  49.437  1.00  0.00    -0.246 NA
HETATM    5  C7  UNL     1      24.174   3.363  49.970  1.00  0.00     0.048 A 
HETATM    6  C12 UNL     1      24.444   2.376  50.881  1.00  0.00     0.036 A 
ENDROOT
BRANCH   1   7
HETATM    7  N1  UNL     1      26.359   1.380  52.110  1.00  0.00    -0.317 N 
HETATM    8  C4  UNL     1      26.690   1.823  53.411  1.00  0.00     0.097 A 
HETATM    9  C3  UNL     1      27.248   1.164  54.386  1.00  0.00     0.026 A 
HETATM   10  C2  UNL     1      27.623  -0.256  54.194  1.00  0.00     0.169 A 
HETATM   11  C16 UNL     1      27.264  -0.685  52.841  1.00  0.00     0.026 A 
HETATM   12  C15 UNL     1      26.695   0.006  51.861  1.00  0.00     0.097 A 
BRANCH  10  13
HETATM   13  O1  UNL     1      28.990  -0.343  54.455  1.00  0.00    -0.383 OA
HETATM   14  C1  UNL     1      29.692  -1.021  53.488  1.00  0.00     0.202 C 
ENDBRANCH  10  13
ENDBRANCH   1   7
BRANCH   6  15
HETATM   15  C13 UNL     1      23.504   1.448  51.504  1.00  0.00     0.211 C 
BRANCH  15  16
HETATM   16  O2  UNL     1      23.216   1.767  52.851  1.00  0.00    -0.391 OA
HETATM   17  C14 UNL     1      23.003   0.617  53.596  1.00  0.00     0.201 C 
ENDBRANCH  15  16
ENDBRANCH   6  15
BRANCH   5  18
HETATM   18  C8  UNL     1      22.750   3.630  49.565  1.00  0.00     0.060 C 
BRANCH  18  19
HETATM   19  C9  UNL     1      22.694   3.427  48.069  1.00  0.00     0.006 C 
BRANCH  19  20
HETATM   20  C10 UNL     1      22.461   2.000  47.657  1.00  0.00    -0.004 C 
HETATM   21  C11 UNL     1      21.313   1.505  48.532  1.00  0.00     0.005 C 
ENDBRANCH  19  20
ENDBRANCH  18  19
ENDBRANCH   5  18
TORSDOF 7
ENDMDL
MODEL 4
REMARK VINA RESULT:      -6.1      1.790      2.741
REMARK  7 active torsions:
REMARK  status: ('A' for Active; 'I' for Inactive)
REMARK    1  A    between atoms: O1_2  and  C2_3 
REMARK    2  A    between atoms: N1_6  and  C5_7 
REMARK    3  A    between atoms: C7_11  and  C8_12 
REMARK    4  A    between atoms: C8_12  and  C9_13 
REMARK    5  A    between atoms: C9_13  and  C10_14 
REMARK    6  A    between atoms: C12_16  and  C13_17 
REMARK    7  A    between atoms: C13_17  and  O2_18 
ROOT
HETATM    1  C5  UNL     1      24.285   1.530  52.803  1.00  0.00     0.145 A 
HETATM    2  N2  UNL     1      24.606   2.833  52.600  1.00  0.00    -0.223 NA
HETATM    3  C6  UNL     1      23.589   3.694  52.302  1.00  0.00     0.235 A 
HETATM    4  N3  UNL     1      22.319   3.201  52.226  1.00  0.00    -0.246 NA
HETATM    5  C7  UNL     1      22.057   1.900  52.439  1.00  0.00     0.048 A 
HETATM    6  C12 UNL     1      23.026   0.979  52.740  1.00  0.00     0.036 A 
ENDROOT
BRANCH   1   7
HETATM    7  N1  UNL     1      25.477   0.833  53.109  1.00  0.00    -0.317 N 
HETATM    8  C4  UNL     1      25.986   0.868  54.428  1.00  0.00     0.097 A 
HETATM    9  C3  UNL     1      27.069   0.326  54.905  1.00  0.00     0.026 A 
HETATM   10  C2  UNL     1      27.954  -0.457  54.013  1.00  0.00     0.169 A 
HETATM   11  C16 UNL     1      27.399  -0.480  52.658  1.00  0.00     0.026 A 
HETATM   12  C15 UNL     1      26.291   0.082  52.193  1.00  0.00     0.097 A 
BRANCH  10  13
HETATM   13  O1  UNL     1      29.214   0.138  54.083  1.00  0.00    -0.383 OA
HETATM   14  C1  UNL     1      30.211  -0.619  53.517  1.00  0.00     0.202 C 
ENDBRANCH  10  13
ENDBRANCH   1   7
BRANCH   6  15
HETATM   15  C13 UNL     1      22.861  -0.455  52.966  1.00  0.00     0.211 C 
BRANCH  15  16
HETATM   16  O2  UNL     1      22.653  -0.784  54.325  1.00  0.00    -0.391 OA
HETATM   17  C14 UNL     1      21.495  -1.532  54.479  1.00  0.00     0.201 C 
ENDBRANCH  15  16
ENDBRANCH   6  15
BRANCH   5  18
HETATM   18  C8  UNL     1      20.616   1.472  52.387  1.00  0.00     0.060 C 
BRANCH  18  19
HETATM   19  C9  UNL     1      20.189   1.610  50.945  1.00  0.00     0.006 C 
BRANCH  19  20
HETATM   20  C10 UNL     1      20.914   0.689  50.005  1.00  0.00    -0.004 C 
HETATM   21  C11 UNL     1      21.198   1.520  48.757  1.00  0.00     0.005 C 
ENDBRANCH  19  20
ENDBRANCH  18  19
ENDBRANCH   5  18
TORSDOF 7
ENDMDL
MODEL 5
REMARK VINA RESULT:      -6.0      2.427      6.290
REMARK  7 active torsions:
REMARK  status: ('A' for Active; 'I' for Inactive)
REMARK    1  A    between atoms: O1_2  and  C2_3 
REMARK    2  A    between atoms: N1_6  and  C5_7 
REMARK    3  A    between atoms: C7_11  and  C8_12 
REMARK    4  A    between atoms: C8_12  and  C9_13 
REMARK    5  A    between atoms: C9_13  and  C10_14 
REMARK    6  A    between atoms: C12_16  and  C13_17 
REMARK    7  A    between atoms: C13_17  and  O2_18 
ROOT
HETATM    1  C5  UNL     1      24.264   1.697  52.352  1.00  0.00     0.145 A 
HETATM    2  N2  UNL     1      23.259   0.909  52.811  1.00  0.00    -0.223 NA
HETATM    3  C6  UNL     1      23.589  -0.337  53.260  1.00  0.00     0.235 A 
HETATM    4  N3  UNL     1      24.899  -0.717  53.224  1.00  0.00    -0.246 NA
HETATM    5  C7  UNL     1      25.856   0.106  52.760  1.00  0.00     0.048 A 
HETATM    6  C12 UNL     1      25.599   1.367  52.292  1.00  0.00     0.036 A 
ENDROOT
BRANCH   1   7
HETATM    7  N1  UNL     1      23.700   2.933  51.957  1.00  0.00    -0.317 N 
HETATM    8  C4  UNL     1      23.111   3.052  50.678  1.00  0.00     0.097 A 
HETATM    9  C3  UNL     1      22.571   4.096  50.117  1.00  0.00     0.026 A 
HETATM   10  C2  UNL     1      22.522   5.382  50.848  1.00  0.00     0.169 A 
HETATM   11  C16 UNL     1      23.135   5.225  52.168  1.00  0.00     0.026 A 
HETATM   12  C15 UNL     1      23.681   4.150  52.721  1.00  0.00     0.097 A 
BRANCH  10  13
HETATM   13  O1  UNL     1      23.175   6.319  50.046  1.00  0.00    -0.383 OA
HETATM   14  C1  UNL     1      23.507   7.475  50.710  1.00  0.00     0.202 C 
ENDBRANCH  10  13
ENDBRANCH   1   7
BRANCH   6  15
HETATM   15  C13 UNL     1      26.550   2.333  51.746  1.00  0.00     0.211 C 
BRANCH  15  16
HETATM   16  O2  UNL     1      26.607   2.322  50.334  1.00  0.00    -0.391 OA
HETATM   17  C14 UNL     1      26.578   3.614  49.829  1.00  0.00     0.201 C 
ENDBRANCH  15  16
ENDBRANCH   6  15
BRANCH   5  18
HETATM   18  C8  UNL     1      27.275  -0.391  52.817  1.00  0.00     0.060 C 
BRANCH  18  19
HETATM   19  C9  UNL     1      27.791  -0.029  54.189  1.00  0.00     0.006 C 
BRANCH  19  20
HETATM   20  C10 UNL     1      29.247   0.344  54.213  1.00  0.00    -0.004 C 
HETATM   21  C11 UNL     1      29.976  -0.813  53.533  1.00  0.00     0.005 C 
ENDBRANCH  19  20
ENDBRANCH  18  19
ENDBRANCH   5  18
TORSDOF 7
ENDMDL
MODEL 6
REMARK VINA RESULT:      -5.9      2.735      4.985
REMARK  7 active torsions:
REMARK  status: ('A' for Active; 'I' for Inactive)
REMARK    1  A    between atoms: O1_2  and  C2_3 
REMARK    2  A    between atoms: N1_6  and  C5_7 
REMARK    3  A    between atoms: C7_11  and  C8_12 
REMARK    4  A    between atoms: C8_12  and  C9_13 
REMARK    5  A    between atoms: C9_13  and  C10_14 
REMARK    6  A    between atoms: C12_16  and  C13_17 
REMARK    7  A    between atoms: C13_17  and  O2_18 
ROOT
HETATM    1  C5  UNL     1      24.957   2.043  52.122  1.00  0.00     0.145 A 
HETATM    2  N2  UNL     1      26.019   2.031  52.966  1.00  0.00    -0.223 NA
HETATM    3  C6  UNL     1      26.061   1.048  53.913  1.00  0.00     0.235 A 
HETATM    4  N3  UNL     1      25.043   0.141  53.956  1.00  0.00    -0.246 NA
HETATM    5  C7  UNL     1      24.015   0.198  53.091  1.00  0.00     0.048 A 
HETATM    6  C12 UNL     1      23.905   1.156  52.118  1.00  0.00     0.036 A 
ENDROOT
BRANCH   1   7
HETATM    7  N1  UNL     1      25.127   3.125  51.226  1.00  0.00    -0.317 N 
HETATM    8  C4  UNL     1      26.158   3.074  50.259  1.00  0.00     0.097 A 
HETATM    9  C3  UNL     1      26.497   3.965  49.373  1.00  0.00     0.026 A 
HETATM   10  C2  UNL     1      25.755   5.243  49.294  1.00  0.00     0.169 A 
HETATM   11  C16 UNL     1      24.694   5.265  50.302  1.00  0.00     0.026 A 
HETATM   12  C15 UNL     1      24.365   4.342  51.198  1.00  0.00     0.097 A 
BRANCH  10  13
HETATM   13  O1  UNL     1      26.696   6.260  49.463  1.00  0.00    -0.383 OA
HETATM   14  C1  UNL     1      26.137   7.496  49.678  1.00  0.00     0.202 C 
ENDBRANCH  10  13
ENDBRANCH   1   7
BRANCH   6  15
HETATM   15  C13 UNL     1      22.828   1.329  51.146  1.00  0.00     0.211 C 
BRANCH  15  16
HETATM   16  O2  UNL     1      21.724   2.047  51.659  1.00  0.00    -0.391 OA
HETATM   17  C14 UNL     1      21.045   2.701  50.641  1.00  0.00     0.201 C 
ENDBRANCH  15  16
ENDBRANCH   6  15
BRANCH   5  18
HETATM   18  C8  UNL     1      22.974  -0.885  53.189  1.00  0.00     0.060 C 
BRANCH  18  19
HETATM   19  C9  UNL     1      22.368  -0.761  54.566  1.00  0.00     0.006 C 
BRANCH  19  20
HETATM   20  C10 UNL     1      21.124   0.081  54.609  1.00  0.00    -0.004 C 
HETATM   21  C11 UNL     1      20.189  -0.517  53.561  1.00  0.00     0.005 C 
ENDBRANCH  19  20
ENDBRANCH  18  19
ENDBRANCH   5  18
TORSDOF 7
ENDMDL
MODEL 7
REMARK VINA RESULT:      -5.9      2.315      6.858
REMARK  7 active torsions:
REMARK  status: ('A' for Active; 'I' for Inactive)
REMARK    1  A    between atoms: O1_2  and  C2_3 
REMARK    2  A    between atoms: N1_6  and  C5_7 
REMARK    3  A    between atoms: C7_11  and  C8_12 
REMARK    4  A    between atoms: C8_12  and  C9_13 
REMARK    5  A    between atoms: C9_13  and  C10_14 
REMARK    6  A    between atoms: C12_16  and  C13_17 
REMARK    7  A    between atoms: C13_17  and  O2_18 
ROOT
HETATM    1  C5  UNL     1      23.981   1.348  51.825  1.00  0.00     0.145 A 
HETATM    2  N2  UNL     1      24.548   2.410  51.201  1.00  0.00    -0.223 NA
HETATM    3  C6  UNL     1      25.907   2.530  51.270  1.00  0.00     0.235 A 
HETATM    4  N3  UNL     1      26.611   1.583  51.955  1.00  0.00    -0.246 NA
HETATM    5  C7  UNL     1      25.996   0.548  52.553  1.00  0.00     0.048 A 
HETATM    6  C12 UNL     1      24.639   0.364  52.529  1.00  0.00     0.036 A 
ENDROOT
BRANCH   1   7
HETATM    7  N1  UNL     1      22.583   1.416  51.613  1.00  0.00    -0.317 N 
HETATM    8  C4  UNL     1      21.769   2.092  52.550  1.00  0.00     0.097 A 
HETATM    9  C3  UNL     1      20.476   2.242  52.557  1.00  0.00     0.026 A 
HETATM   10  C2  UNL     1      19.662   1.656  51.468  1.00  0.00     0.169 A 
HETATM   11  C16 UNL     1      20.532   0.967  50.513  1.00  0.00     0.026 A 
HETATM   12  C15 UNL     1      21.851   0.826  50.527  1.00  0.00     0.097 A 
BRANCH  10  13
HETATM   13  O1  UNL     1      18.735   0.810  52.078  1.00  0.00    -0.383 OA
HETATM   14  C1  UNL     1      18.176  -0.104  51.218  1.00  0.00     0.202 C 
ENDBRANCH  10  13
ENDBRANCH   1   7
BRANCH   6  15
HETATM   15  C13 UNL     1      23.865  -0.703  53.160  1.00  0.00     0.211 C 
BRANCH  15  16
HETATM   16  O2  UNL     1      23.505  -0.415  54.496  1.00  0.00    -0.391 OA
HETATM   17  C14 UNL     1      22.396  -1.155  54.878  1.00  0.00     0.201 C 
ENDBRANCH  15  16
ENDBRANCH   6  15
BRANCH   5  18
HETATM   18  C8  UNL     1      26.871  -0.470  53.234  1.00  0.00     0.060 C 
BRANCH  18  19
HETATM   19  C9  UNL     1      27.312   0.158  54.534  1.00  0.00     0.006 C 
BRANCH  19  20
HETATM   20  C10 UNL     1      28.796   0.369  54.636  1.00  0.00    -0.004 C 
HETATM   21  C11 UNL     1      29.423  -0.712  53.758  1.00  0.00     0.005 C 
ENDBRANCH  19  20
ENDBRANCH  18  19
ENDBRANCH   5  18
TORSDOF 7
ENDMDL
MODEL 8
REMARK VINA RESULT:      -5.8      2.562      6.957
REMARK  7 active torsions:
REMARK  status: ('A' for Active; 'I' for Inactive)
REMARK    1  A    between atoms: O1_2  and  C2_3 
REMARK    2  A    between atoms: N1_6  and  C5_7 
REMARK    3  A    between atoms: C7_11  and  C8_12 
REMARK    4  A    between atoms: C8_12  and  C9_13 
REMARK    5  A    between atoms: C9_13  and  C10_14 
REMARK    6  A    between atoms: C12_16  and  C13_17 
REMARK    7  A    between atoms: C13_17  and  O2_18 
ROOT
HETATM    1  C5  UNL     1      24.254   1.974  51.707  1.00  0.00     0.145 A 
HETATM    2  N2  UNL     1      25.106   2.629  50.879  1.00  0.00    -0.223 NA
HETATM    3  C6  UNL     1      26.421   2.265  50.911  1.00  0.00     0.235 A 
HETATM    4  N3  UNL     1      26.802   1.273  51.767  1.00  0.00    -0.246 NA
HETATM    5  C7  UNL     1      25.914   0.655  52.565  1.00  0.00     0.048 A 
HETATM    6  C12 UNL     1      24.581   0.969  52.588  1.00  0.00     0.036 A 
ENDROOT
BRANCH   1   7
HETATM    7  N1  UNL     1      22.956   2.497  51.496  1.00  0.00    -0.317 N 
HETATM    8  C4  UNL     1      22.552   3.659  52.193  1.00  0.00     0.097 A 
HETATM    9  C3  UNL     1      21.406   4.276  52.165  1.00  0.00     0.026 A 
HETATM   10  C2  UNL     1      20.313   3.760  51.311  1.00  0.00     0.169 A 
HETATM   11  C16 UNL     1      20.763   2.562  50.600  1.00  0.00     0.026 A 
HETATM   12  C15 UNL     1      21.938   1.948  50.644  1.00  0.00     0.097 A 
BRANCH  10  13
HETATM   13  O1  UNL     1      19.227   3.524  52.155  1.00  0.00    -0.383 OA
HETATM   14  C1  UNL     1      18.019   3.497  51.501  1.00  0.00     0.202 C 
ENDBRANCH  10  13
ENDBRANCH   1   7
BRANCH   6  15
HETATM   15  C13 UNL     1      23.535   0.385  53.426  1.00  0.00     0.211 C 
BRANCH  15  16
HETATM   16  O2  UNL     1      22.967  -0.786  52.873  1.00  0.00    -0.391 OA
HETATM   17  C14 UNL     1      22.014  -1.321  53.727  1.00  0.00     0.201 C 
ENDBRANCH  15  16
ENDBRANCH   6  15
BRANCH   5  18
HETATM   18  C8  UNL     1      26.429  -0.464  53.429  1.00  0.00     0.060 C 
BRANCH  18  19
HETATM   19  C9  UNL     1      27.934  -0.424  53.314  1.00  0.00     0.006 C 
BRANCH  19  20
HETATM   20  C10 UNL     1      28.633  -0.076  54.598  1.00  0.00    -0.004 C 
HETATM   21  C11 UNL     1      29.263   1.294  54.362  1.00  0.00     0.005 C 
ENDBRANCH  19  20
ENDBRANCH  18  19
ENDBRANCH   5  18
TORSDOF 7
ENDMDL
MODEL 9
REMARK VINA RESULT:      -5.8      3.706      5.866
REMARK  7 active torsions:
REMARK  status: ('A' for Active; 'I' for Inactive)
REMARK    1  A    between atoms: O1_2  and  C2_3 
REMARK    2  A    between atoms: N1_6  and  C5_7 
REMARK    3  A    between atoms: C7_11  and  C8_12 
REMARK    4  A    between atoms: C8_12  and  C9_13 
REMARK    5  A    between atoms: C9_13  and  C10_14 
REMARK    6  A    between atoms: C12_16  and  C13_17 
REMARK    7  A    between atoms: C13_17  and  O2_18 
ROOT
HETATM    1  C5  UNL     1      24.695   2.900  50.713  1.00  0.00     0.145 A 
HETATM    2  N2  UNL     1      23.572   2.730  49.972  1.00  0.00    -0.223 NA
HETATM    3  C6  UNL     1      22.699   1.756  50.365  1.00  0.00     0.235 A 
HETATM    4  N3  UNL     1      23.002   1.016  51.470  1.00  0.00    -0.246 NA
HETATM    5  C7  UNL     1      24.130   1.230  52.169  1.00  0.00     0.048 A 
HETATM    6  C12 UNL     1      25.052   2.186  51.834  1.00  0.00     0.036 A 
ENDROOT
BRANCH   1   7
HETATM    7  N1  UNL     1      25.437   3.960  50.139  1.00  0.00    -0.317 N 
HETATM    8  C4  UNL     1      25.018   5.294  50.343  1.00  0.00     0.097 A 
HETATM    9  C3  UNL     1      25.535   6.397  49.884  1.00  0.00     0.026 A 
HETATM   10  C2  UNL     1      26.735   6.342  49.018  1.00  0.00     0.169 A 
HETATM   11  C16 UNL     1      27.147   4.950  48.829  1.00  0.00     0.026 A 
HETATM   12  C15 UNL     1      26.603   3.838  49.308  1.00  0.00     0.097 A 
BRANCH  10  13
HETATM   13  O1  UNL     1      26.393   6.982  47.826  1.00  0.00    -0.383 OA
HETATM   14  C1  UNL     1      27.224   8.027  47.505  1.00  0.00     0.202 C 
ENDBRANCH  10  13
ENDBRANCH   1   7
BRANCH   6  15
HETATM   15  C13 UNL     1      26.316   2.488  52.502  1.00  0.00     0.211 C 
BRANCH  15  16
HETATM   16  O2  UNL     1      27.398   1.714  52.025  1.00  0.00    -0.391 OA
HETATM   17  C14 UNL     1      28.069   1.105  53.076  1.00  0.00     0.201 C 
ENDBRANCH  15  16
ENDBRANCH   6  15
BRANCH   5  18
HETATM   18  C8  UNL     1      24.341   0.396  53.405  1.00  0.00     0.060 C 
BRANCH  18  19
HETATM   19  C9  UNL     1      23.295  -0.692  53.359  1.00  0.00     0.006 C 
BRANCH  19  20
HETATM   20  C10 UNL     1      22.672  -0.994  54.693  1.00  0.00    -0.004 C 
HETATM   21  C11 UNL     1      21.169  -1.069  54.433  1.00  0.00     0.005 C 
ENDBRANCH  19  20
ENDBRANCH  18  19
ENDBRANCH   5  18
TORSDOF 7
ENDMDL
