MODEL 1
REMARK VINA RESULT:      -8.2      0.000      0.000
REMARK  7 active torsions:
REMARK  status: ('A' for Active; 'I' for Inactive)
REMARK    1  A    between atoms: C2_2  and  C3_3 
REMARK    2  A    between atoms: C6_7  and  O1_8 
REMARK       I    between atoms: N2_10  and  C8_11 
REMARK    3  A    between atoms: C8_11  and  C9_13 
REMARK    4  A    between atoms: C10_14  and  C11_15 
REMARK    5  A    between atoms: C11_15  and  O3_16 
REMARK    6  A    between atoms: C16_21  and  N3_22 
REMARK    7  A    between atoms: N3_22  and  C17_23 
ROOT
HETATM    1  C3  UNL     1      24.689   2.698  50.626  1.00  0.00     0.180 A 
HETATM    2  N1  UNL     1      23.324   2.254  50.412  1.00  0.00    -0.274 NA
HETATM    3  C4  UNL     1      22.671   1.488  51.217  1.00  0.00     0.068 A 
HETATM    4  C5  UNL     1      21.295   1.131  50.850  1.00  0.00     0.088 A 
HETATM    5  C6  UNL     1      20.608   0.334  51.683  1.00  0.00     0.153 A 
HETATM    6  N2  UNL     1      21.203  -0.143  52.883  1.00  0.00    -0.261 N 
HETATM    7  C8  UNL     1      20.478  -0.975  53.750  1.00  0.00     0.308 C 
HETATM    8  O2  UNL     1      20.992  -1.417  54.833  1.00  0.00    -0.257 OA
HETATM    9  C13 UNL     1      22.538   0.212  53.224  1.00  0.00     0.117 A 
HETATM   10  C14 UNL     1      23.275   0.994  52.450  1.00  0.00     0.011 A 
HETATM   11  C15 UNL     1      24.641   1.378  52.765  1.00  0.00     0.042 A 
HETATM   12  C16 UNL     1      25.265   2.177  51.883  1.00  0.00     0.039 A 
ENDROOT
BRANCH  12  13
HETATM   13  N3  UNL     1      26.607   2.573  52.164  1.00  0.00    -0.357 N 
HETATM   14  H16 UNL     1      26.852   3.526  51.814  1.00  0.00     0.166 HD
BRANCH  13  15
HETATM   15  C17 UNL     1      27.583   1.799  52.854  1.00  0.00     0.033 A 
HETATM   16  C18 UNL     1      28.520   2.391  53.677  1.00  0.00     0.029 A 
HETATM   17  C19 UNL     1      29.428   1.564  54.306  1.00  0.00     0.004 A 
HETATM   18  C20 UNL     1      29.387   0.198  54.112  1.00  0.00     0.019 A 
HETATM   19  C21 UNL     1      28.440  -0.381  53.283  1.00  0.00     0.013 A 
HETATM   20 BR1  UNL     1      28.344  -2.261  52.983  1.00  0.00    -0.051 Br
HETATM   21  C22 UNL     1      27.511   0.421  52.633  1.00  0.00     0.048 A 
ENDBRANCH  13  15
ENDBRANCH  12  13
BRANCH   1  22
HETATM   22  C2  UNL     1      24.671   4.192  50.657  1.00  0.00    -0.004 C 
HETATM   23  C1  UNL     1      25.182   4.667  49.506  1.00  0.00     0.009 C 
ENDBRANCH   1  22
BRANCH   5  24
HETATM   24  O1  UNL     1      19.330   0.026  51.304  1.00  0.00    -0.340 OA
HETATM   25  C7  UNL     1      18.700   0.858  50.344  1.00  0.00     0.211 C 
ENDBRANCH   5  24
BRANCH   7  26
HETATM   26  C9  UNL     1      19.127  -1.394  53.505  1.00  0.00    -0.003 C 
HETATM   27  C10 UNL     1      17.992  -1.766  53.304  1.00  0.00    -0.070 C 
BRANCH  27  28
HETATM   28  C11 UNL     1      16.613  -2.213  53.037  1.00  0.00     0.261 C 
BRANCH  28  29
HETATM   29  O3  UNL     1      16.008  -1.409  52.103  1.00  0.00    -0.384 OA
HETATM   30  C12 UNL     1      15.613  -0.174  52.564  1.00  0.00     0.202 C 
ENDBRANCH  28  29
ENDBRANCH  27  28
ENDBRANCH   7  26
TORSDOF 7
ENDMDL
MODEL 2
REMARK VINA RESULT:      -7.9      2.612      4.798
REMARK  7 active torsions:
REMARK  status: ('A' for Active; 'I' for Inactive)
REMARK    1  A    between atoms: C2_2  and  C3_3 
REMARK    2  A    between atoms: C6_7  and  O1_8 
REMARK       I    between atoms: N2_10  and  C8_11 
REMARK    3  A    between atoms: C8_11  and  C9_13 
REMARK    4  A    between atoms: C10_14  and  C11_15 
REMARK    5  A    between atoms: C11_15  and  O3_16 
REMARK    6  A    between atoms: C16_21  and  N3_22 
REMARK    7  A    between atoms: N3_22  and  C17_23 
ROOT
HETATM    1  C3  UNL     1      26.040   2.123  52.266  1.00  0.00     0.180 A 
HETATM    2  N1  UNL     1      24.988   1.371  52.921  1.00  0.00    -0.274 NA
HETATM    3  C4  UNL     1      23.800   1.209  52.445  1.00  0.00     0.068 A 
HETATM    4  C5  UNL     1      22.852   0.417  53.238  1.00  0.00     0.088 A 
HETATM    5  C6  UNL     1      21.614   0.244  52.748  1.00  0.00     0.153 A 
HETATM    6  N2  UNL     1      21.243   0.814  51.499  1.00  0.00    -0.261 N 
HETATM    7  C8  UNL     1      19.947   0.628  50.995  1.00  0.00     0.308 C 
HETATM    8  O2  UNL     1      19.591   1.131  49.875  1.00  0.00    -0.257 OA
HETATM    9  C13 UNL     1      22.175   1.579  50.744  1.00  0.00     0.117 A 
HETATM   10  C14 UNL     1      23.413   1.791  51.165  1.00  0.00     0.011 A 
HETATM   11  C15 UNL     1      24.392   2.567  50.421  1.00  0.00     0.042 A 
HETATM   12  C16 UNL     1      25.609   2.696  50.974  1.00  0.00     0.039 A 
ENDROOT
BRANCH  12  13
HETATM   13  N3  UNL     1      26.593   3.451  50.268  1.00  0.00    -0.357 N 
HETATM   14  H16 UNL     1      27.512   2.965  50.169  1.00  0.00     0.166 HD
BRANCH  13  15
HETATM   15  C17 UNL     1      26.416   4.753  49.718  1.00  0.00     0.033 A 
HETATM   16  C18 UNL     1      27.222   5.218  48.698  1.00  0.00     0.029 A 
HETATM   17  C19 UNL     1      26.979   6.491  48.225  1.00  0.00     0.004 A 
HETATM   18  C20 UNL     1      25.965   7.259  48.760  1.00  0.00     0.019 A 
HETATM   19  C21 UNL     1      25.165   6.778  49.784  1.00  0.00     0.013 A 
HETATM   20 BR1  UNL     1      23.753   7.800  50.556  1.00  0.00    -0.051 Br
HETATM   21  C22 UNL     1      25.381   5.501  50.285  1.00  0.00     0.048 A 
ENDBRANCH  13  15
ENDBRANCH  12  13
BRANCH   1  22
HETATM   22  C2  UNL     1      27.187   1.190  52.049  1.00  0.00    -0.004 C 
HETATM   23  C1  UNL     1      27.350   0.424  53.145  1.00  0.00     0.009 C 
ENDBRANCH   1  22
BRANCH   5  24
HETATM   24  O1  UNL     1      20.762  -0.500  53.518  1.00  0.00    -0.340 OA
HETATM   25  C7  UNL     1      21.324  -1.369  54.487  1.00  0.00     0.211 C 
ENDBRANCH   5  24
BRANCH   7  26
HETATM   26  C9  UNL     1      18.930  -0.126  51.671  1.00  0.00    -0.003 C 
HETATM   27  C10 UNL     1      18.071  -0.748  52.257  1.00  0.00    -0.070 C 
BRANCH  27  28
HETATM   28  C11 UNL     1      17.040  -1.521  52.972  1.00  0.00     0.261 C 
BRANCH  28  29
HETATM   29  O3  UNL     1      17.610  -2.508  53.738  1.00  0.00    -0.384 OA
HETATM   30  C12 UNL     1      17.083  -3.766  53.556  1.00  0.00     0.202 C 
ENDBRANCH  28  29
ENDBRANCH  27  28
ENDBRANCH   7  26
TORSDOF 7
ENDMDL
MODEL 3
REMARK VINA RESULT:      -7.8      4.385      6.285
REMARK  7 active torsions:
REMARK  status: ('A' for Active; 'I' for Inactive)
REMARK    1  A    between atoms: C2_2  and  C3_3 
REMARK    2  A    between atoms: C6_7  and  O1_8 
REMARK       I    between atoms: N2_10  and  C8_11 
REMARK    3  A    between atoms: C8_11  and  C9_13 
REMARK    4  A    between atoms: C10_14  and  C11_15 
REMARK    5  A    between atoms: C11_15  and  O3_16 
REMARK    6  A    between atoms: C16_21  and  N3_22 
REMARK    7  A    between atoms: N3_22  and  C17_23 
ROOT
HETATM    1  C3  UNL     1      25.523   6.384  49.104  1.00  0.00     0.180 A 
HETATM    2  N1  UNL     1      24.625   5.675  49.997  1.00  0.00    -0.274 NA
HETATM    3  C4  UNL     1      24.862   4.509  50.495  1.00  0.00     0.068 A 
HETATM    4  C5  UNL     1      23.846   3.931  51.384  1.00  0.00     0.088 A 
HETATM    5  C6  UNL     1      24.085   2.718  51.906  1.00  0.00     0.153 A 
HETATM    6  N2  UNL     1      25.288   2.023  51.602  1.00  0.00    -0.261 N 
HETATM    7  C8  UNL     1      25.530   0.755  52.154  1.00  0.00     0.308 C 
HETATM    8  O2  UNL     1      26.603   0.111  51.895  1.00  0.00    -0.257 OA
HETATM    9  C13 UNL     1      26.261   2.598  50.739  1.00  0.00     0.117 A 
HETATM   10  C14 UNL     1      26.093   3.790  50.188  1.00  0.00     0.011 A 
HETATM   11  C15 UNL     1      27.065   4.409  49.301  1.00  0.00     0.042 A 
HETATM   12  C16 UNL     1      26.757   5.624  48.817  1.00  0.00     0.039 A 
ENDROOT
BRANCH  12  13
HETATM   13  N3  UNL     1      27.690   6.259  47.945  1.00  0.00    -0.357 N 
HETATM   14  H16 UNL     1      27.335   6.404  46.974  1.00  0.00     0.166 HD
BRANCH  13  15
HETATM   15  C17 UNL     1      29.004   6.687  48.291  1.00  0.00     0.033 A 
HETATM   16  C18 UNL     1      30.047   5.789  48.402  1.00  0.00     0.029 A 
HETATM   17  C19 UNL     1      31.286   6.291  48.741  1.00  0.00     0.004 A 
HETATM   18  C20 UNL     1      31.462   7.643  48.957  1.00  0.00     0.019 A 
HETATM   19  C21 UNL     1      30.406   8.532  48.842  1.00  0.00     0.013 A 
HETATM   20 BR1  UNL     1      30.599  10.406  49.131  1.00  0.00    -0.051 Br
HETATM   21  C22 UNL     1      29.144   8.061  48.503  1.00  0.00     0.048 A 
ENDBRANCH  13  15
ENDBRANCH  12  13
BRANCH   1  22
HETATM   22  C2  UNL     1      25.867   7.683  49.758  1.00  0.00    -0.004 C 
HETATM   23  C1  UNL     1      25.170   8.674  49.171  1.00  0.00     0.009 C 
ENDBRANCH   1  22
BRANCH   5  24
HETATM   24  O1  UNL     1      23.114   2.216  52.729  1.00  0.00    -0.340 OA
HETATM   25  C7  UNL     1      21.759   2.472  52.397  1.00  0.00     0.211 C 
ENDBRANCH   5  24
BRANCH   7  26
HETATM   26  C9  UNL     1      24.619   0.084  53.036  1.00  0.00    -0.003 C 
HETATM   27  C10 UNL     1      23.834  -0.473  53.772  1.00  0.00    -0.070 C 
BRANCH  27  28
HETATM   28  C11 UNL     1      22.889  -1.140  54.685  1.00  0.00     0.261 C 
BRANCH  28  29
HETATM   29  O3  UNL     1      21.735  -0.408  54.818  1.00  0.00    -0.384 OA
HETATM   30  C12 UNL     1      20.734  -0.728  53.930  1.00  0.00     0.202 C 
ENDBRANCH  28  29
ENDBRANCH  27  28
ENDBRANCH   7  26
TORSDOF 7
ENDMDL
MODEL 4
REMARK VINA RESULT:      -7.7      5.686      9.928
REMARK  7 active torsions:
REMARK  status: ('A' for Active; 'I' for Inactive)
REMARK    1  A    between atoms: C2_2  and  C3_3 
REMARK    2  A    between atoms: C6_7  and  O1_8 
REMARK       I    between atoms: N2_10  and  C8_11 
REMARK    3  A    between atoms: C8_11  and  C9_13 
REMARK    4  A    between atoms: C10_14  and  C11_15 
REMARK    5  A    between atoms: C11_15  and  O3_16 
REMARK    6  A    between atoms: C16_21  and  N3_22 
REMARK    7  A    between atoms: N3_22  and  C17_23 
ROOT
HETATM    1  C3  UNL     1      23.409   4.473  50.795  1.00  0.00     0.180 A 
HETATM    2  N1  UNL     1      24.123   5.690  50.456  1.00  0.00    -0.274 NA
HETATM    3  C4  UNL     1      25.288   5.723  49.905  1.00  0.00     0.068 A 
HETATM    4  C5  UNL     1      25.872   7.041  49.627  1.00  0.00     0.088 A 
HETATM    5  C6  UNL     1      27.084   7.084  49.054  1.00  0.00     0.153 A 
HETATM    6  N2  UNL     1      27.775   5.884  48.729  1.00  0.00    -0.261 N 
HETATM    7  C8  UNL     1      29.042   5.937  48.129  1.00  0.00     0.308 C 
HETATM    8  O2  UNL     1      29.681   4.872  47.828  1.00  0.00    -0.257 OA
HETATM    9  C13 UNL     1      27.194   4.614  49.006  1.00  0.00     0.117 A 
HETATM   10  C14 UNL     1      26.002   4.496  49.569  1.00  0.00     0.011 A 
HETATM   11  C15 UNL     1      25.378   3.217  49.867  1.00  0.00     0.042 A 
HETATM   12  C16 UNL     1      24.164   3.254  50.441  1.00  0.00     0.039 A 
ENDROOT
BRANCH  12  13
HETATM   13  N3  UNL     1      23.524   2.015  50.744  1.00  0.00    -0.357 N 
HETATM   14  H16 UNL     1      22.771   1.749  50.072  1.00  0.00     0.166 HD
BRANCH  13  15
HETATM   15  C17 UNL     1      23.827   1.162  51.844  1.00  0.00     0.033 A 
HETATM   16  C18 UNL     1      25.132   0.907  52.217  1.00  0.00     0.029 A 
HETATM   17  C19 UNL     1      25.333   0.069  53.294  1.00  0.00     0.004 A 
HETATM   18  C20 UNL     1      24.262  -0.485  53.965  1.00  0.00     0.019 A 
HETATM   19  C21 UNL     1      22.959  -0.220  53.578  1.00  0.00     0.013 A 
HETATM   20 BR1  UNL     1      21.447  -0.962  54.470  1.00  0.00    -0.051 Br
HETATM   21  C22 UNL     1      22.718   0.619  52.497  1.00  0.00     0.048 A 
ENDBRANCH  13  15
ENDBRANCH  12  13
BRANCH   1  22
HETATM   22  C2  UNL     1      22.110   4.499  50.058  1.00  0.00    -0.004 C 
HETATM   23  C1  UNL     1      21.117   4.799  50.917  1.00  0.00     0.009 C 
ENDBRANCH   1  22
BRANCH   5  24
HETATM   24  O1  UNL     1      27.592   8.331  48.812  1.00  0.00    -0.340 OA
HETATM   25  C7  UNL     1      27.545   9.286  49.860  1.00  0.00     0.211 C 
ENDBRANCH   5  24
BRANCH   7  26
HETATM   26  C9  UNL     1      29.718   7.161  47.805  1.00  0.00    -0.003 C 
HETATM   27  C10 UNL     1      30.302   8.190  47.546  1.00  0.00    -0.070 C 
BRANCH  27  28
HETATM   28  C11 UNL     1      30.994   9.454  47.238  1.00  0.00     0.261 C 
BRANCH  28  29
HETATM   29  O3  UNL     1      31.436  10.065  48.386  1.00  0.00    -0.384 OA
HETATM   30  C12 UNL     1      30.712  11.168  48.776  1.00  0.00     0.202 C 
ENDBRANCH  28  29
ENDBRANCH  27  28
ENDBRANCH   7  26
TORSDOF 7
ENDMDL
MODEL 5
REMARK VINA RESULT:      -7.7      4.374      6.182
REMARK  7 active torsions:
REMARK  status: ('A' for Active; 'I' for Inactive)
REMARK    1  A    between atoms: C2_2  and  C3_3 
REMARK    2  A    between atoms: C6_7  and  O1_8 
REMARK       I    between atoms: N2_10  and  C8_11 
REMARK    3  A    between atoms: C8_11  and  C9_13 
REMARK    4  A    between atoms: C10_14  and  C11_15 
REMARK    5  A    between atoms: C11_15  and  O3_16 
REMARK    6  A    between atoms: C16_21  and  N3_22 
REMARK    7  A    between atoms: N3_22  and  C17_23 
ROOT
HETATM    1  C3  UNL     1      26.557   6.923  48.193  1.00  0.00     0.180 A 
HETATM    2  N1  UNL     1      25.382   6.451  48.901  1.00  0.00    -0.274 NA
HETATM    3  C4  UNL     1      25.311   5.328  49.530  1.00  0.00     0.068 A 
HETATM    4  C5  UNL     1      24.044   5.001  50.197  1.00  0.00     0.088 A 
HETATM    5  C6  UNL     1      23.963   3.833  50.853  1.00  0.00     0.153 A 
HETATM    6  N2  UNL     1      25.075   2.947  50.896  1.00  0.00    -0.261 N 
HETATM    7  C8  UNL     1      24.981   1.729  51.586  1.00  0.00     0.308 C 
HETATM    8  O2  UNL     1      25.966   0.917  51.638  1.00  0.00    -0.257 OA
HETATM    9  C13 UNL     1      26.295   3.280  50.245  1.00  0.00     0.117 A 
HETATM   10  C14 UNL     1      26.447   4.414  49.578  1.00  0.00     0.011 A 
HETATM   11  C15 UNL     1      27.678   4.788  48.901  1.00  0.00     0.042 A 
HETATM   12  C16 UNL     1      27.684   5.971  48.265  1.00  0.00     0.039 A 
ENDROOT
BRANCH  12  13
HETATM   13  N3  UNL     1      28.878   6.368  47.591  1.00  0.00    -0.357 N 
HETATM   14  H16 UNL     1      28.716   6.778  46.644  1.00  0.00     0.166 HD
BRANCH  13  15
HETATM   15  C17 UNL     1      30.205   6.250  48.095  1.00  0.00     0.033 A 
HETATM   16  C18 UNL     1      30.741   7.203  48.938  1.00  0.00     0.029 A 
HETATM   17  C19 UNL     1      32.033   7.008  49.379  1.00  0.00     0.004 A 
HETATM   18  C20 UNL     1      32.751   5.897  48.985  1.00  0.00     0.019 A 
HETATM   19  C21 UNL     1      32.199   4.950  48.138  1.00  0.00     0.013 A 
HETATM   20 BR1  UNL     1      33.150   3.400  47.565  1.00  0.00    -0.051 Br
HETATM   21  C22 UNL     1      30.900   5.114  47.674  1.00  0.00     0.048 A 
ENDBRANCH  13  15
ENDBRANCH  12  13
BRANCH   1  22
HETATM   22  C2  UNL     1      26.953   8.227  48.806  1.00  0.00    -0.004 C 
HETATM   23  C1  UNL     1      26.508   8.275  50.076  1.00  0.00     0.009 C 
ENDBRANCH   1  22
BRANCH   5  24
HETATM   24  O1  UNL     1      22.766   3.567  51.460  1.00  0.00    -0.340 OA
HETATM   25  C7  UNL     1      22.095   4.634  52.109  1.00  0.00     0.211 C 
ENDBRANCH   5  24
BRANCH   7  26
HETATM   26  C9  UNL     1      23.801   1.295  52.279  1.00  0.00    -0.003 C 
HETATM   27  C10 UNL     1      22.801   0.948  52.868  1.00  0.00    -0.070 C 
BRANCH  27  28
HETATM   28  C11 UNL     1      21.598   0.515  53.600  1.00  0.00     0.261 C 
BRANCH  28  29
HETATM   29  O3  UNL     1      21.928  -0.329  54.632  1.00  0.00    -0.384 OA
HETATM   30  C12 UNL     1      21.452  -1.614  54.511  1.00  0.00     0.202 C 
ENDBRANCH  28  29
ENDBRANCH  27  28
ENDBRANCH   7  26
TORSDOF 7
ENDMDL
MODEL 6
REMARK VINA RESULT:      -7.6      3.985      8.992
REMARK  7 active torsions:
REMARK  status: ('A' for Active; 'I' for Inactive)
REMARK    1  A    between atoms: C2_2  and  C3_3 
REMARK    2  A    between atoms: C6_7  and  O1_8 
REMARK       I    between atoms: N2_10  and  C8_11 
REMARK    3  A    between atoms: C8_11  and  C9_13 
REMARK    4  A    between atoms: C10_14  and  C11_15 
REMARK    5  A    between atoms: C11_15  and  O3_16 
REMARK    6  A    between atoms: C16_21  and  N3_22 
REMARK    7  A    between atoms: N3_22  and  C17_23 
ROOT
HETATM    1  C3  UNL     1      21.954  -1.139  53.568  1.00  0.00     0.180 A 
HETATM    2  N1  UNL     1      23.062  -0.374  53.027  1.00  0.00    -0.274 NA
HETATM    3  C4  UNL     1      22.975   0.846  52.619  1.00  0.00     0.068 A 
HETATM    4  C5  UNL     1      24.194   1.476  52.097  1.00  0.00     0.088 A 
HETATM    5  C6  UNL     1      24.113   2.746  51.670  1.00  0.00     0.153 A 
HETATM    6  N2  UNL     1      22.879   3.451  51.727  1.00  0.00    -0.261 N 
HETATM    7  C8  UNL     1      22.803   4.779  51.280  1.00  0.00     0.308 C 
HETATM    8  O2  UNL     1      21.706   5.433  51.321  1.00  0.00    -0.257 OA
HETATM    9  C13 UNL     1      21.707   2.825  52.236  1.00  0.00     0.117 A 
HETATM   10  C14 UNL     1      21.713   1.576  52.673  1.00  0.00     0.011 A 
HETATM   11  C15 UNL     1      20.536   0.904  53.200  1.00  0.00     0.042 A 
HETATM   12  C16 UNL     1      20.695  -0.366  53.607  1.00  0.00     0.039 A 
ENDROOT
BRANCH  12  13
HETATM   13  N3  UNL     1      19.559  -1.054  54.129  1.00  0.00    -0.357 N 
HETATM   14  H16 UNL     1      19.649  -1.322  55.135  1.00  0.00     0.166 HD
BRANCH  13  15
HETATM   15  C17 UNL     1      18.373  -1.381  53.411  1.00  0.00     0.033 A 
HETATM   16  C18 UNL     1      17.823  -0.507  52.495  1.00  0.00     0.029 A 
HETATM   17  C19 UNL     1      16.674  -0.906  51.845  1.00  0.00     0.004 A 
HETATM   18  C20 UNL     1      16.108  -2.136  52.109  1.00  0.00     0.019 A 
HETATM   19  C21 UNL     1      16.671  -3.003  53.030  1.00  0.00     0.013 A 
HETATM   20 BR1  UNL     1      15.926  -4.711  53.429  1.00  0.00    -0.051 Br
HETATM   21  C22 UNL     1      17.829  -2.633  53.705  1.00  0.00     0.048 A 
ENDBRANCH  13  15
ENDBRANCH  12  13
BRANCH   1  22
HETATM   22  C2  UNL     1      22.336  -1.557  54.951  1.00  0.00    -0.004 C 
HETATM   23  C1  UNL     1      23.613  -1.200  55.187  1.00  0.00     0.009 C 
ENDBRANCH   1  22
BRANCH   5  24
HETATM   24  O1  UNL     1      25.271   3.296  51.192  1.00  0.00    -0.340 OA
HETATM   25  C7  UNL     1      26.454   2.516  51.253  1.00  0.00     0.211 C 
ENDBRANCH   5  24
BRANCH   7  26
HETATM   26  C9  UNL     1      23.922   5.507  50.751  1.00  0.00    -0.003 C 
HETATM   27  C10 UNL     1      24.855   6.125  50.288  1.00  0.00    -0.070 C 
BRANCH  27  28
HETATM   28  C11 UNL     1      26.002   6.858  49.724  1.00  0.00     0.261 C 
BRANCH  28  29
HETATM   29  O3  UNL     1      26.055   8.140  50.214  1.00  0.00    -0.384 OA
HETATM   30  C12 UNL     1      27.212   8.827  49.927  1.00  0.00     0.202 C 
ENDBRANCH  28  29
ENDBRANCH  27  28
ENDBRANCH   7  26
TORSDOF 7
ENDMDL
MODEL 7
REMARK VINA RESULT:      -7.6      4.362      8.714
REMARK  7 active torsions:
REMARK  status: ('A' for Active; 'I' for Inactive)
REMARK    1  A    between atoms: C2_2  and  C3_3 
REMARK    2  A    between atoms: C6_7  and  O1_8 
REMARK       I    between atoms: N2_10  and  C8_11 
REMARK    3  A    between atoms: C8_11  and  C9_13 
REMARK    4  A    between atoms: C10_14  and  C11_15 
REMARK    5  A    between atoms: C11_15  and  O3_16 
REMARK    6  A    between atoms: C16_21  and  N3_22 
REMARK    7  A    between atoms: N3_22  and  C17_23 
ROOT
HETATM    1  C3  UNL     1      26.091   0.655  52.032  1.00  0.00     0.180 A 
HETATM    2  N1  UNL     1      26.617   1.584  51.049  1.00  0.00    -0.274 NA
HETATM    3  C4  UNL     1      26.096   2.731  50.777  1.00  0.00     0.068 A 
HETATM    4  C5  UNL     1      26.755   3.551  49.753  1.00  0.00     0.088 A 
HETATM    5  C6  UNL     1      26.219   4.747  49.465  1.00  0.00     0.153 A 
HETATM    6  N2  UNL     1      25.049   5.198  50.136  1.00  0.00    -0.261 N 
HETATM    7  C8  UNL     1      24.496   6.450  49.829  1.00  0.00     0.308 C 
HETATM    8  O2  UNL     1      23.445   6.876  50.419  1.00  0.00    -0.257 OA
HETATM    9  C13 UNL     1      24.423   4.390  51.126  1.00  0.00     0.117 A 
HETATM   10  C14 UNL     1      24.896   3.199  51.462  1.00  0.00     0.011 A 
HETATM   11  C15 UNL     1      24.284   2.347  52.468  1.00  0.00     0.042 A 
HETATM   12  C16 UNL     1      24.876   1.164  52.702  1.00  0.00     0.039 A 
ENDROOT
BRANCH  12  13
HETATM   13  N3  UNL     1      24.301   0.304  53.684  1.00  0.00    -0.357 N 
HETATM   14  H16 UNL     1      24.961   0.021  54.443  1.00  0.00     0.166 HD
BRANCH  13  15
HETATM   15  C17 UNL     1      22.957  -0.169  53.701  1.00  0.00     0.033 A 
HETATM   16  C18 UNL     1      22.519  -1.056  54.663  1.00  0.00     0.029 A 
HETATM   17  C19 UNL     1      21.202  -1.461  54.603  1.00  0.00     0.004 A 
HETATM   18  C20 UNL     1      20.364  -0.988  53.614  1.00  0.00     0.019 A 
HETATM   19  C21 UNL     1      20.819  -0.098  52.655  1.00  0.00     0.013 A 
HETATM   20 BR1  UNL     1      19.702   0.584  51.268  1.00  0.00    -0.051 Br
HETATM   21  C22 UNL     1      22.140   0.331  52.684  1.00  0.00     0.048 A 
ENDBRANCH  13  15
ENDBRANCH  12  13
BRANCH   1  22
HETATM   22  C2  UNL     1      27.166   0.417  53.041  1.00  0.00    -0.004 C 
HETATM   23  C1  UNL     1      27.592  -0.857  52.945  1.00  0.00     0.009 C 
ENDBRANCH   1  22
BRANCH   5  24
HETATM   24  O1  UNL     1      26.863   5.480  48.506  1.00  0.00    -0.340 OA
HETATM   25  C7  UNL     1      28.271   5.345  48.396  1.00  0.00     0.211 C 
ENDBRANCH   5  24
BRANCH   7  26
HETATM   26  C9  UNL     1      25.045   7.345  48.851  1.00  0.00    -0.003 C 
HETATM   27  C10 UNL     1      25.490   8.107  48.021  1.00  0.00    -0.070 C 
BRANCH  27  28
HETATM   28  C11 UNL     1      26.039   9.016  47.000  1.00  0.00     0.261 C 
BRANCH  28  29
HETATM   29  O3  UNL     1      27.412   8.999  47.013  1.00  0.00    -0.384 OA
HETATM   30  C12 UNL     1      28.000   8.435  45.904  1.00  0.00     0.202 C 
ENDBRANCH  28  29
ENDBRANCH  27  28
ENDBRANCH   7  26
TORSDOF 7
ENDMDL
MODEL 8
REMARK VINA RESULT:      -7.6      3.860      9.742
REMARK  7 active torsions:
REMARK  status: ('A' for Active; 'I' for Inactive)
REMARK    1  A    between atoms: C2_2  and  C3_3 
REMARK    2  A    between atoms: C6_7  and  O1_8 
REMARK       I    between atoms: N2_10  and  C8_11 
REMARK    3  A    between atoms: C8_11  and  C9_13 
REMARK    4  A    between atoms: C10_14  and  C11_15 
REMARK    5  A    between atoms: C11_15  and  O3_16 
REMARK    6  A    between atoms: C16_21  and  N3_22 
REMARK    7  A    between atoms: N3_22  and  C17_23 
ROOT
HETATM    1  C3  UNL     1      17.100   0.261  50.907  1.00  0.00     0.180 A 
HETATM    2  N1  UNL     1      18.513   0.560  50.769  1.00  0.00    -0.274 NA
HETATM    3  C4  UNL     1      19.421   0.192  51.607  1.00  0.00     0.068 A 
HETATM    4  C5  UNL     1      20.808   0.578  51.318  1.00  0.00     0.088 A 
HETATM    5  C6  UNL     1      21.760   0.199  52.186  1.00  0.00     0.153 A 
HETATM    6  N2  UNL     1      21.425  -0.552  53.345  1.00  0.00    -0.261 N 
HETATM    7  C8  UNL     1      22.426  -0.945  54.247  1.00  0.00     0.308 C 
HETATM    8  O2  UNL     1      22.149  -1.620  55.296  1.00  0.00    -0.257 OA
HETATM    9  C13 UNL     1      20.075  -0.918  53.610  1.00  0.00     0.117 A 
HETATM   10  C14 UNL     1      19.085  -0.579  52.799  1.00  0.00     0.011 A 
HETATM   11  C15 UNL     1      17.695  -0.934  53.036  1.00  0.00     0.042 A 
HETATM   12  C16 UNL     1      16.800  -0.520  52.125  1.00  0.00     0.039 A 
ENDROOT
BRANCH  12  13
HETATM   13  N3  UNL     1      15.427  -0.853  52.328  1.00  0.00    -0.357 N 
HETATM   14  H16 UNL     1      15.215  -1.870  52.222  1.00  0.00     0.166 HD
BRANCH  13  15
HETATM   15  C17 UNL     1      14.382   0.060  52.650  1.00  0.00     0.033 A 
HETATM   16  C18 UNL     1      13.075  -0.364  52.789  1.00  0.00     0.029 A 
HETATM   17  C19 UNL     1      12.128   0.588  53.103  1.00  0.00     0.004 A 
HETATM   18  C20 UNL     1      12.487   1.910  53.270  1.00  0.00     0.019 A 
HETATM   19  C21 UNL     1      13.802   2.320  53.127  1.00  0.00     0.013 A 
HETATM   20 BR1  UNL     1      14.347   4.133  53.347  1.00  0.00    -0.051 Br
HETATM   21  C22 UNL     1      14.783   1.388  52.811  1.00  0.00     0.048 A 
ENDBRANCH  13  15
ENDBRANCH  12  13
BRANCH   1  22
HETATM   22  C2  UNL     1      16.687  -0.510  49.695  1.00  0.00    -0.004 C 
HETATM   23  C1  UNL     1      15.867   0.249  48.943  1.00  0.00     0.009 C 
ENDBRANCH   1  22
BRANCH   5  24
HETATM   24  O1  UNL     1      23.038   0.579  51.879  1.00  0.00    -0.340 OA
HETATM   25  C7  UNL     1      23.232   1.851  51.284  1.00  0.00     0.211 C 
ENDBRANCH   5  24
BRANCH   7  26
HETATM   26  C9  UNL     1      23.817  -0.633  54.077  1.00  0.00    -0.003 C 
HETATM   27  C10 UNL     1      24.993  -0.388  53.925  1.00  0.00    -0.070 C 
BRANCH  27  28
HETATM   28  C11 UNL     1      26.427  -0.089  53.763  1.00  0.00     0.261 C 
BRANCH  28  29
HETATM   29  O3  UNL     1      27.103  -0.271  54.944  1.00  0.00    -0.384 OA
HETATM   30  C12 UNL     1      28.419   0.131  54.932  1.00  0.00     0.202 C 
ENDBRANCH  28  29
ENDBRANCH  27  28
ENDBRANCH   7  26
TORSDOF 7
ENDMDL
MODEL 9
REMARK VINA RESULT:      -7.5      2.566      4.708
REMARK  7 active torsions:
REMARK  status: ('A' for Active; 'I' for Inactive)
REMARK    1  A    between atoms: C2_2  and  C3_3 
REMARK    2  A    between atoms: C6_7  and  O1_8 
REMARK       I    between atoms: N2_10  and  C8_11 
REMARK    3  A    between atoms: C8_11  and  C9_13 
REMARK    4  A    between atoms: C10_14  and  C11_15 
REMARK    5  A    between atoms: C11_15  and  O3_16 
REMARK    6  A    between atoms: C16_21  and  N3_22 
REMARK    7  A    between atoms: N3_22  and  C17_23 
ROOT
HETATM    1  C3  UNL     1      25.875   2.225  52.088  1.00  0.00     0.180 A 
HETATM    2  N1  UNL     1      24.771   1.564  52.759  1.00  0.00    -0.274 NA
HETATM    3  C4  UNL     1      23.605   1.384  52.240  1.00  0.00     0.068 A 
HETATM    4  C5  UNL     1      22.597   0.695  53.056  1.00  0.00     0.088 A 
HETATM    5  C6  UNL     1      21.380   0.503  52.523  1.00  0.00     0.153 A 
HETATM    6  N2  UNL     1      21.087   0.955  51.207  1.00  0.00    -0.261 N 
HETATM    7  C8  UNL     1      19.812   0.749  50.657  1.00  0.00     0.308 C 
HETATM    8  O2  UNL     1      19.525   1.147  49.477  1.00  0.00    -0.257 OA
HETATM    9  C13 UNL     1      22.075   1.621  50.430  1.00  0.00     0.117 A 
HETATM   10  C14 UNL     1      23.296   1.845  50.891  1.00  0.00     0.011 A 
HETATM   11  C15 UNL     1      24.331   2.521  50.126  1.00  0.00     0.042 A 
HETATM   12  C16 UNL     1      25.523   2.677  50.726  1.00  0.00     0.039 A 
ENDROOT
BRANCH  12  13
HETATM   13  N3  UNL     1      26.561   3.336  50.002  1.00  0.00    -0.357 N 
HETATM   14  H16 UNL     1      27.452   2.794  49.946  1.00  0.00     0.166 HD
BRANCH  13  15
HETATM   15  C17 UNL     1      26.469   4.616  49.382  1.00  0.00     0.033 A 
HETATM   16  C18 UNL     1      25.286   5.328  49.375  1.00  0.00     0.029 A 
HETATM   17  C19 UNL     1      25.288   6.558  48.752  1.00  0.00     0.004 A 
HETATM   18  C20 UNL     1      26.436   7.047  48.163  1.00  0.00     0.019 A 
HETATM   19  C21 UNL     1      27.615   6.321  48.178  1.00  0.00     0.013 A 
HETATM   20 BR1  UNL     1      29.226   6.953  47.378  1.00  0.00    -0.051 Br
HETATM   21  C22 UNL     1      27.650   5.077  48.796  1.00  0.00     0.048 A 
ENDBRANCH  13  15
ENDBRANCH  12  13
BRANCH   1  22
HETATM   22  C2  UNL     1      27.005   1.249  52.023  1.00  0.00    -0.004 C 
HETATM   23  C1  UNL     1      27.918   1.563  52.960  1.00  0.00     0.009 C 
ENDBRANCH   1  22
BRANCH   5  24
HETATM   24  O1  UNL     1      20.471  -0.142  53.316  1.00  0.00    -0.340 OA
HETATM   25  C7  UNL     1      20.958  -1.083  54.260  1.00  0.00     0.211 C 
ENDBRANCH   5  24
BRANCH   7  26
HETATM   26  C9  UNL     1      18.743   0.089  51.351  1.00  0.00    -0.003 C 
HETATM   27  C10 UNL     1      17.839  -0.452  51.949  1.00  0.00    -0.070 C 
BRANCH  27  28
HETATM   28  C11 UNL     1      16.754  -1.127  52.683  1.00  0.00     0.261 C 
BRANCH  28  29
HETATM   29  O3  UNL     1      15.911  -0.212  53.264  1.00  0.00    -0.384 OA
HETATM   30  C12 UNL     1      15.172   0.543  52.383  1.00  0.00     0.202 C 
ENDBRANCH  28  29
ENDBRANCH  27  28
ENDBRANCH   7  26
TORSDOF 7
ENDMDL
