MODEL 1
REMARK VINA RESULT:      -8.8      0.000      0.000
REMARK  3 active torsions:
REMARK  status: ('A' for Active; 'I' for Inactive)
REMARK    1  A    between atoms: C1_2  and  C2_3 
REMARK       I    between atoms: C1_2  and  N1_12 
REMARK    2  A    between atoms: C3_4  and  C4_5 
REMARK    3  A    between atoms: N1_12  and  C10_13 
ROOT
HETATM    1  C10 UNL     1      19.086   0.380  51.961  1.00  0.00     0.031 C 
HETATM    2  C11 UNL     1      18.658  -0.881  52.146  1.00  0.00     0.015 C 
HETATM    3  C12 UNL     1      17.213  -0.736  52.133  1.00  0.00     0.080 C 
HETATM    4  C13 UNL     1      16.004  -1.256  52.199  1.00  0.00     0.090 A 
HETATM    5  N2  UNL     1      15.148  -2.423  52.332  1.00  0.00    -0.242 NA
HETATM    6  C14 UNL     1      13.933  -2.056  52.406  1.00  0.00     0.235 A 
HETATM    7  N3  UNL     1      13.959  -0.655  52.327  1.00  0.00    -0.222 NA
HETATM    8  C15 UNL     1      15.104  -0.168  52.213  1.00  0.00     0.157 A 
HETATM    9  N4  UNL     1      14.970   1.262  52.179  1.00  0.00    -0.327 N 
HETATM   10  C16 UNL     1      14.199   2.106  53.073  1.00  0.00     0.113 C 
HETATM   11  C17 UNL     1      13.848   3.332  52.677  1.00  0.00     0.026 C 
HETATM   12 BR1  UNL     1      12.830   4.357  53.887  1.00  0.00    -0.050 Br
HETATM   13  C18 UNL     1      14.326   3.945  51.449  1.00  0.00     0.019 C 
HETATM   14  C19 UNL     1      15.167   3.204  50.749  1.00  0.00     0.004 C 
HETATM   15  C20 UNL     1      15.686   1.813  51.099  1.00  0.00     0.137 C 
HETATM   16  C21 UNL     1      17.161   1.905  51.338  1.00  0.00     0.005 C 
HETATM   17  C22 UNL     1      18.460   1.658  51.611  1.00  0.00     0.027 C 
ENDROOT
BRANCH   1  18
HETATM   18  N1  UNL     1      20.532   0.529  51.949  1.00  0.00    -0.324 N 
HETATM   19  C1  UNL     1      21.216   0.582  53.215  1.00  0.00     0.245 C 
HETATM   20  O1  UNL     1      20.418   0.486  54.184  1.00  0.00    -0.268 OA
HETATM   21  H7  UNL     1      21.089   0.599  51.068  1.00  0.00     0.169 HD
BRANCH  19  22
HETATM   22  C2  UNL     1      22.642   0.727  53.353  1.00  0.00     0.075 C 
HETATM   23  C3  UNL     1      23.536  -0.244  53.301  1.00  0.00     0.017 C 
BRANCH  23  24
HETATM   24  C4  UNL     1      24.975  -0.072  53.443  1.00  0.00    -0.036 A 
HETATM   25  C5  UNL     1      25.646  -0.195  54.640  1.00  0.00     0.013 A 
HETATM   26  C6  UNL     1      27.010  -0.027  54.749  1.00  0.00     0.024 A 
HETATM   27  C7  UNL     1      27.750   0.281  53.601  1.00  0.00     0.034 A 
HETATM   28 CL1  UNL     1      29.484   0.487  53.783  1.00  0.00    -0.084 Cl
HETATM   29  C8  UNL     1      27.086   0.404  52.410  1.00  0.00     0.024 A 
HETATM   30  C9  UNL     1      25.734   0.233  52.334  1.00  0.00     0.013 A 
ENDBRANCH  23  24
ENDBRANCH  19  22
ENDBRANCH   1  18
TORSDOF 3
ENDMDL
MODEL 2
REMARK VINA RESULT:      -8.7      5.533     10.079
REMARK  3 active torsions:
REMARK  status: ('A' for Active; 'I' for Inactive)
REMARK    1  A    between atoms: C1_2  and  C2_3 
REMARK       I    between atoms: C1_2  and  N1_12 
REMARK    2  A    between atoms: C3_4  and  C4_5 
REMARK    3  A    between atoms: N1_12  and  C10_13 
ROOT
HETATM    1  C10 UNL     1      22.289  -0.258  52.726  1.00  0.00     0.031 C 
HETATM    2  C11 UNL     1      23.146  -0.893  53.544  1.00  0.00     0.015 C 
HETATM    3  C12 UNL     1      24.302  -0.014  53.546  1.00  0.00     0.080 C 
HETATM    4  C13 UNL     1      25.515   0.291  53.959  1.00  0.00     0.090 A 
HETATM    5  N2  UNL     1      26.677  -0.025  54.774  1.00  0.00    -0.242 NA
HETATM    6  C14 UNL     1      27.604   0.813  54.539  1.00  0.00     0.235 A 
HETATM    7  N3  UNL     1      27.083   1.688  53.573  1.00  0.00    -0.222 NA
HETATM    8  C15 UNL     1      25.913   1.427  53.221  1.00  0.00     0.157 A 
HETATM    9  N4  UNL     1      25.536   2.380  52.214  1.00  0.00    -0.327 N 
HETATM   10  C16 UNL     1      26.290   2.784  51.042  1.00  0.00     0.113 C 
HETATM   11  C17 UNL     1      26.005   3.944  50.446  1.00  0.00     0.026 C 
HETATM   12 BR1  UNL     1      27.043   4.406  48.943  1.00  0.00    -0.050 Br
HETATM   13  C18 UNL     1      24.867   4.773  50.809  1.00  0.00     0.019 C 
HETATM   14  C19 UNL     1      24.104   4.280  51.769  1.00  0.00     0.004 C 
HETATM   15  C20 UNL     1      24.284   2.955  52.504  1.00  0.00     0.137 C 
HETATM   16  C21 UNL     1      23.123   2.070  52.175  1.00  0.00     0.005 C 
HETATM   17  C22 UNL     1      22.236   1.056  52.080  1.00  0.00     0.027 C 
ENDROOT
BRANCH   1  18
HETATM   18  N1  UNL     1      21.023  -0.946  52.529  1.00  0.00    -0.324 N 
HETATM   19  C1  UNL     1      19.943  -0.643  53.431  1.00  0.00     0.245 C 
HETATM   20  O1  UNL     1      20.277   0.211  54.294  1.00  0.00    -0.268 OA
HETATM   21  H7  UNL     1      20.867  -1.643  51.767  1.00  0.00     0.169 HD
BRANCH  19  22
HETATM   22  C2  UNL     1      18.638  -1.247  53.354  1.00  0.00     0.075 C 
HETATM   23  C3  UNL     1      18.367  -2.537  53.433  1.00  0.00     0.017 C 
BRANCH  23  24
HETATM   24  C4  UNL     1      17.036  -3.124  53.353  1.00  0.00    -0.036 A 
HETATM   25  C5  UNL     1      16.698  -4.335  53.914  1.00  0.00     0.013 A 
HETATM   26  C6  UNL     1      15.430  -4.870  53.824  1.00  0.00     0.024 A 
HETATM   27  C7  UNL     1      14.441  -4.157  53.136  1.00  0.00     0.034 A 
HETATM   28 CL1  UNL     1      12.840  -4.872  53.045  1.00  0.00    -0.084 Cl
HETATM   29  C8  UNL     1      14.773  -2.952  52.577  1.00  0.00     0.024 A 
HETATM   30  C9  UNL     1      16.038  -2.450  52.683  1.00  0.00     0.013 A 
ENDBRANCH  23  24
ENDBRANCH  19  22
ENDBRANCH   1  18
TORSDOF 3
ENDMDL
MODEL 3
REMARK VINA RESULT:      -8.7      7.401     11.148
REMARK  3 active torsions:
REMARK  status: ('A' for Active; 'I' for Inactive)
REMARK    1  A    between atoms: C1_2  and  C2_3 
REMARK       I    between atoms: C1_2  and  N1_12 
REMARK    2  A    between atoms: C3_4  and  C4_5 
REMARK    3  A    between atoms: N1_12  and  C10_13 
ROOT
HETATM    1  C10 UNL     1      25.124   3.853  49.548  1.00  0.00     0.031 C 
HETATM    2  C11 UNL     1      26.367   3.385  49.345  1.00  0.00     0.015 C 
HETATM    3  C12 UNL     1      27.098   4.574  48.943  1.00  0.00     0.080 C 
HETATM    4  C13 UNL     1      28.216   5.170  48.581  1.00  0.00     0.090 A 
HETATM    5  N2  UNL     1      29.641   5.097  48.301  1.00  0.00    -0.242 NA
HETATM    6  C14 UNL     1      30.049   6.218  47.863  1.00  0.00     0.235 A 
HETATM    7  N3  UNL     1      28.916   7.047  47.842  1.00  0.00    -0.222 NA
HETATM    8  C15 UNL     1      27.867   6.493  48.236  1.00  0.00     0.157 A 
HETATM    9  N4  UNL     1      26.800   7.449  48.124  1.00  0.00    -0.327 N 
HETATM   10  C16 UNL     1      26.476   8.295  46.990  1.00  0.00     0.113 C 
HETATM   11  C17 UNL     1      25.739   9.392  47.180  1.00  0.00     0.026 C 
HETATM   12 BR1  UNL     1      25.380  10.449  45.662  1.00  0.00    -0.050 Br
HETATM   13  C18 UNL     1      25.100   9.720  48.444  1.00  0.00     0.019 C 
HETATM   14  C19 UNL     1      25.279   8.829  49.404  1.00  0.00     0.004 C 
HETATM   15  C20 UNL     1      26.055   7.519  49.317  1.00  0.00     0.137 C 
HETATM   16  C21 UNL     1      25.092   6.387  49.494  1.00  0.00     0.005 C 
HETATM   17  C22 UNL     1      24.501   5.179  49.614  1.00  0.00     0.027 C 
ENDROOT
BRANCH   1  18
HETATM   18  N1  UNL     1      24.159   2.844  49.953  1.00  0.00    -0.324 N 
HETATM   19  C1  UNL     1      23.990   2.599  51.362  1.00  0.00     0.245 C 
HETATM   20  O1  UNL     1      24.741   3.332  52.060  1.00  0.00    -0.268 OA
HETATM   21  H7  UNL     1      23.589   2.296  49.272  1.00  0.00     0.169 HD
BRANCH  19  22
HETATM   22  C2  UNL     1      23.073   1.632  51.906  1.00  0.00     0.075 C 
HETATM   23  C3  UNL     1      21.769   1.587  51.699  1.00  0.00     0.017 C 
BRANCH  23  24
HETATM   24  C4  UNL     1      20.861   0.597  52.261  1.00  0.00    -0.036 A 
HETATM   25  C5  UNL     1      21.208  -0.274  53.270  1.00  0.00     0.013 A 
HETATM   26  C6  UNL     1      20.330  -1.204  53.786  1.00  0.00     0.024 A 
HETATM   27  C7  UNL     1      19.031  -1.269  53.268  1.00  0.00     0.034 A 
HETATM   28 CL1  UNL     1      17.944  -2.466  53.952  1.00  0.00    -0.084 Cl
HETATM   29  C8  UNL     1      18.682  -0.404  52.266  1.00  0.00     0.024 A 
HETATM   30  C9  UNL     1      19.575   0.504  51.776  1.00  0.00     0.013 A 
ENDBRANCH  23  24
ENDBRANCH  19  22
ENDBRANCH   1  18
TORSDOF 3
ENDMDL
MODEL 4
REMARK VINA RESULT:      -8.7      2.033      3.485
REMARK  3 active torsions:
REMARK  status: ('A' for Active; 'I' for Inactive)
REMARK    1  A    between atoms: C1_2  and  C2_3 
REMARK       I    between atoms: C1_2  and  N1_12 
REMARK    2  A    between atoms: C3_4  and  C4_5 
REMARK    3  A    between atoms: N1_12  and  C10_13 
ROOT
HETATM    1  C10 UNL     1      20.022   1.343  51.461  1.00  0.00     0.031 C 
HETATM    2  C11 UNL     1      19.644   2.631  51.540  1.00  0.00     0.015 C 
HETATM    3  C12 UNL     1      18.195   2.539  51.580  1.00  0.00     0.080 C 
HETATM    4  C13 UNL     1      17.008   3.105  51.662  1.00  0.00     0.090 A 
HETATM    5  N2  UNL     1      16.199   4.306  51.791  1.00  0.00    -0.242 NA
HETATM    6  C14 UNL     1      14.967   4.005  51.694  1.00  0.00     0.235 A 
HETATM    7  N3  UNL     1      14.936   2.615  51.498  1.00  0.00    -0.222 NA
HETATM    8  C15 UNL     1      16.062   2.074  51.473  1.00  0.00     0.157 A 
HETATM    9  N4  UNL     1      15.867   0.671  51.234  1.00  0.00    -0.327 N 
HETATM   10  C16 UNL     1      15.034   0.046  50.223  1.00  0.00     0.113 C 
HETATM   11  C17 UNL     1      14.643  -1.220  50.387  1.00  0.00     0.026 C 
HETATM   12 BR1  UNL     1      13.545  -1.952  49.042  1.00  0.00    -0.050 Br
HETATM   13  C18 UNL     1      15.131  -2.079  51.454  1.00  0.00     0.019 C 
HETATM   14  C19 UNL     1      16.024  -1.519  52.251  1.00  0.00     0.004 C 
HETATM   15  C20 UNL     1      16.592  -0.106  52.158  1.00  0.00     0.137 C 
HETATM   16  C21 UNL     1      18.053  -0.204  51.850  1.00  0.00     0.005 C 
HETATM   17  C22 UNL     1      19.353   0.045  51.580  1.00  0.00     0.027 C 
ENDROOT
BRANCH   1  18
HETATM   18  N1  UNL     1      21.460   1.142  51.389  1.00  0.00    -0.324 N 
HETATM   19  C1  UNL     1      22.169   0.897  52.618  1.00  0.00     0.245 C 
HETATM   20  O1  UNL     1      21.398   0.895  53.613  1.00  0.00    -0.268 OA
HETATM   21  H7  UNL     1      21.994   1.167  50.492  1.00  0.00     0.169 HD
BRANCH  19  22
HETATM   22  C2  UNL     1      23.590   0.681  52.696  1.00  0.00     0.075 C 
HETATM   23  C3  UNL     1      24.226  -0.014  53.623  1.00  0.00     0.017 C 
BRANCH  23  24
HETATM   24  C4  UNL     1      25.667  -0.218  53.681  1.00  0.00    -0.036 A 
HETATM   25  C5  UNL     1      26.492   0.395  54.598  1.00  0.00     0.013 A 
HETATM   26  C6  UNL     1      27.854   0.185  54.632  1.00  0.00     0.024 A 
HETATM   27  C7  UNL     1      28.429  -0.688  53.700  1.00  0.00     0.034 A 
HETATM   28 CL1  UNL     1      30.166  -0.928  53.778  1.00  0.00    -0.084 Cl
HETATM   29  C8  UNL     1      27.612  -1.300  52.787  1.00  0.00     0.024 A 
HETATM   30  C9  UNL     1      26.267  -1.070  52.779  1.00  0.00     0.013 A 
ENDBRANCH  23  24
ENDBRANCH  19  22
ENDBRANCH   1  18
TORSDOF 3
ENDMDL
MODEL 5
REMARK VINA RESULT:      -8.6      5.353      7.197
REMARK  3 active torsions:
REMARK  status: ('A' for Active; 'I' for Inactive)
REMARK    1  A    between atoms: C1_2  and  C2_3 
REMARK       I    between atoms: C1_2  and  N1_12 
REMARK    2  A    between atoms: C3_4  and  C4_5 
REMARK    3  A    between atoms: N1_12  and  C10_13 
ROOT
HETATM    1  C10 UNL     1      24.138   2.579  50.439  1.00  0.00     0.031 C 
HETATM    2  C11 UNL     1      24.510   1.942  51.562  1.00  0.00     0.015 C 
HETATM    3  C12 UNL     1      23.257   1.406  52.061  1.00  0.00     0.080 C 
HETATM    4  C13 UNL     1      22.573   0.711  52.947  1.00  0.00     0.090 A 
HETATM    5  N2  UNL     1      22.549  -0.098  54.156  1.00  0.00    -0.242 NA
HETATM    6  C14 UNL     1      21.345  -0.365  54.466  1.00  0.00     0.235 A 
HETATM    7  N3  UNL     1      20.558   0.255  53.484  1.00  0.00    -0.222 NA
HETATM    8  C15 UNL     1      21.211   0.871  52.615  1.00  0.00     0.157 A 
HETATM    9  N4  UNL     1      20.273   1.474  51.709  1.00  0.00    -0.327 N 
HETATM   10  C16 UNL     1      19.093   2.254  52.035  1.00  0.00     0.113 C 
HETATM   11  C17 UNL     1      18.125   2.389  51.126  1.00  0.00     0.026 C 
HETATM   12 BR1  UNL     1      16.617   3.398  51.634  1.00  0.00    -0.050 Br
HETATM   13  C18 UNL     1      18.244   1.927  49.753  1.00  0.00     0.019 C 
HETATM   14  C19 UNL     1      19.407   1.376  49.451  1.00  0.00     0.004 C 
HETATM   15  C20 UNL     1      20.611   1.196  50.370  1.00  0.00     0.137 C 
HETATM   16  C21 UNL     1      21.735   2.032  49.845  1.00  0.00     0.005 C 
HETATM   17  C22 UNL     1      22.913   2.661  49.638  1.00  0.00     0.027 C 
ENDROOT
BRANCH   1  18
HETATM   18  N1  UNL     1      25.224   3.236  49.730  1.00  0.00    -0.324 N 
HETATM   19  C1  UNL     1      25.409   4.648  49.941  1.00  0.00     0.245 C 
HETATM   20  O1  UNL     1      24.562   5.119  50.744  1.00  0.00    -0.268 OA
HETATM   21  H7  UNL     1      25.868   2.731  49.082  1.00  0.00     0.169 HD
BRANCH  19  22
HETATM   22  C2  UNL     1      26.441   5.427  49.307  1.00  0.00     0.075 C 
HETATM   23  C3  UNL     1      27.544   4.959  48.751  1.00  0.00     0.017 C 
BRANCH  23  24
HETATM   24  C4  UNL     1      28.575   5.768  48.115  1.00  0.00    -0.036 A 
HETATM   25  C5  UNL     1      29.903   5.408  48.053  1.00  0.00     0.013 A 
HETATM   26  C6  UNL     1      30.860   6.192  47.445  1.00  0.00     0.024 A 
HETATM   27  C7  UNL     1      30.473   7.405  46.864  1.00  0.00     0.034 A 
HETATM   28 CL1  UNL     1      31.723   8.373  46.100  1.00  0.00    -0.084 Cl
HETATM   29  C8  UNL     1      29.154   7.767  46.922  1.00  0.00     0.024 A 
HETATM   30  C9  UNL     1      28.230   6.969  47.533  1.00  0.00     0.013 A 
ENDBRANCH  23  24
ENDBRANCH  19  22
ENDBRANCH   1  18
TORSDOF 3
ENDMDL
MODEL 6
REMARK VINA RESULT:      -8.5      7.565     11.030
REMARK  3 active torsions:
REMARK  status: ('A' for Active; 'I' for Inactive)
REMARK    1  A    between atoms: C1_2  and  C2_3 
REMARK       I    between atoms: C1_2  and  N1_12 
REMARK    2  A    between atoms: C3_4  and  C4_5 
REMARK    3  A    between atoms: N1_12  and  C10_13 
ROOT
HETATM    1  C10 UNL     1      25.034   3.112  50.228  1.00  0.00     0.031 C 
HETATM    2  C11 UNL     1      23.817   2.633  50.537  1.00  0.00     0.015 C 
HETATM    3  C12 UNL     1      24.099   1.710  51.622  1.00  0.00     0.080 C 
HETATM    4  C13 UNL     1      23.697   0.848  52.534  1.00  0.00     0.090 A 
HETATM    5  N2  UNL     1      22.614   0.134  53.192  1.00  0.00    -0.242 NA
HETATM    6  C14 UNL     1      23.095  -0.695  54.028  1.00  0.00     0.235 A 
HETATM    7  N3  UNL     1      24.489  -0.551  53.940  1.00  0.00    -0.222 NA
HETATM    8  C15 UNL     1      24.865   0.304  53.110  1.00  0.00     0.157 A 
HETATM    9  N4  UNL     1      26.302   0.310  53.111  1.00  0.00    -0.327 N 
HETATM   10  C16 UNL     1      27.199  -0.828  53.037  1.00  0.00     0.113 C 
HETATM   11  C17 UNL     1      28.460  -0.698  53.455  1.00  0.00     0.026 C 
HETATM   12 BR1  UNL     1      29.554  -2.228  53.345  1.00  0.00    -0.050 Br
HETATM   13  C18 UNL     1      29.049   0.573  53.843  1.00  0.00     0.019 C 
HETATM   14  C19 UNL     1      28.244   1.616  53.729  1.00  0.00     0.004 C 
HETATM   15  C20 UNL     1      26.803   1.621  53.228  1.00  0.00     0.137 C 
HETATM   16  C21 UNL     1      26.749   2.404  51.954  1.00  0.00     0.005 C 
HETATM   17  C22 UNL     1      26.373   3.031  50.819  1.00  0.00     0.027 C 
ENDROOT
BRANCH   1  18
HETATM   18  N1  UNL     1      25.044   4.069  49.134  1.00  0.00    -0.324 N 
HETATM   19  C1  UNL     1      24.852   5.460  49.453  1.00  0.00     0.245 C 
HETATM   20  O1  UNL     1      24.697   5.641  50.690  1.00  0.00    -0.268 OA
HETATM   21  H7  UNL     1      25.184   3.793  48.137  1.00  0.00     0.169 HD
BRANCH  19  22
HETATM   22  C2  UNL     1      24.839   6.515  48.474  1.00  0.00     0.075 C 
HETATM   23  C3  UNL     1      25.896   7.096  47.935  1.00  0.00     0.017 C 
BRANCH  23  24
HETATM   24  C4  UNL     1      25.856   8.163  46.945  1.00  0.00    -0.036 A 
HETATM   25  C5  UNL     1      24.977   8.192  45.885  1.00  0.00     0.013 A 
HETATM   26  C6  UNL     1      24.959   9.214  44.959  1.00  0.00     0.024 A 
HETATM   27  C7  UNL     1      25.868  10.270  45.098  1.00  0.00     0.034 A 
HETATM   28 CL1  UNL     1      25.812  11.551  43.899  1.00  0.00    -0.084 Cl
HETATM   29  C8  UNL     1      26.743  10.245  46.151  1.00  0.00     0.024 A 
HETATM   30  C9  UNL     1      26.736   9.218  47.050  1.00  0.00     0.013 A 
ENDBRANCH  23  24
ENDBRANCH  19  22
ENDBRANCH   1  18
TORSDOF 3
ENDMDL
MODEL 7
REMARK VINA RESULT:      -8.4      8.274     12.359
REMARK  3 active torsions:
REMARK  status: ('A' for Active; 'I' for Inactive)
REMARK    1  A    between atoms: C1_2  and  C2_3 
REMARK       I    between atoms: C1_2  and  N1_12 
REMARK    2  A    between atoms: C3_4  and  C4_5 
REMARK    3  A    between atoms: N1_12  and  C10_13 
ROOT
HETATM    1  C10 UNL     1      26.001   5.126  49.103  1.00  0.00     0.031 C 
HETATM    2  C11 UNL     1      27.036   4.308  48.845  1.00  0.00     0.015 C 
HETATM    3  C12 UNL     1      28.110   5.235  48.535  1.00  0.00     0.080 C 
HETATM    4  C13 UNL     1      29.364   5.476  48.209  1.00  0.00     0.090 A 
HETATM    5  N2  UNL     1      30.697   4.981  47.906  1.00  0.00    -0.242 NA
HETATM    6  C14 UNL     1      31.444   5.949  47.558  1.00  0.00     0.235 A 
HETATM    7  N3  UNL     1      30.630   7.091  47.621  1.00  0.00    -0.222 NA
HETATM    8  C15 UNL     1      29.455   6.866  47.981  1.00  0.00     0.157 A 
HETATM    9  N4  UNL     1      28.746   8.116  47.963  1.00  0.00    -0.327 N 
HETATM   10  C16 UNL     1      28.721   9.112  46.908  1.00  0.00     0.113 C 
HETATM   11  C17 UNL     1      28.365  10.365  47.198  1.00  0.00     0.026 C 
HETATM   12 BR1  UNL     1      28.379  11.604  45.778  1.00  0.00    -0.050 Br
HETATM   13  C18 UNL     1      27.843  10.771  48.493  1.00  0.00     0.019 C 
HETATM   14  C19 UNL     1      27.719   9.793  49.373  1.00  0.00     0.004 C 
HETATM   15  C20 UNL     1      28.043   8.317  49.167  1.00  0.00     0.137 C 
HETATM   16  C21 UNL     1      26.771   7.535  49.261  1.00  0.00     0.005 C 
HETATM   17  C22 UNL     1      25.827   6.570  49.287  1.00  0.00     0.027 C 
ENDROOT
BRANCH   1  18
HETATM   18  N1  UNL     1      24.761   4.442  49.435  1.00  0.00    -0.324 N 
HETATM   19  C1  UNL     1      24.764   3.554  50.568  1.00  0.00     0.245 C 
HETATM   20  O1  UNL     1      25.893   3.503  51.123  1.00  0.00    -0.268 OA
HETATM   21  H7  UNL     1      23.879   4.568  48.891  1.00  0.00     0.169 HD
BRANCH  19  22
HETATM   22  C2  UNL     1      23.611   2.813  51.010  1.00  0.00     0.075 C 
HETATM   23  C3  UNL     1      23.622   1.705  51.729  1.00  0.00     0.017 C 
BRANCH  23  24
HETATM   24  C4  UNL     1      22.441   0.973  52.165  1.00  0.00    -0.036 A 
HETATM   25  C5  UNL     1      22.363   0.283  53.354  1.00  0.00     0.013 A 
HETATM   26  C6  UNL     1      21.232  -0.402  53.745  1.00  0.00     0.024 A 
HETATM   27  C7  UNL     1      20.113  -0.400  52.904  1.00  0.00     0.034 A 
HETATM   28 CL1  UNL     1      18.694  -1.284  53.439  1.00  0.00    -0.084 Cl
HETATM   29  C8  UNL     1      20.186   0.286  51.721  1.00  0.00     0.024 A 
HETATM   30  C9  UNL     1      21.321   0.954  51.362  1.00  0.00     0.013 A 
ENDBRANCH  23  24
ENDBRANCH  19  22
ENDBRANCH   1  18
TORSDOF 3
ENDMDL
MODEL 8
REMARK VINA RESULT:      -8.3      8.721     12.086
REMARK  3 active torsions:
REMARK  status: ('A' for Active; 'I' for Inactive)
REMARK    1  A    between atoms: C1_2  and  C2_3 
REMARK       I    between atoms: C1_2  and  N1_12 
REMARK    2  A    between atoms: C3_4  and  C4_5 
REMARK    3  A    between atoms: N1_12  and  C10_13 
ROOT
HETATM    1  C10 UNL     1      25.338   5.839  48.729  1.00  0.00     0.031 C 
HETATM    2  C11 UNL     1      24.342   6.487  48.101  1.00  0.00     0.015 C 
HETATM    3  C12 UNL     1      25.028   7.603  47.474  1.00  0.00     0.080 C 
HETATM    4  C13 UNL     1      25.018   8.684  46.720  1.00  0.00     0.090 A 
HETATM    5  N2  UNL     1      24.283   9.627  45.892  1.00  0.00    -0.242 NA
HETATM    6  C14 UNL     1      25.052  10.576  45.540  1.00  0.00     0.235 A 
HETATM    7  N3  UNL     1      26.296  10.286  46.122  1.00  0.00    -0.222 NA
HETATM    8  C15 UNL     1      26.316   9.233  46.794  1.00  0.00     0.157 A 
HETATM    9  N4  UNL     1      27.635   9.092  47.347  1.00  0.00    -0.327 N 
HETATM   10  C16 UNL     1      28.423  10.095  48.040  1.00  0.00     0.113 C 
HETATM   11  C17 UNL     1      29.746   9.946  48.125  1.00  0.00     0.026 C 
HETATM   12 BR1  UNL     1      30.699  11.302  49.022  1.00  0.00    -0.050 Br
HETATM   13  C18 UNL     1      30.448   8.748  47.694  1.00  0.00     0.019 C 
HETATM   14  C19 UNL     1      29.669   7.787  47.227  1.00  0.00     0.004 C 
HETATM   15  C20 UNL     1      28.148   7.802  47.113  1.00  0.00     0.137 C 
HETATM   16  C21 UNL     1      27.595   6.758  48.032  1.00  0.00     0.005 C 
HETATM   17  C22 UNL     1      26.801   5.926  48.741  1.00  0.00     0.027 C 
ENDROOT
BRANCH   1  18
HETATM   18  N1  UNL     1      24.917   4.660  49.469  1.00  0.00    -0.324 N 
HETATM   19  C1  UNL     1      24.421   4.846  50.808  1.00  0.00     0.245 C 
HETATM   20  O1  UNL     1      24.429   6.059  51.147  1.00  0.00    -0.268 OA
HETATM   21  H7  UNL     1      24.959   3.695  49.073  1.00  0.00     0.169 HD
BRANCH  19  22
HETATM   22  C2  UNL     1      23.971   3.772  51.654  1.00  0.00     0.075 C 
HETATM   23  C3  UNL     1      24.191   2.483  51.467  1.00  0.00     0.017 C 
BRANCH  23  24
HETATM   24  C4  UNL     1      23.724   1.415  52.339  1.00  0.00    -0.036 A 
HETATM   25  C5  UNL     1      24.563   0.548  53.005  1.00  0.00     0.013 A 
HETATM   26  C6  UNL     1      24.096  -0.456  53.826  1.00  0.00     0.024 A 
HETATM   27  C7  UNL     1      22.714  -0.607  53.996  1.00  0.00     0.034 A 
HETATM   28 CL1  UNL     1      22.161  -1.897  55.049  1.00  0.00    -0.084 Cl
HETATM   29  C8  UNL     1      21.877   0.253  53.336  1.00  0.00     0.024 A 
HETATM   30  C9  UNL     1      22.371   1.237  52.529  1.00  0.00     0.013 A 
ENDBRANCH  23  24
ENDBRANCH  19  22
ENDBRANCH   1  18
TORSDOF 3
ENDMDL
MODEL 9
REMARK VINA RESULT:      -8.2     10.670     14.852
REMARK  3 active torsions:
REMARK  status: ('A' for Active; 'I' for Inactive)
REMARK    1  A    between atoms: C1_2  and  C2_3 
REMARK       I    between atoms: C1_2  and  N1_12 
REMARK    2  A    between atoms: C3_4  and  C4_5 
REMARK    3  A    between atoms: N1_12  and  C10_13 
ROOT
HETATM    1  C10 UNL     1      29.153   7.113  48.248  1.00  0.00     0.031 C 
HETATM    2  C11 UNL     1      29.855   6.662  47.194  1.00  0.00     0.015 C 
HETATM    3  C12 UNL     1      30.529   7.857  46.720  1.00  0.00     0.080 C 
HETATM    4  C13 UNL     1      31.352   8.460  45.885  1.00  0.00     0.090 A 
HETATM    5  N2  UNL     1      32.264   8.389  44.754  1.00  0.00    -0.242 NA
HETATM    6  C14 UNL     1      32.650   9.559  44.443  1.00  0.00     0.235 A 
HETATM    7  N3  UNL     1      32.009  10.419  45.348  1.00  0.00    -0.222 NA
HETATM    8  C15 UNL     1      31.270   9.839  46.172  1.00  0.00     0.157 A 
HETATM    9  N4  UNL     1      30.664  10.846  47.000  1.00  0.00    -0.327 N 
HETATM   10  C16 UNL     1      30.010  12.071  46.579  1.00  0.00     0.113 C 
HETATM   11  C17 UNL     1      29.871  13.072  47.451  1.00  0.00     0.026 C 
HETATM   12 BR1  UNL     1      29.032  14.638  46.822  1.00  0.00    -0.050 Br
HETATM   13  C18 UNL     1      30.200  12.958  48.863  1.00  0.00     0.019 C 
HETATM   14  C19 UNL     1      30.629  11.766  49.238  1.00  0.00     0.004 C 
HETATM   15  C20 UNL     1      30.795  10.526  48.365  1.00  0.00     0.137 C 
HETATM   16  C21 UNL     1      29.831   9.483  48.836  1.00  0.00     0.005 C 
HETATM   17  C22 UNL     1      29.097   8.363  49.011  1.00  0.00     0.027 C 
ENDROOT
BRANCH   1  18
HETATM   18  N1  UNL     1      28.353   6.100  48.917  1.00  0.00    -0.324 N 
HETATM   19  C1  UNL     1      26.938   6.073  48.650  1.00  0.00     0.245 C 
HETATM   20  O1  UNL     1      26.596   6.974  47.840  1.00  0.00    -0.268 OA
HETATM   21  H7  UNL     1      28.758   5.399  49.576  1.00  0.00     0.169 HD
BRANCH  19  22
HETATM   22  C2  UNL     1      26.027   5.128  49.241  1.00  0.00     0.075 C 
HETATM   23  C3  UNL     1      26.354   4.017  49.875  1.00  0.00     0.017 C 
BRANCH  23  24
HETATM   24  C4  UNL     1      25.412   3.076  50.465  1.00  0.00    -0.036 A 
HETATM   25  C5  UNL     1      24.073   3.031  50.145  1.00  0.00     0.013 A 
HETATM   26  C6  UNL     1      23.200   2.130  50.717  1.00  0.00     0.024 A 
HETATM   27  C7  UNL     1      23.689   1.220  51.663  1.00  0.00     0.034 A 
HETATM   28 CL1  UNL     1      22.545   0.090  52.368  1.00  0.00    -0.084 Cl
HETATM   29  C8  UNL     1      25.019   1.261  51.983  1.00  0.00     0.024 A 
HETATM   30  C9  UNL     1      25.858   2.166  51.399  1.00  0.00     0.013 A 
ENDBRANCH  23  24
ENDBRANCH  19  22
ENDBRANCH   1  18
TORSDOF 3
ENDMDL
