MODEL 1
REMARK VINA RESULT:      -8.9      0.000      0.000
REMARK  3 active torsions:
REMARK  status: ('A' for Active; 'I' for Inactive)
REMARK    1  A    between atoms: C4_4  and  C5_5 
REMARK    2  A    between atoms: N2_11  and  C10_12 
REMARK    3  A    between atoms: C11_14  and  O1_15 
ROOT
HETATM    1  C1  UNL     1      22.829   1.064  50.984  1.00  0.00     0.044 C 
HETATM    2  C2  UNL     1      23.961   1.789  51.563  1.00  0.00    -0.070 C 
HETATM    3  C3  UNL     1      24.407   1.417  52.735  1.00  0.00     0.000 C 
HETATM    4  C4  UNL     1      23.847   0.324  53.524  1.00  0.00     0.092 C 
HETATM    5  N1  UNL     1      24.887  -0.243  54.064  1.00  0.00    -0.169 NA
HETATM    6  N2  UNL     1      26.080   0.375  53.713  1.00  0.00    -0.236 N 
HETATM    7  C13 UNL     1      25.564   1.760  53.610  1.00  0.00     0.151 C 
HETATM    8  C14 UNL     1      26.515   2.678  52.970  1.00  0.00     0.059 C 
HETATM    9  C15 UNL     1      26.769   2.558  51.543  1.00  0.00    -0.028 C 
HETATM   10  C16 UNL     1      25.958   2.640  50.468  1.00  0.00    -0.026 C 
HETATM   11  C17 UNL     1      24.512   2.905  50.746  1.00  0.00     0.061 C 
ENDROOT
BRANCH   6  12
HETATM   12  C10 UNL     1      27.246  -0.417  53.586  1.00  0.00     0.192 A 
HETATM   13  N3  UNL     1      27.336  -1.565  53.356  1.00  0.00    -0.198 NA
HETATM   14  C11 UNL     1      28.457  -2.260  53.248  1.00  0.00     0.171 A 
HETATM   15  C12 UNL     1      29.703  -1.554  53.428  1.00  0.00     0.111 A 
HETATM   16  S1  UNL     1      29.037   0.176  53.760  1.00  0.00    -0.058 SA
BRANCH  14  17
HETATM   17  O1  UNL     1      28.520  -3.639  52.970  1.00  0.00    -0.344 OA
HETATM   18  H9  UNL     1      28.207  -4.018  52.084  1.00  0.00     0.219 HD
ENDBRANCH  14  17
ENDBRANCH   6  12
BRANCH   4  19
HETATM   19  C5  UNL     1      22.377   0.089  53.701  1.00  0.00    -0.024 A 
HETATM   20  C6  UNL     1      22.195  -1.233  53.928  1.00  0.00     0.009 A 
HETATM   21  C7  UNL     1      20.830  -1.646  54.135  1.00  0.00    -0.003 A 
HETATM   22  C8  UNL     1      20.155  -0.530  54.043  1.00  0.00    -0.022 A 
HETATM   23  C9  UNL     1      21.037   0.655  53.780  1.00  0.00     0.068 A 
ENDBRANCH   4  19
TORSDOF 3
ENDMDL
MODEL 2
REMARK VINA RESULT:      -8.2      3.592      6.593
REMARK  3 active torsions:
REMARK  status: ('A' for Active; 'I' for Inactive)
REMARK    1  A    between atoms: C4_4  and  C5_5 
REMARK    2  A    between atoms: N2_11  and  C10_12 
REMARK    3  A    between atoms: C11_14  and  O1_15 
ROOT
HETATM    1  C1  UNL     1      24.888   6.939  50.776  1.00  0.00     0.044 C 
HETATM    2  C2  UNL     1      24.332   5.584  50.775  1.00  0.00    -0.070 C 
HETATM    3  C3  UNL     1      25.027   4.624  50.222  1.00  0.00     0.000 C 
HETATM    4  C4  UNL     1      26.329   4.806  49.587  1.00  0.00     0.092 C 
HETATM    5  N1  UNL     1      26.995   3.737  49.915  1.00  0.00    -0.169 NA
HETATM    6  N2  UNL     1      26.255   2.861  50.700  1.00  0.00    -0.236 N 
HETATM    7  C13 UNL     1      24.924   3.142  50.109  1.00  0.00     0.151 C 
HETATM    8  C14 UNL     1      23.819   2.583  50.898  1.00  0.00     0.059 C 
HETATM    9  C15 UNL     1      23.489   3.180  52.182  1.00  0.00    -0.028 C 
HETATM   10  C16 UNL     1      23.113   4.428  52.531  1.00  0.00    -0.026 C 
HETATM   11  C17 UNL     1      23.000   5.422  51.420  1.00  0.00     0.061 C 
ENDROOT
BRANCH   6  12
HETATM   12  C10 UNL     1      26.924   2.089  51.678  1.00  0.00     0.192 A 
HETATM   13  N3  UNL     1      27.805   2.403  52.389  1.00  0.00    -0.198 NA
HETATM   14  C11 UNL     1      28.400   1.638  53.290  1.00  0.00     0.171 A 
HETATM   15  C12 UNL     1      27.934   0.279  53.427  1.00  0.00     0.111 A 
HETATM   16  S1  UNL     1      26.576   0.281  52.121  1.00  0.00    -0.058 SA
BRANCH  14  17
HETATM   17  O1  UNL     1      29.455   2.056  54.124  1.00  0.00    -0.344 OA
HETATM   18  H9  UNL     1      30.062   1.391  54.587  1.00  0.00     0.219 HD
ENDBRANCH  14  17
ENDBRANCH   6  12
BRANCH   4  19
HETATM   19  C5  UNL     1      26.663   5.949  48.676  1.00  0.00    -0.024 A 
HETATM   20  C6  UNL     1      27.988   5.888  48.406  1.00  0.00     0.009 A 
HETATM   21  C7  UNL     1      28.491   6.913  47.526  1.00  0.00    -0.003 A 
HETATM   22  C8  UNL     1      27.429   7.618  47.239  1.00  0.00    -0.022 A 
HETATM   23  C9  UNL     1      26.191   7.092  47.905  1.00  0.00     0.068 A 
ENDBRANCH   4  19
TORSDOF 3
ENDMDL
MODEL 3
REMARK VINA RESULT:      -7.8      1.517      1.837
REMARK  3 active torsions:
REMARK  status: ('A' for Active; 'I' for Inactive)
REMARK    1  A    between atoms: C4_4  and  C5_5 
REMARK    2  A    between atoms: N2_11  and  C10_12 
REMARK    3  A    between atoms: C11_14  and  O1_15 
ROOT
HETATM    1  C1  UNL     1      21.778   1.162  49.638  1.00  0.00     0.044 C 
HETATM    2  C2  UNL     1      22.705   2.020  50.378  1.00  0.00    -0.070 C 
HETATM    3  C3  UNL     1      22.954   1.736  51.631  1.00  0.00     0.000 C 
HETATM    4  C4  UNL     1      22.360   0.619  52.359  1.00  0.00     0.092 C 
HETATM    5  N1  UNL     1      23.327   0.180  53.112  1.00  0.00    -0.169 NA
HETATM    6  N2  UNL     1      24.501   0.905  52.957  1.00  0.00    -0.236 N 
HETATM    7  C13 UNL     1      23.885   2.226  52.686  1.00  0.00     0.151 C 
HETATM    8  C14 UNL     1      24.849   3.215  52.186  1.00  0.00     0.059 C 
HETATM    9  C15 UNL     1      25.380   3.072  50.840  1.00  0.00    -0.028 C 
HETATM   10  C16 UNL     1      24.784   3.034  49.630  1.00  0.00    -0.026 C 
HETATM   11  C17 UNL     1      23.293   3.158  49.620  1.00  0.00     0.061 C 
ENDROOT
BRANCH   6  12
HETATM   12  C10 UNL     1      25.740   0.235  53.091  1.00  0.00     0.192 A 
HETATM   13  N3  UNL     1      26.000  -0.886  52.857  1.00  0.00    -0.198 NA
HETATM   14  C11 UNL     1      27.180  -1.467  53.002  1.00  0.00     0.171 A 
HETATM   15  C12 UNL     1      28.269  -0.657  53.495  1.00  0.00     0.111 A 
HETATM   16  S1  UNL     1      27.368   0.983  53.705  1.00  0.00    -0.058 SA
BRANCH  14  17
HETATM   17  O1  UNL     1      27.449  -2.818  52.709  1.00  0.00    -0.344 OA
HETATM   18  H9  UNL     1      27.846  -3.443  53.400  1.00  0.00     0.219 HD
ENDBRANCH  14  17
ENDBRANCH   6  12
BRANCH   4  19
HETATM   19  C5  UNL     1      20.912   0.240  52.272  1.00  0.00    -0.024 A 
HETATM   20  C6  UNL     1      20.603  -0.466  53.386  1.00  0.00     0.009 A 
HETATM   21  C7  UNL     1      19.235  -0.909  53.481  1.00  0.00    -0.003 A 
HETATM   22  C8  UNL     1      18.686  -0.445  52.390  1.00  0.00    -0.022 A 
HETATM   23  C9  UNL     1      19.656   0.320  51.538  1.00  0.00     0.068 A 
ENDBRANCH   4  19
TORSDOF 3
ENDMDL
MODEL 4
REMARK VINA RESULT:      -7.8      4.416      6.022
REMARK  3 active torsions:
REMARK  status: ('A' for Active; 'I' for Inactive)
REMARK    1  A    between atoms: C4_4  and  C5_5 
REMARK    2  A    between atoms: N2_11  and  C10_12 
REMARK    3  A    between atoms: C11_14  and  O1_15 
ROOT
HETATM    1  C1  UNL     1      25.136   0.902  53.366  1.00  0.00     0.044 C 
HETATM    2  C2  UNL     1      25.152   1.412  51.994  1.00  0.00    -0.070 C 
HETATM    3  C3  UNL     1      24.012   1.708  51.424  1.00  0.00     0.000 C 
HETATM    4  C4  UNL     1      22.707   1.556  52.060  1.00  0.00     0.092 C 
HETATM    5  N1  UNL     1      22.032   2.592  51.651  1.00  0.00    -0.169 NA
HETATM    6  N2  UNL     1      22.764   3.410  50.800  1.00  0.00    -0.236 N 
HETATM    7  C13 UNL     1      23.574   2.350  50.153  1.00  0.00     0.151 C 
HETATM    8  C14 UNL     1      24.692   2.885  49.365  1.00  0.00     0.059 C 
HETATM    9  C15 UNL     1      25.828   3.474  50.053  1.00  0.00    -0.028 C 
HETATM   10  C16 UNL     1      26.697   2.977  50.958  1.00  0.00    -0.026 C 
HETATM   11  C17 UNL     1      26.493   1.551  51.361  1.00  0.00     0.061 C 
ENDROOT
BRANCH   6  12
HETATM   12  C10 UNL     1      22.530   4.805  50.826  1.00  0.00     0.192 A 
HETATM   13  N3  UNL     1      23.280   5.674  51.071  1.00  0.00    -0.198 NA
HETATM   14  C11 UNL     1      23.008   6.969  51.084  1.00  0.00     0.171 A 
HETATM   15  C12 UNL     1      21.659   7.373  50.767  1.00  0.00     0.111 A 
HETATM   16  S1  UNL     1      20.889   5.680  50.465  1.00  0.00    -0.058 SA
BRANCH  14  17
HETATM   17  O1  UNL     1      23.941   7.980  51.384  1.00  0.00    -0.344 OA
HETATM   18  H9  UNL     1      24.261   8.145  52.331  1.00  0.00     0.219 HD
ENDBRANCH  14  17
ENDBRANCH   6  12
BRANCH   4  19
HETATM   19  C5  UNL     1      22.307   0.362  52.873  1.00  0.00    -0.024 A 
HETATM   20  C6  UNL     1      21.457   0.786  53.838  1.00  0.00     0.009 A 
HETATM   21  C7  UNL     1      20.954  -0.238  54.718  1.00  0.00    -0.003 A 
HETATM   22  C8  UNL     1      21.511  -1.331  54.265  1.00  0.00    -0.022 A 
HETATM   23  C9  UNL     1      22.391  -1.078  53.076  1.00  0.00     0.068 A 
ENDBRANCH   4  19
TORSDOF 3
ENDMDL
MODEL 5
REMARK VINA RESULT:      -7.5      4.190      6.583
REMARK  3 active torsions:
REMARK  status: ('A' for Active; 'I' for Inactive)
REMARK    1  A    between atoms: C4_4  and  C5_5 
REMARK    2  A    between atoms: N2_11  and  C10_12 
REMARK    3  A    between atoms: C11_14  and  O1_15 
ROOT
HETATM    1  C1  UNL     1      23.044  -0.822  53.335  1.00  0.00     0.044 C 
HETATM    2  C2  UNL     1      22.310   0.441  53.238  1.00  0.00    -0.070 C 
HETATM    3  C3  UNL     1      22.925   1.485  52.747  1.00  0.00     0.000 C 
HETATM    4  C4  UNL     1      24.311   1.488  52.290  1.00  0.00     0.092 C 
HETATM    5  N1  UNL     1      24.297   2.253  51.236  1.00  0.00    -0.169 NA
HETATM    6  N2  UNL     1      23.035   2.762  50.958  1.00  0.00    -0.236 N 
HETATM    7  C13 UNL     1      22.553   2.874  52.355  1.00  0.00     0.151 C 
HETATM    8  C14 UNL     1      21.109   3.127  52.443  1.00  0.00     0.059 C 
HETATM    9  C15 UNL     1      20.179   2.064  52.099  1.00  0.00    -0.028 C 
HETATM   10  C16 UNL     1      19.996   0.823  52.597  1.00  0.00    -0.026 C 
HETATM   11  C17 UNL     1      20.900   0.418  53.718  1.00  0.00     0.061 C 
ENDROOT
BRANCH   6  12
HETATM   12  C10 UNL     1      22.669   2.978  49.608  1.00  0.00     0.192 A 
HETATM   13  N3  UNL     1      22.786   3.950  48.959  1.00  0.00    -0.198 NA
HETATM   14  C11 UNL     1      22.424   4.102  47.696  1.00  0.00     0.171 A 
HETATM   15  C12 UNL     1      21.824   2.969  47.031  1.00  0.00     0.111 A 
HETATM   16  S1  UNL     1      21.862   1.722  48.442  1.00  0.00    -0.058 SA
BRANCH  14  17
HETATM   17  O1  UNL     1      22.583   5.288  46.954  1.00  0.00    -0.344 OA
HETATM   18  H9  UNL     1      22.895   5.274  45.990  1.00  0.00     0.219 HD
ENDBRANCH  14  17
ENDBRANCH   6  12
BRANCH   4  19
HETATM   19  C5  UNL     1      25.437   0.827  53.027  1.00  0.00    -0.024 A 
HETATM   20  C6  UNL     1      26.193   0.166  52.120  1.00  0.00     0.009 A 
HETATM   21  C7  UNL     1      27.339  -0.527  52.653  1.00  0.00    -0.003 A 
HETATM   22  C8  UNL     1      27.285  -0.267  53.933  1.00  0.00    -0.022 A 
HETATM   23  C9  UNL     1      26.118   0.603  54.296  1.00  0.00     0.068 A 
ENDBRANCH   4  19
TORSDOF 3
ENDMDL
MODEL 6
REMARK VINA RESULT:      -7.3      3.981      6.367
REMARK  3 active torsions:
REMARK  status: ('A' for Active; 'I' for Inactive)
REMARK    1  A    between atoms: C4_4  and  C5_5 
REMARK    2  A    between atoms: N2_11  and  C10_12 
REMARK    3  A    between atoms: C11_14  and  O1_15 
ROOT
HETATM    1  C1  UNL     1      24.457   3.153  53.470  1.00  0.00     0.044 C 
HETATM    2  C2  UNL     1      23.739   3.021  52.200  1.00  0.00    -0.070 C 
HETATM    3  C3  UNL     1      23.400   1.824  51.797  1.00  0.00     0.000 C 
HETATM    4  C4  UNL     1      23.695   0.593  52.523  1.00  0.00     0.092 C 
HETATM    5  N1  UNL     1      22.634  -0.141  52.350  1.00  0.00    -0.169 NA
HETATM    6  N2  UNL     1      21.667   0.485  51.573  1.00  0.00    -0.236 N 
HETATM    7  C13 UNL     1      22.584   1.246  50.691  1.00  0.00     0.151 C 
HETATM    8  C14 UNL     1      21.893   2.269  49.895  1.00  0.00     0.059 C 
HETATM    9  C15 UNL     1      21.377   3.457  50.555  1.00  0.00    -0.028 C 
HETATM   10  C16 UNL     1      21.978   4.422  51.282  1.00  0.00    -0.026 C 
HETATM   11  C17 UNL     1      23.456   4.288  51.472  1.00  0.00     0.061 C 
ENDROOT
BRANCH   6  12
HETATM   12  C10 UNL     1      20.303   0.226  51.842  1.00  0.00     0.192 A 
HETATM   13  N3  UNL     1      19.824  -0.325  52.762  1.00  0.00    -0.198 NA
HETATM   14  C11 UNL     1      18.535  -0.544  52.965  1.00  0.00     0.171 A 
HETATM   15  C12 UNL     1      17.609  -0.064  51.967  1.00  0.00     0.111 A 
HETATM   16  S1  UNL     1      18.827   0.709  50.756  1.00  0.00    -0.058 SA
BRANCH  14  17
HETATM   17  O1  UNL     1      18.003  -1.210  54.086  1.00  0.00    -0.344 OA
HETATM   18  H9  UNL     1      17.991  -0.781  55.003  1.00  0.00     0.219 HD
ENDBRANCH  14  17
ENDBRANCH   6  12
BRANCH   4  19
HETATM   19  C5  UNL     1      25.015   0.300  53.172  1.00  0.00    -0.024 A 
HETATM   20  C6  UNL     1      25.940   0.182  52.191  1.00  0.00     0.009 A 
HETATM   21  C7  UNL     1      27.284  -0.090  52.634  1.00  0.00    -0.003 A 
HETATM   22  C8  UNL     1      27.176  -0.129  53.936  1.00  0.00    -0.022 A 
HETATM   23  C9  UNL     1      25.772   0.120  54.404  1.00  0.00     0.068 A 
ENDBRANCH   4  19
TORSDOF 3
ENDMDL
MODEL 7
REMARK VINA RESULT:      -7.1      5.343      7.235
REMARK  3 active torsions:
REMARK  status: ('A' for Active; 'I' for Inactive)
REMARK    1  A    between atoms: C4_4  and  C5_5 
REMARK    2  A    between atoms: N2_11  and  C10_12 
REMARK    3  A    between atoms: C11_14  and  O1_15 
ROOT
HETATM    1  C1  UNL     1      23.915   2.428  52.481  1.00  0.00     0.044 C 
HETATM    2  C2  UNL     1      23.660   2.357  51.041  1.00  0.00    -0.070 C 
HETATM    3  C3  UNL     1      22.617   1.686  50.624  1.00  0.00     0.000 C 
HETATM    4  C4  UNL     1      21.682   0.985  51.498  1.00  0.00     0.092 C 
HETATM    5  N1  UNL     1      20.520   1.184  50.945  1.00  0.00    -0.169 NA
HETATM    6  N2  UNL     1      20.599   1.944  49.785  1.00  0.00    -0.236 N 
HETATM    7  C13 UNL     1      21.924   1.464  49.323  1.00  0.00     0.151 C 
HETATM    8  C14 UNL     1      22.477   2.277  48.233  1.00  0.00     0.059 C 
HETATM    9  C15 UNL     1      22.949   3.622  48.517  1.00  0.00    -0.028 C 
HETATM   10  C16 UNL     1      23.898   4.092  49.355  1.00  0.00    -0.026 C 
HETATM   11  C17 UNL     1      24.631   3.071  50.167  1.00  0.00     0.061 C 
ENDROOT
BRANCH   6  12
HETATM   12  C10 UNL     1      19.530   2.813  49.465  1.00  0.00     0.192 A 
HETATM   13  N3  UNL     1      18.814   3.399  50.188  1.00  0.00    -0.198 NA
HETATM   14  C11 UNL     1      17.823   4.202  49.836  1.00  0.00     0.171 A 
HETATM   15  C12 UNL     1      17.583   4.389  48.424  1.00  0.00     0.111 A 
HETATM   16  S1  UNL     1      18.939   3.283  47.727  1.00  0.00    -0.058 SA
BRANCH  14  17
HETATM   17  O1  UNL     1      16.987   4.886  50.739  1.00  0.00    -0.344 OA
HETATM   18  H9  UNL     1      16.045   4.570  50.935  1.00  0.00     0.219 HD
ENDBRANCH  14  17
ENDBRANCH   6  12
BRANCH   4  19
HETATM   19  C5  UNL     1      22.099   0.146  52.668  1.00  0.00    -0.024 A 
HETATM   20  C6  UNL     1      21.191   0.333  53.655  1.00  0.00     0.009 A 
HETATM   21  C7  UNL     1      21.427  -0.411  54.866  1.00  0.00    -0.003 A 
HETATM   22  C8  UNL     1      22.515  -1.087  54.603  1.00  0.00    -0.022 A 
HETATM   23  C9  UNL     1      23.035  -0.825  53.220  1.00  0.00     0.068 A 
ENDBRANCH   4  19
TORSDOF 3
ENDMDL
MODEL 8
REMARK VINA RESULT:      -7.1      7.666      9.611
REMARK  3 active torsions:
REMARK  status: ('A' for Active; 'I' for Inactive)
REMARK    1  A    between atoms: C4_4  and  C5_5 
REMARK    2  A    between atoms: N2_11  and  C10_12 
REMARK    3  A    between atoms: C11_14  and  O1_15 
ROOT
HETATM    1  C1  UNL     1      27.922   8.010  46.435  1.00  0.00     0.044 C 
HETATM    2  C2  UNL     1      29.138   8.387  47.159  1.00  0.00    -0.070 C 
HETATM    3  C3  UNL     1      29.635   7.544  48.027  1.00  0.00     0.000 C 
HETATM    4  C4  UNL     1      29.055   6.242  48.339  1.00  0.00     0.092 C 
HETATM    5  N1  UNL     1      30.087   5.464  48.501  1.00  0.00    -0.169 NA
HETATM    6  N2  UNL     1      31.294   6.130  48.332  1.00  0.00    -0.236 N 
HETATM    7  C13 UNL     1      30.869   7.450  48.858  1.00  0.00     0.151 C 
HETATM    8  C14 UNL     1      31.835   8.518  48.572  1.00  0.00     0.059 C 
HETATM    9  C15 UNL     1      31.985   8.995  47.207  1.00  0.00    -0.028 C 
HETATM   10  C16 UNL     1      31.111   9.548  46.340  1.00  0.00    -0.026 C 
HETATM   11  C17 UNL     1      29.709   9.723  46.831  1.00  0.00     0.061 C 
ENDROOT
BRANCH   6  12
HETATM   12  C10 UNL     1      32.391   5.425  47.785  1.00  0.00     0.192 A 
HETATM   13  N3  UNL     1      33.172   4.737  48.330  1.00  0.00    -0.198 NA
HETATM   14  C11 UNL     1      34.186   4.099  47.769  1.00  0.00     0.171 A 
HETATM   15  C12 UNL     1      34.368   4.251  46.345  1.00  0.00     0.111 A 
HETATM   16  S1  UNL     1      32.923   5.399  45.967  1.00  0.00    -0.058 SA
BRANCH  14  17
HETATM   17  O1  UNL     1      35.100   3.282  48.461  1.00  0.00    -0.344 OA
HETATM   18  H9  UNL     1      34.992   2.275  48.496  1.00  0.00     0.219 HD
ENDBRANCH  14  17
ENDBRANCH   6  12
BRANCH   4  19
HETATM   19  C5  UNL     1      27.588   6.005  48.535  1.00  0.00    -0.024 A 
HETATM   20  C6  UNL     1      27.421   4.706  48.878  1.00  0.00     0.009 A 
HETATM   21  C7  UNL     1      26.061   4.296  49.119  1.00  0.00    -0.003 A 
HETATM   22  C8  UNL     1      25.373   5.390  48.926  1.00  0.00    -0.022 A 
HETATM   23  C9  UNL     1      26.240   6.559  48.560  1.00  0.00     0.068 A 
ENDBRANCH   4  19
TORSDOF 3
ENDMDL
MODEL 9
REMARK VINA RESULT:      -7.1      4.626      6.069
REMARK  3 active torsions:
REMARK  status: ('A' for Active; 'I' for Inactive)
REMARK    1  A    between atoms: C4_4  and  C5_5 
REMARK    2  A    between atoms: N2_11  and  C10_12 
REMARK    3  A    between atoms: C11_14  and  O1_15 
ROOT
HETATM    1  C1  UNL     1      23.748   1.434  53.185  1.00  0.00     0.044 C 
HETATM    2  C2  UNL     1      24.479   1.746  51.955  1.00  0.00    -0.070 C 
HETATM    3  C3  UNL     1      23.886   2.469  51.041  1.00  0.00     0.000 C 
HETATM    4  C4  UNL     1      22.526   2.989  51.153  1.00  0.00     0.092 C 
HETATM    5  N1  UNL     1      22.593   4.173  50.615  1.00  0.00    -0.169 NA
HETATM    6  N2  UNL     1      23.866   4.482  50.152  1.00  0.00    -0.236 N 
HETATM    7  C13 UNL     1      24.271   3.113  49.754  1.00  0.00     0.151 C 
HETATM    8  C14 UNL     1      25.707   3.004  49.465  1.00  0.00     0.059 C 
HETATM    9  C15 UNL     1      26.660   3.077  50.560  1.00  0.00    -0.028 C 
HETATM   10  C16 UNL     1      26.822   2.331  51.673  1.00  0.00    -0.026 C 
HETATM   11  C17 UNL     1      25.861   1.199  51.858  1.00  0.00     0.061 C 
ENDROOT
BRANCH   6  12
HETATM   12  C10 UNL     1      24.302   5.827  50.206  1.00  0.00     0.192 A 
HETATM   13  N3  UNL     1      25.398   6.248  50.170  1.00  0.00    -0.198 NA
HETATM   14  C11 UNL     1      25.754   7.522  50.226  1.00  0.00     0.171 A 
HETATM   15  C12 UNL     1      24.704   8.506  50.343  1.00  0.00     0.111 A 
HETATM   16  S1  UNL     1      23.206   7.364  50.359  1.00  0.00    -0.058 SA
BRANCH  14  17
HETATM   17  O1  UNL     1      27.083   7.984  50.179  1.00  0.00    -0.344 OA
HETATM   18  H9  UNL     1      27.704   7.898  50.974  1.00  0.00     0.219 HD
ENDBRANCH  14  17
ENDBRANCH   6  12
BRANCH   4  19
HETATM   19  C5  UNL     1      21.367   2.192  51.669  1.00  0.00    -0.024 A 
HETATM   20  C6  UNL     1      21.089   1.229  50.759  1.00  0.00     0.009 A 
HETATM   21  C7  UNL     1      19.998   0.350  51.097  1.00  0.00    -0.003 A 
HETATM   22  C8  UNL     1      19.602   0.788  52.263  1.00  0.00    -0.022 A 
HETATM   23  C9  UNL     1      20.410   1.957  52.744  1.00  0.00     0.068 A 
ENDBRANCH   4  19
TORSDOF 3
ENDMDL
