MODEL 1
REMARK VINA RESULT:      -6.9      0.000      0.000
REMARK  4 active torsions:
REMARK  status: ('A' for Active; 'I' for Inactive)
REMARK    1  A    between atoms: C5_6  and  C6_7 
REMARK    2  A    between atoms: C6_7  and  C7_8 
REMARK    3  A    between atoms: C9_11  and  N2_12 
REMARK    4  A    between atoms: C15_20  and  N4_21 
ROOT
HETATM    1  C1  UNL     1      27.619   4.873  48.602  1.00  0.00     0.045 C 
HETATM    2  C2  UNL     1      26.430   5.102  49.391  1.00  0.00    -0.050 C 
HETATM    3  C3  UNL     1      26.345   3.872  49.944  1.00  0.00    -0.001 C 
HETATM    4  C4  UNL     1      26.540   2.478  50.358  1.00  0.00     0.176 C 
HETATM    5  N1  UNL     1      26.647   2.318  51.734  1.00  0.00    -0.294 NA
HETATM    6  C5  UNL     1      25.740   2.131  52.618  1.00  0.00     0.014 C 
HETATM    7  C8  UNL     1      24.242   1.962  52.786  1.00  0.00     0.126 C 
HETATM    8  C9  UNL     1      23.487   2.320  51.562  1.00  0.00     0.082 C 
HETATM    9  N3  UNL     1      23.141   1.888  50.448  1.00  0.00    -0.253 NA
HETATM   10  C10 UNL     1      22.392   2.452  49.417  1.00  0.00     0.118 C 
HETATM   11  C11 UNL     1      22.427   3.533  48.701  1.00  0.00     0.018 C 
HETATM   12  C12 UNL     1      22.367   4.679  47.858  1.00  0.00     0.009 C 
HETATM   13  C13 UNL     1      23.239   5.654  47.955  1.00  0.00     0.186 A 
HETATM   14  C14 UNL     1      24.397   6.275  48.559  1.00  0.00     0.162 A 
HETATM   15  O1  UNL     1      23.969   5.170  49.078  1.00  0.00    -0.359 OA
HETATM   16  C15 UNL     1      25.403   6.167  49.638  1.00  0.00     0.286 C 
ENDROOT
BRANCH   6  17
HETATM   17  C6  UNL     1      26.497   2.032  53.899  1.00  0.00     0.069 C 
BRANCH  17  18
HETATM   18  C7  UNL     1      26.645   0.572  54.253  1.00  0.00     0.120 C 
HETATM   19 CL1  UNL     1      28.279   0.306  54.938  1.00  0.00    -0.130 Cl
ENDBRANCH  17  18
ENDBRANCH   6  17
BRANCH   8  20
HETATM   20  N2  UNL     1      22.904   3.641  51.638  1.00  0.00    -0.290 NA
HETATM   21  H13 UNL     1      21.974   4.062  51.332  1.00  0.00     0.125 HD
HETATM   22  H14 UNL     1      22.069   4.205  51.411  1.00  0.00     0.125 HD
ENDBRANCH   8  20
BRANCH  16  23
HETATM   23  N4  UNL     1      24.829   5.828  50.924  1.00  0.00     0.090 N 
HETATM   24  H20 UNL     1      23.792   5.675  50.850  1.00  0.00     0.313 HD
HETATM   25  H21 UNL     1      25.063   6.496  51.662  1.00  0.00     0.313 HD
ENDBRANCH  16  23
TORSDOF 4
ENDMDL
MODEL 2
REMARK VINA RESULT:      -6.6      6.285      8.190
REMARK  4 active torsions:
REMARK  status: ('A' for Active; 'I' for Inactive)
REMARK    1  A    between atoms: C5_6  and  C6_7 
REMARK    2  A    between atoms: C6_7  and  C7_8 
REMARK    3  A    between atoms: C9_11  and  N2_12 
REMARK    4  A    between atoms: C15_20  and  N4_21 
ROOT
HETATM    1  C1  UNL     1      31.135  10.492  46.522  1.00  0.00     0.045 C 
HETATM    2  C2  UNL     1      31.040   9.660  47.699  1.00  0.00    -0.050 C 
HETATM    3  C3  UNL     1      31.436   8.500  47.130  1.00  0.00    -0.001 C 
HETATM    4  C4  UNL     1      31.893   7.438  46.226  1.00  0.00     0.176 C 
HETATM    5  N1  UNL     1      33.052   6.805  46.655  1.00  0.00    -0.294 NA
HETATM    6  C5  UNL     1      33.206   5.793  47.424  1.00  0.00     0.014 C 
HETATM    7  C8  UNL     1      32.433   4.765  48.227  1.00  0.00     0.126 C 
HETATM    8  C9  UNL     1      31.000   5.114  48.369  1.00  0.00     0.082 C 
HETATM    9  N3  UNL     1      29.907   5.080  47.776  1.00  0.00    -0.253 NA
HETATM   10  C10 UNL     1      28.629   5.499  48.145  1.00  0.00     0.118 C 
HETATM   11  C11 UNL     1      28.075   6.592  48.568  1.00  0.00     0.018 C 
HETATM   12  C12 UNL     1      27.361   7.732  49.034  1.00  0.00     0.009 C 
HETATM   13  C13 UNL     1      27.960   8.875  49.264  1.00  0.00     0.186 A 
HETATM   14  C14 UNL     1      29.139   9.712  49.307  1.00  0.00     0.162 A 
HETATM   15  O1  UNL     1      29.299   8.465  49.003  1.00  0.00    -0.359 OA
HETATM   16  C15 UNL     1      30.607   9.743  49.133  1.00  0.00     0.286 C 
ENDROOT
BRANCH   6  17
HETATM   17  C6  UNL     1      34.685   5.607  47.486  1.00  0.00     0.069 C 
BRANCH  17  18
HETATM   18  C7  UNL     1      34.971   4.146  47.738  1.00  0.00     0.120 C 
HETATM   19 CL1  UNL     1      35.125   3.307  46.163  1.00  0.00    -0.130 Cl
ENDBRANCH  17  18
ENDBRANCH   6  17
BRANCH   8  20
HETATM   20  N2  UNL     1      30.699   5.701  49.657  1.00  0.00    -0.290 NA
HETATM   21  H13 UNL     1      30.450   6.684  49.985  1.00  0.00     0.125 HD
HETATM   22  H14 UNL     1      30.450   6.579  50.141  1.00  0.00     0.125 HD
ENDBRANCH   8  20
BRANCH  16  23
HETATM   23  N4  UNL     1      31.285   8.640  49.783  1.00  0.00     0.090 N 
HETATM   24  H20 UNL     1      30.719   8.265  50.586  1.00  0.00     0.313 HD
HETATM   25  H21 UNL     1      32.243   8.861  50.064  1.00  0.00     0.313 HD
ENDBRANCH  16  23
TORSDOF 4
ENDMDL
MODEL 3
REMARK VINA RESULT:      -6.6      2.041      2.312
REMARK  4 active torsions:
REMARK  status: ('A' for Active; 'I' for Inactive)
REMARK    1  A    between atoms: C5_6  and  C6_7 
REMARK    2  A    between atoms: C6_7  and  C7_8 
REMARK    3  A    between atoms: C9_11  and  N2_12 
REMARK    4  A    between atoms: C15_20  and  N4_21 
ROOT
HETATM    1  C1  UNL     1      26.374   6.138  48.723  1.00  0.00     0.045 C 
HETATM    2  C2  UNL     1      25.520   6.344  49.870  1.00  0.00    -0.050 C 
HETATM    3  C3  UNL     1      25.124   5.061  50.029  1.00  0.00    -0.001 C 
HETATM    4  C4  UNL     1      24.901   3.614  49.926  1.00  0.00     0.176 C 
HETATM    5  N1  UNL     1      25.215   2.922  51.089  1.00  0.00    -0.294 NA
HETATM    6  C5  UNL     1      24.493   2.650  52.111  1.00  0.00     0.014 C 
HETATM    7  C8  UNL     1      23.094   2.817  52.673  1.00  0.00     0.126 C 
HETATM    8  C9  UNL     1      22.285   3.792  51.906  1.00  0.00     0.082 C 
HETATM    9  N3  UNL     1      21.597   3.920  50.877  1.00  0.00    -0.253 NA
HETATM   10  C10 UNL     1      20.903   5.005  50.345  1.00  0.00     0.118 C 
HETATM   11  C11 UNL     1      21.168   6.230  50.011  1.00  0.00     0.018 C 
HETATM   12  C12 UNL     1      21.345   7.584  49.609  1.00  0.00     0.009 C 
HETATM   13  C13 UNL     1      22.501   8.193  49.720  1.00  0.00     0.186 A 
HETATM   14  C14 UNL     1      23.898   8.220  50.095  1.00  0.00     0.162 A 
HETATM   15  O1  UNL     1      23.225   7.149  50.365  1.00  0.00    -0.359 OA
HETATM   16  C15 UNL     1      24.995   7.458  50.727  1.00  0.00     0.286 C 
ENDROOT
BRANCH   6  17
HETATM   17  C6  UNL     1      25.407   1.881  53.005  1.00  0.00     0.069 C 
BRANCH  17  18
HETATM   18  C7  UNL     1      25.219   0.410  52.727  1.00  0.00     0.120 C 
HETATM   19 CL1  UNL     1      26.696  -0.222  51.936  1.00  0.00    -0.130 Cl
ENDBRANCH  17  18
ENDBRANCH   6  17
BRANCH   8  20
HETATM   20  N2  UNL     1      22.224   5.087  52.549  1.00  0.00    -0.290 NA
HETATM   21  H13 UNL     1      21.472   5.837  52.640  1.00  0.00     0.125 HD
HETATM   22  H14 UNL     1      21.621   5.905  52.734  1.00  0.00     0.125 HD
ENDBRANCH   8  20
BRANCH  16  23
HETATM   23  N4  UNL     1      24.607   6.813  51.964  1.00  0.00     0.090 N 
HETATM   24  H20 UNL     1      25.048   5.863  52.054  1.00  0.00     0.313 HD
HETATM   25  H21 UNL     1      23.594   6.776  52.103  1.00  0.00     0.313 HD
ENDBRANCH  16  23
TORSDOF 4
ENDMDL
MODEL 4
REMARK VINA RESULT:      -6.5      3.103      5.056
REMARK  4 active torsions:
REMARK  status: ('A' for Active; 'I' for Inactive)
REMARK    1  A    between atoms: C5_6  and  C6_7 
REMARK    2  A    between atoms: C6_7  and  C7_8 
REMARK    3  A    between atoms: C9_11  and  N2_12 
REMARK    4  A    between atoms: C15_20  and  N4_21 
ROOT
HETATM    1  C1  UNL     1      21.035  -0.837  54.064  1.00  0.00     0.045 C 
HETATM    2  C2  UNL     1      21.370  -0.164  52.831  1.00  0.00    -0.050 C 
HETATM    3  C3  UNL     1      22.610   0.245  53.182  1.00  0.00    -0.001 C 
HETATM    4  C4  UNL     1      23.880   0.525  53.862  1.00  0.00     0.176 C 
HETATM    5  N1  UNL     1      24.993   0.069  53.167  1.00  0.00    -0.294 NA
HETATM    6  C5  UNL     1      25.701   0.644  52.269  1.00  0.00     0.014 C 
HETATM    7  C8  UNL     1      25.838   1.941  51.495  1.00  0.00     0.126 C 
HETATM    8  C9  UNL     1      24.656   2.821  51.644  1.00  0.00     0.082 C 
HETATM    9  N3  UNL     1      24.123   3.646  52.408  1.00  0.00    -0.253 NA
HETATM   10  C10 UNL     1      22.939   4.376  52.318  1.00  0.00     0.118 C 
HETATM   11  C11 UNL     1      21.681   4.123  52.129  1.00  0.00     0.018 C 
HETATM   12  C12 UNL     1      20.280   3.964  51.931  1.00  0.00     0.009 C 
HETATM   13  C13 UNL     1      19.739   2.785  51.738  1.00  0.00     0.186 A 
HETATM   14  C14 UNL     1      19.827   1.349  51.593  1.00  0.00     0.162 A 
HETATM   15  O1  UNL     1      20.934   2.009  51.714  1.00  0.00    -0.359 OA
HETATM   16  C15 UNL     1      20.750   0.196  51.513  1.00  0.00     0.286 C 
ENDROOT
BRANCH   6  17
HETATM   17  C6  UNL     1      26.747  -0.365  51.932  1.00  0.00     0.069 C 
BRANCH  17  18
HETATM   18  C7  UNL     1      27.538  -0.665  53.181  1.00  0.00     0.120 C 
HETATM   19 CL1  UNL     1      28.744   0.636  53.430  1.00  0.00    -0.130 Cl
ENDBRANCH  17  18
ENDBRANCH   6  17
BRANCH   8  20
HETATM   20  N2  UNL     1      23.765   2.748  50.506  1.00  0.00    -0.290 NA
HETATM   21  H13 UNL     1      23.618   2.041  49.722  1.00  0.00     0.125 HD
HETATM   22  H14 UNL     1      23.493   2.179  49.689  1.00  0.00     0.125 HD
ENDBRANCH   8  20
BRANCH  16  23
HETATM   23  N4  UNL     1      21.875   0.422  50.631  1.00  0.00     0.090 N 
HETATM   24  H20 UNL     1      22.702  -0.164  50.910  1.00  0.00     0.313 HD
HETATM   25  H21 UNL     1      22.125   1.410  50.535  1.00  0.00     0.313 HD
ENDBRANCH  16  23
TORSDOF 4
ENDMDL
MODEL 5
REMARK VINA RESULT:      -6.5      5.286      7.763
REMARK  4 active torsions:
REMARK  status: ('A' for Active; 'I' for Inactive)
REMARK    1  A    between atoms: C5_6  and  C6_7 
REMARK    2  A    between atoms: C6_7  and  C7_8 
REMARK    3  A    between atoms: C9_11  and  N2_12 
REMARK    4  A    between atoms: C15_20  and  N4_21 
ROOT
HETATM    1  C1  UNL     1      30.673   7.771  45.831  1.00  0.00     0.045 C 
HETATM    2  C2  UNL     1      30.520   8.146  47.217  1.00  0.00    -0.050 C 
HETATM    3  C3  UNL     1      29.172   8.067  47.276  1.00  0.00    -0.001 C 
HETATM    4  C4  UNL     1      27.741   7.887  47.005  1.00  0.00     0.176 C 
HETATM    5  N1  UNL     1      27.128   6.972  47.851  1.00  0.00    -0.294 NA
HETATM    6  C5  UNL     1      26.576   7.141  48.994  1.00  0.00     0.014 C 
HETATM    7  C8  UNL     1      26.240   8.206  50.020  1.00  0.00     0.126 C 
HETATM    8  C9  UNL     1      26.934   9.489  49.758  1.00  0.00     0.082 C 
HETATM    9  N3  UNL     1      26.884  10.520  49.065  1.00  0.00    -0.253 NA
HETATM   10  C10 UNL     1      27.707  11.645  49.000  1.00  0.00     0.118 C 
HETATM   11  C11 UNL     1      28.966  11.888  48.814  1.00  0.00     0.018 C 
HETATM   12  C12 UNL     1      30.323  12.273  48.619  1.00  0.00     0.009 C 
HETATM   13  C13 UNL     1      31.272  11.388  48.432  1.00  0.00     0.186 A 
HETATM   14  C14 UNL     1      31.739  10.025  48.306  1.00  0.00     0.162 A 
HETATM   15  O1  UNL     1      30.492  10.208  48.599  1.00  0.00    -0.359 OA
HETATM   16  C15 UNL     1      31.349   8.601  48.382  1.00  0.00     0.286 C 
ENDROOT
BRANCH   6  17
HETATM   17  C6  UNL     1      26.104   5.778  49.373  1.00  0.00     0.069 C 
BRANCH  17  18
HETATM   18  C7  UNL     1      27.113   4.770  48.880  1.00  0.00     0.120 C 
HETATM   19 CL1  UNL     1      26.622   3.140  49.438  1.00  0.00    -0.130 Cl
ENDBRANCH  17  18
ENDBRANCH   6  17
BRANCH   8  20
HETATM   20  N2  UNL     1      28.098   9.669  50.599  1.00  0.00    -0.290 NA
HETATM   21  H13 UNL     1      28.813  10.449  50.720  1.00  0.00     0.125 HD
HETATM   22  H14 UNL     1      28.866  10.315  50.842  1.00  0.00     0.125 HD
ENDBRANCH   8  20
BRANCH  16  23
HETATM   23  N4  UNL     1      30.544   8.289  49.545  1.00  0.00     0.090 N 
HETATM   24  H20 UNL     1      31.098   7.752  50.259  1.00  0.00     0.313 HD
HETATM   25  H21 UNL     1      29.664   7.821  49.316  1.00  0.00     0.313 HD
ENDBRANCH  16  23
TORSDOF 4
ENDMDL
MODEL 6
REMARK VINA RESULT:      -6.2      3.101      5.859
REMARK  4 active torsions:
REMARK  status: ('A' for Active; 'I' for Inactive)
REMARK    1  A    between atoms: C5_6  and  C6_7 
REMARK    2  A    between atoms: C6_7  and  C7_8 
REMARK    3  A    between atoms: C9_11  and  N2_12 
REMARK    4  A    between atoms: C15_20  and  N4_21 
ROOT
HETATM    1  C1  UNL     1      19.751   1.422  49.672  1.00  0.00     0.045 C 
HETATM    2  C2  UNL     1      20.471   2.009  50.778  1.00  0.00    -0.050 C 
HETATM    3  C3  UNL     1      21.689   2.055  50.193  1.00  0.00    -0.001 C 
HETATM    4  C4  UNL     1      22.841   1.966  49.288  1.00  0.00     0.176 C 
HETATM    5  N1  UNL     1      23.467   3.186  49.067  1.00  0.00    -0.294 NA
HETATM    6  C5  UNL     1      24.411   3.761  49.713  1.00  0.00     0.014 C 
HETATM    7  C8  UNL     1      25.339   3.580  50.899  1.00  0.00     0.126 C 
HETATM    8  C9  UNL     1      24.936   2.452  51.771  1.00  0.00     0.082 C 
HETATM    9  N3  UNL     1      24.991   1.214  51.881  1.00  0.00    -0.253 NA
HETATM   10  C10 UNL     1      24.502   0.338  52.850  1.00  0.00     0.118 C 
HETATM   11  C11 UNL     1      23.360   0.081  53.406  1.00  0.00     0.018 C 
HETATM   12  C12 UNL     1      22.161  -0.287  54.081  1.00  0.00     0.009 C 
HETATM   13  C13 UNL     1      21.021   0.313  53.840  1.00  0.00     0.186 A 
HETATM   14  C14 UNL     1      20.219   1.301  53.153  1.00  0.00     0.162 A 
HETATM   15  O1  UNL     1      21.493   1.298  52.926  1.00  0.00    -0.359 OA
HETATM   16  C15 UNL     1      20.247   2.432  52.200  1.00  0.00     0.286 C 
ENDROOT
BRANCH   6  17
HETATM   17  C6  UNL     1      24.635   5.034  48.970  1.00  0.00     0.069 C 
BRANCH  17  18
HETATM   18  C7  UNL     1      25.839   5.725  49.562  1.00  0.00     0.120 C 
HETATM   19 CL1  UNL     1      27.262   5.398  48.524  1.00  0.00    -0.130 Cl
ENDBRANCH  17  18
ENDBRANCH   6  17
BRANCH   8  20
HETATM   20  N2  UNL     1      24.228   2.893  52.953  1.00  0.00    -0.290 NA
HETATM   21  H13 UNL     1      24.503   3.042  53.972  1.00  0.00     0.125 HD
HETATM   22  H14 UNL     1      24.320   3.088  53.963  1.00  0.00     0.125 HD
ENDBRANCH   8  20
BRANCH  16  23
HETATM   23  N4  UNL     1      21.308   3.381  52.469  1.00  0.00     0.090 N 
HETATM   24  H20 UNL     1      22.209   3.084  52.015  1.00  0.00     0.313 HD
HETATM   25  H21 UNL     1      21.431   3.581  53.464  1.00  0.00     0.313 HD
ENDBRANCH  16  23
TORSDOF 4
ENDMDL
MODEL 7
REMARK VINA RESULT:      -6.2      2.872      6.097
REMARK  4 active torsions:
REMARK  status: ('A' for Active; 'I' for Inactive)
REMARK    1  A    between atoms: C5_6  and  C6_7 
REMARK    2  A    between atoms: C6_7  and  C7_8 
REMARK    3  A    between atoms: C9_11  and  N2_12 
REMARK    4  A    between atoms: C15_20  and  N4_21 
ROOT
HETATM    1  C1  UNL     1      21.194   0.552  49.947  1.00  0.00     0.045 C 
HETATM    2  C2  UNL     1      21.877   1.555  50.731  1.00  0.00    -0.050 C 
HETATM    3  C3  UNL     1      22.481   2.200  49.707  1.00  0.00    -0.001 C 
HETATM    4  C4  UNL     1      22.971   2.661  48.403  1.00  0.00     0.176 C 
HETATM    5  N1  UNL     1      22.672   3.991  48.138  1.00  0.00    -0.294 NA
HETATM    6  C5  UNL     1      23.325   5.057  48.415  1.00  0.00     0.014 C 
HETATM    7  C8  UNL     1      24.607   5.548  49.061  1.00  0.00     0.126 C 
HETATM    8  C9  UNL     1      25.299   4.487  49.830  1.00  0.00     0.082 C 
HETATM    9  N3  UNL     1      26.052   3.505  49.710  1.00  0.00    -0.253 NA
HETATM   10  C10 UNL     1      26.588   2.617  50.641  1.00  0.00     0.118 C 
HETATM   11  C11 UNL     1      26.140   1.836  51.574  1.00  0.00     0.018 C 
HETATM   12  C12 UNL     1      25.763   0.945  52.619  1.00  0.00     0.009 C 
HETATM   13  C13 UNL     1      24.510   0.788  52.973  1.00  0.00     0.186 A 
HETATM   14  C14 UNL     1      23.101   1.089  52.849  1.00  0.00     0.162 A 
HETATM   15  O1  UNL     1      23.926   1.763  52.115  1.00  0.00    -0.359 OA
HETATM   16  C15 UNL     1      22.102   1.937  52.164  1.00  0.00     0.286 C 
ENDROOT
BRANCH   6  17
HETATM   17  C6  UNL     1      22.481   6.154  47.859  1.00  0.00     0.069 C 
BRANCH  17  18
HETATM   18  C7  UNL     1      21.118   6.080  48.504  1.00  0.00     0.120 C 
HETATM   19 CL1  UNL     1      21.286   6.434  50.252  1.00  0.00    -0.130 Cl
ENDBRANCH  17  18
ENDBRANCH   6  17
BRANCH   8  20
HETATM   20  N2  UNL     1      25.059   4.592  51.253  1.00  0.00    -0.290 NA
HETATM   21  H13 UNL     1      25.069   5.397  51.952  1.00  0.00     0.125 HD
HETATM   22  H14 UNL     1      25.025   5.244  52.053  1.00  0.00     0.125 HD
ENDBRANCH   8  20
BRANCH  16  23
HETATM   23  N4  UNL     1      22.475   3.336  52.114  1.00  0.00     0.090 N 
HETATM   24  H20 UNL     1      22.848   3.597  51.166  1.00  0.00     0.313 HD
HETATM   25  H21 UNL     1      23.113   3.613  52.863  1.00  0.00     0.313 HD
ENDBRANCH  16  23
TORSDOF 4
ENDMDL
MODEL 8
REMARK VINA RESULT:      -6.1      6.623      8.111
REMARK  4 active torsions:
REMARK  status: ('A' for Active; 'I' for Inactive)
REMARK    1  A    between atoms: C5_6  and  C6_7 
REMARK    2  A    between atoms: C6_7  and  C7_8 
REMARK    3  A    between atoms: C9_11  and  N2_12 
REMARK    4  A    between atoms: C15_20  and  N4_21 
ROOT
HETATM    1  C1  UNL     1      32.355  11.359  47.194  1.00  0.00     0.045 C 
HETATM    2  C2  UNL     1      31.406  10.754  48.099  1.00  0.00    -0.050 C 
HETATM    3  C3  UNL     1      31.425   9.510  47.572  1.00  0.00    -0.001 C 
HETATM    4  C4  UNL     1      31.676   8.300  46.780  1.00  0.00     0.176 C 
HETATM    5  N1  UNL     1      32.115   7.222  47.539  1.00  0.00    -0.294 NA
HETATM    6  C5  UNL     1      31.449   6.314  48.149  1.00  0.00     0.014 C 
HETATM    7  C8  UNL     1      30.035   5.835  48.416  1.00  0.00     0.126 C 
HETATM    8  C9  UNL     1      29.012   6.833  48.024  1.00  0.00     0.082 C 
HETATM    9  N3  UNL     1      28.389   7.282  47.046  1.00  0.00    -0.253 NA
HETATM   10  C10 UNL     1      27.424   8.283  46.930  1.00  0.00     0.118 C 
HETATM   11  C11 UNL     1      27.313   9.534  47.252  1.00  0.00     0.018 C 
HETATM   12  C12 UNL     1      27.080  10.905  47.556  1.00  0.00     0.009 C 
HETATM   13  C13 UNL     1      27.976  11.638  48.172  1.00  0.00     0.186 A 
HETATM   14  C14 UNL     1      29.266  11.814  48.803  1.00  0.00     0.162 A 
HETATM   15  O1  UNL     1      28.948  10.623  48.410  1.00  0.00    -0.359 OA
HETATM   16  C15 UNL     1      30.503  11.131  49.237  1.00  0.00     0.286 C 
ENDROOT
BRANCH   6  17
HETATM   17  C6  UNL     1      32.497   5.451  48.767  1.00  0.00     0.069 C 
BRANCH  17  18
HETATM   18  C7  UNL     1      32.818   4.330  47.808  1.00  0.00     0.120 C 
HETATM   19 CL1  UNL     1      34.589   4.062  47.804  1.00  0.00    -0.130 Cl
ENDBRANCH  17  18
ENDBRANCH   6  17
BRANCH   8  20
HETATM   20  N2  UNL     1      28.505   7.578  49.155  1.00  0.00    -0.290 NA
HETATM   21  H13 UNL     1      28.283   7.332  50.168  1.00  0.00     0.125 HD
HETATM   22  H14 UNL     1      28.241   7.515  50.152  1.00  0.00     0.125 HD
ENDBRANCH   8  20
BRANCH  16  23
HETATM   23  N4  UNL     1      30.257   9.885  49.933  1.00  0.00     0.090 N 
HETATM   24  H20 UNL     1      29.297   9.873  50.363  1.00  0.00     0.313 HD
HETATM   25  H21 UNL     1      30.982   9.651  50.616  1.00  0.00     0.313 HD
ENDBRANCH  16  23
TORSDOF 4
ENDMDL
MODEL 9
REMARK VINA RESULT:      -6.0      2.534      3.024
REMARK  4 active torsions:
REMARK  status: ('A' for Active; 'I' for Inactive)
REMARK    1  A    between atoms: C5_6  and  C6_7 
REMARK    2  A    between atoms: C6_7  and  C7_8 
REMARK    3  A    between atoms: C9_11  and  N2_12 
REMARK    4  A    between atoms: C15_20  and  N4_21 
ROOT
HETATM    1  C1  UNL     1      25.288   4.603  49.674  1.00  0.00     0.045 C 
HETATM    2  C2  UNL     1      24.262   4.791  50.672  1.00  0.00    -0.050 C 
HETATM    3  C3  UNL     1      23.737   3.546  50.626  1.00  0.00    -0.001 C 
HETATM    4  C4  UNL     1      23.416   2.144  50.335  1.00  0.00     0.176 C 
HETATM    5  N1  UNL     1      23.456   1.323  51.455  1.00  0.00    -0.294 NA
HETATM    6  C5  UNL     1      22.542   1.036  52.304  1.00  0.00     0.014 C 
HETATM    7  C8  UNL     1      21.083   1.293  52.632  1.00  0.00     0.126 C 
HETATM    8  C9  UNL     1      20.511   2.410  51.845  1.00  0.00     0.082 C 
HETATM    9  N3  UNL     1      20.033   2.698  50.733  1.00  0.00    -0.253 NA
HETATM   10  C10 UNL     1      19.539   3.891  50.207  1.00  0.00     0.118 C 
HETATM   11  C11 UNL     1      19.963   5.106  50.054  1.00  0.00     0.018 C 
HETATM   12  C12 UNL     1      20.322   6.466  49.833  1.00  0.00     0.009 C 
HETATM   13  C13 UNL     1      21.486   6.942  50.203  1.00  0.00     0.186 A 
HETATM   14  C14 UNL     1      22.790   6.795  50.813  1.00  0.00     0.162 A 
HETATM   15  O1  UNL     1      21.991   5.777  50.849  1.00  0.00    -0.359 OA
HETATM   16  C15 UNL     1      23.687   5.872  51.540  1.00  0.00     0.286 C 
ENDROOT
BRANCH   6  17
HETATM   17  C6  UNL     1      23.211   0.102  53.255  1.00  0.00     0.069 C 
BRANCH  17  18
HETATM   18  C7  UNL     1      24.659   0.508  53.380  1.00  0.00     0.120 C 
HETATM   19 CL1  UNL     1      25.689  -0.923  53.064  1.00  0.00    -0.130 Cl
ENDBRANCH  17  18
ENDBRANCH   6  17
BRANCH   8  20
HETATM   20  N2  UNL     1      20.444   3.642  52.601  1.00  0.00    -0.290 NA
HETATM   21  H13 UNL     1      19.718   4.417  52.695  1.00  0.00     0.125 HD
HETATM   22  H14 UNL     1      19.860   4.469  52.808  1.00  0.00     0.125 HD
ENDBRANCH   8  20
BRANCH  16  23
HETATM   23  N4  UNL     1      23.029   5.163  52.617  1.00  0.00     0.090 N 
HETATM   24  H20 UNL     1      22.349   5.785  53.123  1.00  0.00     0.313 HD
HETATM   25  H21 UNL     1      23.680   4.708  53.262  1.00  0.00     0.313 HD
ENDBRANCH  16  23
TORSDOF 4
ENDMDL
