MODEL 1
REMARK VINA RESULT:      -9.2      0.000      0.000
REMARK  1 active torsions:
REMARK  status: ('A' for Active; 'I' for Inactive)
REMARK    1  A    between atoms: C11_15  and  N3_16 
ROOT
HETATM    1  C1  UNL     1      16.608   2.523  50.880  1.00  0.00     0.254 C 
HETATM    2  N1  UNL     1      17.999   2.048  51.240  1.00  0.00    -0.098 N 
HETATM    3  C2  UNL     1      18.790   1.134  51.970  1.00  0.00     0.629 C 
HETATM    4  C3  UNL     1      18.647  -0.027  52.688  1.00  0.00     0.047 C 
HETATM    5 CL1  UNL     1      16.877  -0.528  52.683  1.00  0.00    -0.087 Cl
HETATM    6  C4  UNL     1      19.066  -1.089  53.443  1.00  0.00     0.022 C 
HETATM    7  C5  UNL     1      20.290  -1.480  53.896  1.00  0.00     0.003 C 
HETATM    8  C6  UNL     1      21.743  -1.376  54.059  1.00  0.00     0.017 C 
HETATM    9  C7  UNL     1      22.776  -0.618  53.728  1.00  0.00     0.091 C 
HETATM   10  N2  UNL     1      23.442   0.495  53.110  1.00  0.00    -0.335 N 
HETATM   11  C8  UNL     1      24.384   0.817  52.136  1.00  0.00     0.256 C 
HETATM   12  O1  UNL     1      24.351  -0.404  52.017  1.00  0.00    -0.270 OA
HETATM   13  C9  UNL     1      24.653   2.282  52.040  1.00  0.00     0.160 A 
HETATM   14  C10 UNL     1      24.343   3.010  53.318  1.00  0.00     0.056 C 
HETATM   15  C11 UNL     1      26.100   2.347  51.727  1.00  0.00     0.045 A 
HETATM   16  C17 UNL     1      26.793   2.772  50.692  1.00  0.00     0.029 A 
HETATM   17  C18 UNL     1      26.071   3.340  49.550  1.00  0.00     0.019 A 
HETATM   18  C19 UNL     1      24.745   3.340  49.741  1.00  0.00     0.097 A 
HETATM   19  N5  UNL     1      23.989   2.874  50.897  1.00  0.00    -0.293 N 
HETATM   20  C20 UNL     1      22.627   3.050  50.892  1.00  0.00     0.304 C 
HETATM   21  O2  UNL     1      22.500   1.984  50.171  1.00  0.00    -0.258 OA
HETATM   22  C21 UNL     1      21.288   2.998  50.733  1.00  0.00    -0.003 C 
HETATM   23  C22 UNL     1      20.193   2.976  50.602  1.00  0.00    -0.070 C 
HETATM   24  C23 UNL     1      18.830   2.970  50.435  1.00  0.00     0.312 C 
HETATM   25  H9  UNL     1      22.932   1.121  53.710  1.00  0.00     0.168 HD
ENDROOT
BRANCH  15  26
HETATM   26  N3  UNL     1      27.036   1.889  52.736  1.00  0.00    -0.378 N 
HETATM   27  C12 UNL     1      27.753   2.464  53.880  1.00  0.00     0.153 C 
HETATM   28  C13 UNL     1      29.101   1.744  53.940  1.00  0.00     0.291 C 
HETATM   29  N4  UNL     1      28.881   0.385  54.421  1.00  0.00     0.087 N 
HETATM   30  C14 UNL     1      29.970  -0.476  54.001  1.00  0.00     0.310 C 
HETATM   31  C15 UNL     1      27.648  -0.146  53.915  1.00  0.00     0.291 C 
HETATM   32  C16 UNL     1      27.352   0.461  52.550  1.00  0.00     0.153 C 
ENDBRANCH  15  26
TORSDOF 1
ENDMDL
MODEL 2
REMARK VINA RESULT:      -9.2      3.990      5.971
REMARK  1 active torsions:
REMARK  status: ('A' for Active; 'I' for Inactive)
REMARK    1  A    between atoms: C11_15  and  N3_16 
ROOT
HETATM    1  C1  UNL     1      19.740   0.746  52.376  1.00  0.00     0.254 C 
HETATM    2  N1  UNL     1      21.011   1.413  51.895  1.00  0.00    -0.098 N 
HETATM    3  C2  UNL     1      22.422   1.443  51.927  1.00  0.00     0.629 C 
HETATM    4  C3  UNL     1      23.472   0.667  52.353  1.00  0.00     0.047 C 
HETATM    5 CL1  UNL     1      22.817  -0.877  53.108  1.00  0.00    -0.087 Cl
HETATM    6  C4  UNL     1      24.787   0.347  52.556  1.00  0.00     0.022 C 
HETATM    7  C5  UNL     1      25.955   0.981  52.253  1.00  0.00     0.003 C 
HETATM    8  C6  UNL     1      26.776   2.062  51.700  1.00  0.00     0.017 C 
HETATM    9  C7  UNL     1      26.682   3.226  51.078  1.00  0.00     0.091 C 
HETATM   10  N2  UNL     1      26.006   4.338  50.469  1.00  0.00    -0.335 N 
HETATM   11  C8  UNL     1      25.835   4.997  49.254  1.00  0.00     0.256 C 
HETATM   12  O1  UNL     1      26.572   4.080  48.906  1.00  0.00    -0.270 OA
HETATM   13  C9  UNL     1      24.960   6.202  49.357  1.00  0.00     0.160 A 
HETATM   14  C10 UNL     1      24.933   6.778  50.745  1.00  0.00     0.056 C 
HETATM   15  C11 UNL     1      25.569   7.153  48.397  1.00  0.00     0.045 A 
HETATM   16  C17 UNL     1      25.160   7.706  47.275  1.00  0.00     0.029 A 
HETATM   17  C18 UNL     1      23.815   7.391  46.787  1.00  0.00     0.019 A 
HETATM   18  C19 UNL     1      23.170   6.543  47.599  1.00  0.00     0.097 A 
HETATM   19  N5  UNL     1      23.630   5.943  48.846  1.00  0.00    -0.293 N 
HETATM   20  C20 UNL     1      22.751   5.155  49.547  1.00  0.00     0.304 C 
HETATM   21  O2  UNL     1      23.035   4.161  48.771  1.00  0.00    -0.258 OA
HETATM   22  C21 UNL     1      21.961   4.189  50.059  1.00  0.00    -0.003 C 
HETATM   23  C22 UNL     1      21.300   3.412  50.480  1.00  0.00    -0.070 C 
HETATM   24  C23 UNL     1      20.461   2.461  51.007  1.00  0.00     0.312 C 
HETATM   25  H9  UNL     1      25.600   4.567  51.361  1.00  0.00     0.168 HD
ENDROOT
BRANCH  15  26
HETATM   26  N3  UNL     1      26.895   7.662  48.691  1.00  0.00    -0.378 N 
HETATM   27  C12 UNL     1      27.513   8.546  49.686  1.00  0.00     0.153 C 
HETATM   28  C13 UNL     1      28.638   9.283  48.957  1.00  0.00     0.291 C 
HETATM   29  N4  UNL     1      29.730   8.346  48.720  1.00  0.00     0.087 N 
HETATM   30  C14 UNL     1      30.547   8.802  47.612  1.00  0.00     0.310 C 
HETATM   31  C15 UNL     1      29.228   7.036  48.420  1.00  0.00     0.291 C 
HETATM   32  C16 UNL     1      27.881   7.154  47.719  1.00  0.00     0.153 C 
ENDBRANCH  15  26
TORSDOF 1
ENDMDL
MODEL 3
REMARK VINA RESULT:      -9.1      3.170      5.292
REMARK  1 active torsions:
REMARK  status: ('A' for Active; 'I' for Inactive)
REMARK    1  A    between atoms: C11_15  and  N3_16 
ROOT
HETATM    1  C1  UNL     1      18.626  -0.892  53.082  1.00  0.00     0.254 C 
HETATM    2  N1  UNL     1      19.823  -0.080  52.638  1.00  0.00    -0.098 N 
HETATM    3  C2  UNL     1      21.204   0.177  52.782  1.00  0.00     0.629 C 
HETATM    4  C3  UNL     1      22.311  -0.377  53.375  1.00  0.00     0.047 C 
HETATM    5 CL1  UNL     1      21.824  -1.927  54.239  1.00  0.00    -0.087 Cl
HETATM    6  C4  UNL     1      23.634  -0.463  53.720  1.00  0.00     0.022 C 
HETATM    7  C5  UNL     1      24.716   0.317  53.447  1.00  0.00     0.003 C 
HETATM    8  C6  UNL     1      25.417   1.458  52.849  1.00  0.00     0.017 C 
HETATM    9  C7  UNL     1      25.211   2.527  52.097  1.00  0.00     0.091 C 
HETATM   10  N2  UNL     1      24.439   3.454  51.316  1.00  0.00    -0.335 N 
HETATM   11  C8  UNL     1      24.291   3.958  50.027  1.00  0.00     0.256 C 
HETATM   12  O1  UNL     1      25.188   3.142  49.844  1.00  0.00    -0.270 OA
HETATM   13  C9  UNL     1      23.240   5.013  49.925  1.00  0.00     0.160 A 
HETATM   14  C10 UNL     1      22.990   5.707  51.234  1.00  0.00     0.056 C 
HETATM   15  C11 UNL     1      23.791   5.953  48.920  1.00  0.00     0.045 A 
HETATM   16  C17 UNL     1      23.416   6.324  47.715  1.00  0.00     0.029 A 
HETATM   17  C18 UNL     1      22.188   5.754  47.155  1.00  0.00     0.019 A 
HETATM   18  C19 UNL     1      21.600   4.895  47.998  1.00  0.00     0.097 A 
HETATM   19  N5  UNL     1      22.020   4.498  49.337  1.00  0.00    -0.293 N 
HETATM   20  C20 UNL     1      21.205   3.650  50.046  1.00  0.00     0.304 C 
HETATM   21  O2  UNL     1      21.709   2.645  49.409  1.00  0.00    -0.258 OA
HETATM   22  C21 UNL     1      20.522   2.624  50.593  1.00  0.00    -0.003 C 
HETATM   23  C22 UNL     1      19.947   1.795  51.042  1.00  0.00    -0.070 C 
HETATM   24  C23 UNL     1      19.213   0.777  51.598  1.00  0.00     0.312 C 
HETATM   25  H9  UNL     1      23.918   3.700  52.142  1.00  0.00     0.168 HD
ENDROOT
BRANCH  15  26
HETATM   26  N3  UNL     1      24.990   6.692  49.265  1.00  0.00    -0.378 N 
HETATM   27  C12 UNL     1      25.552   7.337  50.458  1.00  0.00     0.153 C 
HETATM   28  C13 UNL     1      26.319   8.561  49.956  1.00  0.00     0.291 C 
HETATM   29  N4  UNL     1      27.539   8.107  49.299  1.00  0.00     0.087 N 
HETATM   30  C14 UNL     1      28.010   9.116  48.369  1.00  0.00     0.310 C 
HETATM   31  C15 UNL     1      27.315   6.884  48.584  1.00  0.00     0.291 C 
HETATM   32  C16 UNL     1      25.874   6.837  48.094  1.00  0.00     0.153 C 
ENDBRANCH  15  26
TORSDOF 1
ENDMDL
MODEL 4
REMARK VINA RESULT:      -9.1      3.612      7.385
REMARK  1 active torsions:
REMARK  status: ('A' for Active; 'I' for Inactive)
REMARK    1  A    between atoms: C11_15  and  N3_16 
ROOT
HETATM    1  C1  UNL     1      25.018  -0.879  54.769  1.00  0.00     0.254 C 
HETATM    2  N1  UNL     1      24.117  -0.163  53.786  1.00  0.00    -0.098 N 
HETATM    3  C2  UNL     1      22.822  -0.032  53.239  1.00  0.00     0.629 C 
HETATM    4  C3  UNL     1      21.539  -0.455  53.485  1.00  0.00     0.047 C 
HETATM    5 CL1  UNL     1      21.527  -1.510  54.992  1.00  0.00    -0.087 Cl
HETATM    6  C4  UNL     1      20.192  -0.558  53.260  1.00  0.00     0.022 C 
HETATM    7  C5  UNL     1      19.367  -0.032  52.312  1.00  0.00     0.003 C 
HETATM    8  C6  UNL     1      19.041   0.770  51.129  1.00  0.00     0.017 C 
HETATM    9  C7  UNL     1      19.597   1.552  50.218  1.00  0.00     0.091 C 
HETATM   10  N2  UNL     1      20.670   2.248  49.563  1.00  0.00    -0.335 N 
HETATM   11  C8  UNL     1      21.131   3.524  49.251  1.00  0.00     0.256 C 
HETATM   12  O1  UNL     1      20.117   3.805  49.883  1.00  0.00    -0.270 OA
HETATM   13  C9  UNL     1      22.391   3.515  48.451  1.00  0.00     0.160 A 
HETATM   14  C10 UNL     1      22.572   2.239  47.676  1.00  0.00     0.056 C 
HETATM   15  C11 UNL     1      22.230   4.673  47.540  1.00  0.00     0.045 A 
HETATM   16  C17 UNL     1      22.868   5.814  47.393  1.00  0.00     0.029 A 
HETATM   17  C18 UNL     1      24.014   6.095  48.262  1.00  0.00     0.019 A 
HETATM   18  C19 UNL     1      24.253   5.094  49.120  1.00  0.00     0.097 A 
HETATM   19  N5  UNL     1      23.546   3.828  49.267  1.00  0.00    -0.293 N 
HETATM   20  C20 UNL     1      24.029   2.919  50.175  1.00  0.00     0.304 C 
HETATM   21  O2  UNL     1      23.425   3.558  51.124  1.00  0.00    -0.258 OA
HETATM   22  C21 UNL     1      24.371   2.179  51.250  1.00  0.00    -0.003 C 
HETATM   23  C22 UNL     1      24.669   1.570  52.121  1.00  0.00    -0.070 C 
HETATM   24  C23 UNL     1      25.061   0.812  53.196  1.00  0.00     0.312 C 
HETATM   25  H9  UNL     1      21.091   1.363  49.335  1.00  0.00     0.168 HD
ENDROOT
BRANCH  15  26
HETATM   26  N3  UNL     1      21.184   4.610  46.537  1.00  0.00    -0.378 N 
HETATM   27  C12 UNL     1      19.719   4.538  46.513  1.00  0.00     0.153 C 
HETATM   28  C13 UNL     1      19.357   3.685  45.296  1.00  0.00     0.291 C 
HETATM   29  N4  UNL     1      19.604   4.466  44.091  1.00  0.00     0.087 N 
HETATM   30  C14 UNL     1      19.799   3.585  42.955  1.00  0.00     0.310 C 
HETATM   31  C15 UNL     1      20.767   5.293  44.243  1.00  0.00     0.291 C 
HETATM   32  C16 UNL     1      21.757   4.613  45.179  1.00  0.00     0.153 C 
ENDBRANCH  15  26
TORSDOF 1
ENDMDL
MODEL 5
REMARK VINA RESULT:      -9.0      3.661      5.640
REMARK  1 active torsions:
REMARK  status: ('A' for Active; 'I' for Inactive)
REMARK    1  A    between atoms: C11_15  and  N3_16 
ROOT
HETATM    1  C1  UNL     1      17.794   7.207  47.368  1.00  0.00     0.254 C 
HETATM    2  N1  UNL     1      18.900   6.730  48.285  1.00  0.00    -0.098 N 
HETATM    3  C2  UNL     1      20.160   6.996  48.864  1.00  0.00     0.629 C 
HETATM    4  C3  UNL     1      21.041   8.038  49.009  1.00  0.00     0.047 C 
HETATM    5 CL1  UNL     1      20.349   9.536  48.196  1.00  0.00    -0.087 Cl
HETATM    6  C4  UNL     1      22.191   8.654  49.427  1.00  0.00     0.022 C 
HETATM    7  C5  UNL     1      23.268   8.223  50.142  1.00  0.00     0.003 C 
HETATM    8  C6  UNL     1      24.062   7.244  50.890  1.00  0.00     0.017 C 
HETATM    9  C7  UNL     1      24.046   5.985  51.297  1.00  0.00     0.091 C 
HETATM   10  N2  UNL     1      23.511   4.660  51.445  1.00  0.00    -0.335 N 
HETATM   11  C8  UNL     1      23.059   3.751  52.398  1.00  0.00     0.256 C 
HETATM   12  O1  UNL     1      23.322   4.711  53.116  1.00  0.00    -0.270 OA
HETATM   13  C9  UNL     1      22.655   2.438  51.813  1.00  0.00     0.160 A 
HETATM   14  C10 UNL     1      23.335   2.158  50.502  1.00  0.00     0.056 C 
HETATM   15  C11 UNL     1      23.067   1.459  52.847  1.00  0.00     0.045 A 
HETATM   16  C17 UNL     1      22.413   0.622  53.623  1.00  0.00     0.029 A 
HETATM   17  C18 UNL     1      20.954   0.552  53.509  1.00  0.00     0.019 A 
HETATM   18  C19 UNL     1      20.480   1.396  52.583  1.00  0.00     0.097 A 
HETATM   19  N5  UNL     1      21.215   2.313  51.721  1.00  0.00    -0.293 N 
HETATM   20  C20 UNL     1      20.508   3.029  50.787  1.00  0.00     0.304 C 
HETATM   21  O2  UNL     1      20.183   3.885  51.700  1.00  0.00    -0.258 OA
HETATM   22  C21 UNL     1      19.756   3.896  50.079  1.00  0.00    -0.003 C 
HETATM   23  C22 UNL     1      19.133   4.591  49.489  1.00  0.00    -0.070 C 
HETATM   24  C23 UNL     1      18.348   5.437  48.745  1.00  0.00     0.312 C 
HETATM   25  H9  UNL     1      23.569   4.536  50.448  1.00  0.00     0.168 HD
ENDROOT
BRANCH  15  26
HETATM   26  N3  UNL     1      24.485   1.300  53.107  1.00  0.00    -0.378 N 
HETATM   27  C12 UNL     1      25.669   2.163  53.184  1.00  0.00     0.153 C 
HETATM   28  C13 UNL     1      26.837   1.327  52.658  1.00  0.00     0.291 C 
HETATM   29  N4  UNL     1      27.176   0.322  53.658  1.00  0.00     0.087 N 
HETATM   30  C14 UNL     1      27.864  -0.792  53.033  1.00  0.00     0.310 C 
HETATM   31  C15 UNL     1      25.999  -0.168  54.315  1.00  0.00     0.291 C 
HETATM   32  C16 UNL     1      24.819  -0.115  53.354  1.00  0.00     0.153 C 
ENDBRANCH  15  26
TORSDOF 1
ENDMDL
MODEL 6
REMARK VINA RESULT:      -8.9      2.616      5.429
REMARK  1 active torsions:
REMARK  status: ('A' for Active; 'I' for Inactive)
REMARK    1  A    between atoms: C11_15  and  N3_16 
ROOT
HETATM    1  C1  UNL     1      13.300  -1.335  51.150  1.00  0.00     0.254 C 
HETATM    2  N1  UNL     1      14.560  -0.518  51.338  1.00  0.00    -0.098 N 
HETATM    3  C2  UNL     1      15.200   0.731  51.183  1.00  0.00     0.629 C 
HETATM    4  C3  UNL     1      14.886   2.032  50.881  1.00  0.00     0.047 C 
HETATM    5 CL1  UNL     1      13.073   2.169  50.598  1.00  0.00    -0.087 Cl
HETATM    6  C4  UNL     1      15.139   3.359  50.657  1.00  0.00     0.022 C 
HETATM    7  C5  UNL     1      16.278   4.106  50.691  1.00  0.00     0.003 C 
HETATM    8  C6  UNL     1      17.713   4.334  50.881  1.00  0.00     0.017 C 
HETATM    9  C7  UNL     1      18.834   3.704  51.195  1.00  0.00     0.091 C 
HETATM   10  N2  UNL     1      19.649   2.577  51.556  1.00  0.00    -0.335 N 
HETATM   11  C8  UNL     1      20.459   2.081  52.575  1.00  0.00     0.256 C 
HETATM   12  O1  UNL     1      20.090   3.136  53.081  1.00  0.00    -0.270 OA
HETATM   13  C9  UNL     1      21.079   0.765  52.244  1.00  0.00     0.160 A 
HETATM   14  C10 UNL     1      21.196   0.538  50.762  1.00  0.00     0.056 C 
HETATM   15  C11 UNL     1      22.417   0.844  52.878  1.00  0.00     0.045 A 
HETATM   16  C17 UNL     1      23.006   0.187  53.853  1.00  0.00     0.029 A 
HETATM   17  C18 UNL     1      22.270  -0.894  54.515  1.00  0.00     0.019 A 
HETATM   18  C19 UNL     1      21.044  -1.058  54.002  1.00  0.00     0.097 A 
HETATM   19  N5  UNL     1      20.405  -0.328  52.913  1.00  0.00    -0.293 N 
HETATM   20  C20 UNL     1      19.156  -0.733  52.510  1.00  0.00     0.304 C 
HETATM   21  O2  UNL     1      18.633  -0.066  53.486  1.00  0.00    -0.258 OA
HETATM   22  C21 UNL     1      17.844  -0.986  52.327  1.00  0.00    -0.003 C 
HETATM   23  C22 UNL     1      16.774  -1.211  52.172  1.00  0.00    -0.070 C 
HETATM   24  C23 UNL     1      15.450  -1.514  51.976  1.00  0.00     0.312 C 
HETATM   25  H9  UNL     1      19.432   2.149  50.672  1.00  0.00     0.168 HD
ENDROOT
BRANCH  15  26
HETATM   26  N3  UNL     1      23.361   1.813  52.355  1.00  0.00    -0.378 N 
HETATM   27  C12 UNL     1      23.398   3.260  52.113  1.00  0.00     0.153 C 
HETATM   28  C13 UNL     1      24.247   3.458  50.857  1.00  0.00     0.291 C 
HETATM   29  N4  UNL     1      25.643   3.211  51.196  1.00  0.00     0.087 N 
HETATM   30  C14 UNL     1      26.391   2.859  50.004  1.00  0.00     0.310 C 
HETATM   31  C15 UNL     1      25.760   2.145  52.149  1.00  0.00     0.291 C 
HETATM   32  C16 UNL     1      24.619   1.157  51.952  1.00  0.00     0.153 C 
ENDBRANCH  15  26
TORSDOF 1
ENDMDL
MODEL 7
REMARK VINA RESULT:      -8.6      8.470     11.025
REMARK  1 active torsions:
REMARK  status: ('A' for Active; 'I' for Inactive)
REMARK    1  A    between atoms: C11_15  and  N3_16 
ROOT
HETATM    1  C1  UNL     1      22.330  12.801  47.252  1.00  0.00     0.254 C 
HETATM    2  N1  UNL     1      23.697  12.202  47.502  1.00  0.00    -0.098 N 
HETATM    3  C2  UNL     1      25.070  12.433  47.737  1.00  0.00     0.629 C 
HETATM    4  C3  UNL     1      25.915  13.469  48.047  1.00  0.00     0.047 C 
HETATM    5 CL1  UNL     1      24.939  15.021  48.199  1.00  0.00    -0.087 Cl
HETATM    6  C4  UNL     1      27.118  14.060  48.326  1.00  0.00     0.022 C 
HETATM    7  C5  UNL     1      28.387  13.576  48.434  1.00  0.00     0.003 C 
HETATM    8  C6  UNL     1      29.419  12.536  48.417  1.00  0.00     0.017 C 
HETATM    9  C7  UNL     1      29.584  11.236  48.229  1.00  0.00     0.091 C 
HETATM   10  N2  UNL     1      29.173   9.889  47.946  1.00  0.00    -0.335 N 
HETATM   11  C8  UNL     1      29.102   8.615  48.504  1.00  0.00     0.256 C 
HETATM   12  O1  UNL     1      29.565   9.245  49.450  1.00  0.00    -0.270 OA
HETATM   13  C9  UNL     1      28.565   7.590  47.561  1.00  0.00     0.160 A 
HETATM   14  C10 UNL     1      28.764   7.970  46.121  1.00  0.00     0.056 C 
HETATM   15  C11 UNL     1      29.335   6.371  47.902  1.00  0.00     0.045 A 
HETATM   16  C17 UNL     1      29.014   5.196  48.399  1.00  0.00     0.029 A 
HETATM   17  C18 UNL     1      27.606   4.925  48.704  1.00  0.00     0.019 A 
HETATM   18  C19 UNL     1      26.817   5.968  48.416  1.00  0.00     0.097 A 
HETATM   19  N5  UNL     1      27.185   7.264  47.856  1.00  0.00    -0.293 N 
HETATM   20  C20 UNL     1      26.179   8.155  47.575  1.00  0.00     0.304 C 
HETATM   21  O2  UNL     1      26.159   8.512  48.817  1.00  0.00    -0.258 OA
HETATM   22  C21 UNL     1      25.203   9.086  47.565  1.00  0.00    -0.003 C 
HETATM   23  C22 UNL     1      24.394   9.837  47.543  1.00  0.00    -0.070 C 
HETATM   24  C23 UNL     1      23.376  10.757  47.503  1.00  0.00     0.312 C 
HETATM   25  H9  UNL     1      28.891  10.179  47.024  1.00  0.00     0.168 HD
ENDROOT
BRANCH  15  26
HETATM   26  N3  UNL     1      30.762   6.371  47.636  1.00  0.00    -0.378 N 
HETATM   27  C12 UNL     1      31.646   6.658  46.501  1.00  0.00     0.153 C 
HETATM   28  C13 UNL     1      32.828   5.697  46.631  1.00  0.00     0.291 C 
HETATM   29  N4  UNL     1      33.666   6.139  47.739  1.00  0.00     0.087 N 
HETATM   30  C14 UNL     1      34.454   5.030  48.243  1.00  0.00     0.310 C 
HETATM   31  C15 UNL     1      32.869   6.667  48.809  1.00  0.00     0.291 C 
HETATM   32  C16 UNL     1      31.519   5.963  48.834  1.00  0.00     0.153 C 
ENDBRANCH  15  26
TORSDOF 1
ENDMDL
MODEL 8
REMARK VINA RESULT:      -8.6      3.872      7.499
REMARK  1 active torsions:
REMARK  status: ('A' for Active; 'I' for Inactive)
REMARK    1  A    between atoms: C11_15  and  N3_16 
ROOT
HETATM    1  C1  UNL     1      22.763  -1.310  54.966  1.00  0.00     0.254 C 
HETATM    2  N1  UNL     1      22.979  -0.224  53.933  1.00  0.00    -0.098 N 
HETATM    3  C2  UNL     1      23.897   0.482  53.127  1.00  0.00     0.629 C 
HETATM    4  C3  UNL     1      25.208   0.404  52.726  1.00  0.00     0.047 C 
HETATM    5 CL1  UNL     1      25.984  -1.084  53.479  1.00  0.00    -0.087 Cl
HETATM    6  C4  UNL     1      26.337   0.799  52.059  1.00  0.00     0.022 C 
HETATM    7  C5  UNL     1      26.604   1.841  51.223  1.00  0.00     0.003 C 
HETATM    8  C6  UNL     1      26.282   3.052  50.462  1.00  0.00     0.017 C 
HETATM    9  C7  UNL     1      25.285   3.881  50.200  1.00  0.00     0.091 C 
HETATM   10  N2  UNL     1      23.945   4.391  50.286  1.00  0.00    -0.335 N 
HETATM   11  C8  UNL     1      22.805   4.635  49.524  1.00  0.00     0.256 C 
HETATM   12  O1  UNL     1      23.535   4.136  48.675  1.00  0.00    -0.270 OA
HETATM   13  C9  UNL     1      21.701   5.269  50.305  1.00  0.00     0.160 A 
HETATM   14  C10 UNL     1      22.202   6.021  51.507  1.00  0.00     0.056 C 
HETATM   15  C11 UNL     1      21.070   6.187  49.328  1.00  0.00     0.045 A 
HETATM   16  C17 UNL     1      19.882   6.245  48.765  1.00  0.00     0.029 A 
HETATM   17  C18 UNL     1      18.883   5.237  49.128  1.00  0.00     0.019 A 
HETATM   18  C19 UNL     1      19.354   4.360  50.025  1.00  0.00     0.097 A 
HETATM   19  N5  UNL     1      20.671   4.311  50.649  1.00  0.00    -0.293 N 
HETATM   20  C20 UNL     1      20.897   3.353  51.607  1.00  0.00     0.304 C 
HETATM   21  O2  UNL     1      21.123   2.486  50.674  1.00  0.00    -0.258 OA
HETATM   22  C21 UNL     1      21.158   2.247  52.334  1.00  0.00    -0.003 C 
HETATM   23  C22 UNL     1      21.359   1.348  52.943  1.00  0.00    -0.070 C 
HETATM   24  C23 UNL     1      21.590   0.236  53.713  1.00  0.00     0.312 C 
HETATM   25  H9  UNL     1      24.085   4.567  51.267  1.00  0.00     0.168 HD
ENDROOT
BRANCH  15  26
HETATM   26  N3  UNL     1      21.848   7.315  48.852  1.00  0.00    -0.378 N 
HETATM   27  C12 UNL     1      22.433   8.536  49.419  1.00  0.00     0.153 C 
HETATM   28  C13 UNL     1      22.347   9.595  48.319  1.00  0.00     0.291 C 
HETATM   29  N4  UNL     1      23.334   9.281  47.293  1.00  0.00     0.087 N 
HETATM   30  C14 UNL     1      22.954   9.889  46.032  1.00  0.00     0.310 C 
HETATM   31  C15 UNL     1      23.450   7.863  47.109  1.00  0.00     0.291 C 
HETATM   32  C16 UNL     1      22.113   7.198  47.406  1.00  0.00     0.153 C 
ENDBRANCH  15  26
TORSDOF 1
ENDMDL
MODEL 9
REMARK VINA RESULT:      -8.6      2.694      5.349
REMARK  1 active torsions:
REMARK  status: ('A' for Active; 'I' for Inactive)
REMARK    1  A    between atoms: C11_15  and  N3_16 
ROOT
HETATM    1  C1  UNL     1      14.207   0.892  47.792  1.00  0.00     0.254 C 
HETATM    2  N1  UNL     1      15.441   1.350  48.539  1.00  0.00    -0.098 N 
HETATM    3  C2  UNL     1      16.368   2.388  48.777  1.00  0.00     0.629 C 
HETATM    4  C3  UNL     1      16.523   3.727  48.519  1.00  0.00     0.047 C 
HETATM    5 CL1  UNL     1      15.066   4.335  47.575  1.00  0.00    -0.087 Cl
HETATM    6  C4  UNL     1      17.154   4.942  48.554  1.00  0.00     0.022 C 
HETATM    7  C5  UNL     1      18.326   5.364  49.105  1.00  0.00     0.003 C 
HETATM    8  C6  UNL     1      19.574   5.207  49.858  1.00  0.00     0.017 C 
HETATM    9  C7  UNL     1      20.289   4.304  50.510  1.00  0.00     0.091 C 
HETATM   10  N2  UNL     1      20.596   3.003  51.036  1.00  0.00    -0.335 N 
HETATM   11  C8  UNL     1      20.785   2.310  52.228  1.00  0.00     0.256 C 
HETATM   12  O1  UNL     1      20.508   3.423  52.662  1.00  0.00    -0.270 OA
HETATM   13  C9  UNL     1      21.151   0.877  52.023  1.00  0.00     0.160 A 
HETATM   14  C10 UNL     1      21.794   0.632  50.687  1.00  0.00     0.056 C 
HETATM   15  C11 UNL     1      22.099   0.602  53.129  1.00  0.00     0.045 A 
HETATM   16  C17 UNL     1      22.072  -0.190  54.179  1.00  0.00     0.029 A 
HETATM   17  C18 UNL     1      20.898  -1.041  54.386  1.00  0.00     0.019 A 
HETATM   18  C19 UNL     1      19.980  -0.877  53.425  1.00  0.00     0.097 A 
HETATM   19  N5  UNL     1      20.025  -0.003  52.259  1.00  0.00    -0.293 N 
HETATM   20  C20 UNL     1      18.986  -0.065  51.363  1.00  0.00     0.304 C 
HETATM   21  O2  UNL     1      18.292   0.714  52.128  1.00  0.00    -0.258 OA
HETATM   22  C21 UNL     1      17.838   0.035  50.662  1.00  0.00    -0.003 C 
HETATM   23  C22 UNL     1      16.900   0.099  50.084  1.00  0.00    -0.070 C 
HETATM   24  C23 UNL     1      15.735   0.154  49.360  1.00  0.00     0.312 C 
HETATM   25  H9  UNL     1      20.655   2.648  50.095  1.00  0.00     0.168 HD
ENDROOT
BRANCH  15  26
HETATM   26  N3  UNL     1      23.376   1.291  53.118  1.00  0.00    -0.378 N 
HETATM   27  C12 UNL     1      23.854   2.672  52.990  1.00  0.00     0.153 C 
HETATM   28  C13 UNL     1      25.184   2.593  52.239  1.00  0.00     0.291 C 
HETATM   29  N4  UNL     1      26.192   2.046  53.139  1.00  0.00     0.087 N 
HETATM   30  C14 UNL     1      27.277   1.459  52.374  1.00  0.00     0.310 C 
HETATM   31  C15 UNL     1      25.629   1.040  53.993  1.00  0.00     0.291 C 
HETATM   32  C16 UNL     1      24.489   0.336  53.269  1.00  0.00     0.153 C 
ENDBRANCH  15  26
TORSDOF 1
ENDMDL
