MODEL 1
REMARK VINA RESULT:      -6.5      0.000      0.000
REMARK  2 active torsions:
REMARK  status: ('A' for Active; 'I' for Inactive)
REMARK    1  A    between atoms: O1_2  and  C2_3 
REMARK    2  A    between atoms: C10_14  and  O2_15 
ROOT
HETATM    1  C2  UNL     1      22.219   5.293  49.166  1.00  0.00     0.101 C 
HETATM    2  C3  UNL     1      21.241   4.577  49.736  1.00  0.00     0.033 C 
HETATM    3  C4  UNL     1      21.422   4.179  51.171  1.00  0.00     0.159 C 
HETATM    4  N1  UNL     1      22.511   4.903  51.758  1.00  0.00    -0.345 N 
HETATM    5  C5  UNL     1      23.397   4.183  52.610  1.00  0.00     0.205 C 
HETATM    6  N2  UNL     1      24.073   3.324  51.883  1.00  0.00    -0.265 NA
HETATM    7  C6  UNL     1      25.029   2.513  52.647  1.00  0.00     0.273 C 
HETATM    8  N3  UNL     1      26.322   2.498  51.945  1.00  0.00    -0.377 N 
HETATM    9  C7  UNL     1      27.365   1.749  52.632  1.00  0.00     0.150 C 
HETATM   10  C8  UNL     1      26.546   3.142  50.706  1.00  0.00     0.085 C 
HETATM   11  C9  UNL     1      26.669   3.313  49.410  1.00  0.00     0.025 C 
HETATM   12  C10 UNL     1      27.003   4.654  48.799  1.00  0.00     0.167 C 
HETATM   13  C11 UNL     1      25.994   5.668  49.110  1.00  0.00     0.040 C 
HETATM   14  C12 UNL     1      25.227   6.672  49.448  1.00  0.00     0.049 C 
HETATM   15  C13 UNL     1      26.230   7.609  49.976  1.00  0.00     0.076 C 
HETATM   16  O3  UNL     1      23.896   7.049  49.446  1.00  0.00    -0.311 OA
HETATM   17  C14 UNL     1      22.887   6.305  50.016  1.00  0.00     0.124 C 
HETATM   18  C15 UNL     1      22.286   6.223  51.216  1.00  0.00     0.132 C 
ENDROOT
BRANCH   1  19
HETATM   19  O1  UNL     1      22.545   5.049  47.822  1.00  0.00    -0.353 OA
HETATM   20  C1  UNL     1      21.862   5.797  46.851  1.00  0.00     0.210 C 
ENDBRANCH   1  19
BRANCH  12  21
HETATM   21  O2  UNL     1      28.274   5.022  49.308  1.00  0.00    -0.388 OA
HETATM   22  H16 UNL     1      28.971   4.445  48.952  1.00  0.00     0.210 HD
ENDBRANCH  12  21
TORSDOF 2
ENDMDL
MODEL 2
REMARK VINA RESULT:      -6.4      3.606      4.379
REMARK  2 active torsions:
REMARK  status: ('A' for Active; 'I' for Inactive)
REMARK    1  A    between atoms: O1_2  and  C2_3 
REMARK    2  A    between atoms: C10_14  and  O2_15 
ROOT
HETATM    1  C2  UNL     1      21.442   1.920  50.110  1.00  0.00     0.101 C 
HETATM    2  C3  UNL     1      20.498   0.976  49.998  1.00  0.00     0.033 C 
HETATM    3  C4  UNL     1      19.971   0.372  51.266  1.00  0.00     0.159 C 
HETATM    4  N1  UNL     1      20.388   1.143  52.400  1.00  0.00    -0.345 N 
HETATM    5  C5  UNL     1      20.818   0.433  53.558  1.00  0.00     0.205 C 
HETATM    6  N2  UNL     1      21.947  -0.176  53.280  1.00  0.00    -0.265 NA
HETATM    7  C6  UNL     1      22.502  -0.950  54.398  1.00  0.00     0.273 C 
HETATM    8  N3  UNL     1      23.935  -0.648  54.534  1.00  0.00    -0.377 N 
HETATM    9  C7  UNL     1      24.587  -1.334  55.639  1.00  0.00     0.150 C 
HETATM   10  C8  UNL     1      24.635   0.225  53.667  1.00  0.00     0.085 C 
HETATM   11  C9  UNL     1      25.387   0.630  52.671  1.00  0.00     0.025 C 
HETATM   12  C10 UNL     1      25.688   2.091  52.428  1.00  0.00     0.167 C 
HETATM   13  C11 UNL     1      24.474   2.871  52.184  1.00  0.00     0.040 C 
HETATM   14  C12 UNL     1      23.445   3.674  52.095  1.00  0.00     0.049 C 
HETATM   15  C13 UNL     1      23.777   4.649  53.145  1.00  0.00     0.076 C 
HETATM   16  O3  UNL     1      22.275   3.838  51.376  1.00  0.00    -0.311 OA
HETATM   17  C14 UNL     1      21.312   2.862  51.245  1.00  0.00     0.124 C 
HETATM   18  C15 UNL     1      20.200   2.486  51.901  1.00  0.00     0.132 C 
ENDROOT
BRANCH   1  19
HETATM   19  O1  UNL     1      22.478   1.961  49.163  1.00  0.00    -0.353 OA
HETATM   20  C1  UNL     1      22.112   2.156  47.823  1.00  0.00     0.210 C 
ENDBRANCH   1  19
BRANCH  12  21
HETATM   21  O2  UNL     1      26.374   2.557  53.577  1.00  0.00    -0.388 OA
HETATM   22  H16 UNL     1      25.764   2.665  54.326  1.00  0.00     0.210 HD
ENDBRANCH  12  21
TORSDOF 2
ENDMDL
MODEL 3
REMARK VINA RESULT:      -6.4      2.146      2.763
REMARK  2 active torsions:
REMARK  status: ('A' for Active; 'I' for Inactive)
REMARK    1  A    between atoms: O1_2  and  C2_3 
REMARK    2  A    between atoms: C10_14  and  O2_15 
ROOT
HETATM    1  C2  UNL     1      21.646   1.939  49.795  1.00  0.00     0.101 C 
HETATM    2  C3  UNL     1      21.351   0.721  50.267  1.00  0.00     0.033 C 
HETATM    3  C4  UNL     1      21.820   0.383  51.651  1.00  0.00     0.159 C 
HETATM    4  N1  UNL     1      22.264   1.564  52.332  1.00  0.00    -0.345 N 
HETATM    5  C5  UNL     1      23.452   1.467  53.112  1.00  0.00     0.205 C 
HETATM    6  N2  UNL     1      24.470   1.285  52.304  1.00  0.00    -0.265 NA
HETATM    7  C6  UNL     1      25.765   1.169  52.987  1.00  0.00     0.273 C 
HETATM    8  N3  UNL     1      26.751   2.024  52.308  1.00  0.00    -0.377 N 
HETATM    9  C7  UNL     1      28.070   2.018  52.923  1.00  0.00     0.150 C 
HETATM   10  C8  UNL     1      26.460   2.784  51.152  1.00  0.00     0.085 C 
HETATM   11  C9  UNL     1      26.378   3.119  49.885  1.00  0.00     0.025 C 
HETATM   12  C10 UNL     1      25.780   4.431  49.432  1.00  0.00     0.167 C 
HETATM   13  C11 UNL     1      24.381   4.569  49.839  1.00  0.00     0.040 C 
HETATM   14  C12 UNL     1      23.179   4.846  50.274  1.00  0.00     0.049 C 
HETATM   15  C13 UNL     1      23.421   6.146  50.918  1.00  0.00     0.076 C 
HETATM   16  O3  UNL     1      21.900   4.318  50.293  1.00  0.00    -0.311 OA
HETATM   17  C14 UNL     1      21.598   3.058  50.762  1.00  0.00     0.124 C 
HETATM   18  C15 UNL     1      21.244   2.507  51.936  1.00  0.00     0.132 C 
ENDROOT
BRANCH   1  19
HETATM   19  O1  UNL     1      21.977   2.080  48.437  1.00  0.00    -0.353 OA
HETATM   20  C1  UNL     1      20.990   2.603  47.589  1.00  0.00     0.210 C 
ENDBRANCH   1  19
BRANCH  12  21
HETATM   21  O2  UNL     1      26.582   5.454  49.998  1.00  0.00    -0.388 OA
HETATM   22  H16 UNL     1      27.285   5.077  50.554  1.00  0.00     0.210 HD
ENDBRANCH  12  21
TORSDOF 2
ENDMDL
MODEL 4
REMARK VINA RESULT:      -6.4      2.855      6.190
REMARK  2 active torsions:
REMARK  status: ('A' for Active; 'I' for Inactive)
REMARK    1  A    between atoms: O1_2  and  C2_3 
REMARK    2  A    between atoms: C10_14  and  O2_15 
ROOT
HETATM    1  C2  UNL     1      26.841   1.088  53.764  1.00  0.00     0.101 C 
HETATM    2  C3  UNL     1      26.489   0.208  54.710  1.00  0.00     0.033 C 
HETATM    3  C4  UNL     1      25.258  -0.615  54.466  1.00  0.00     0.159 C 
HETATM    4  N1  UNL     1      24.840  -0.498  53.100  1.00  0.00    -0.345 N 
HETATM    5  C5  UNL     1      23.445  -0.365  52.847  1.00  0.00     0.205 C 
HETATM    6  N2  UNL     1      23.046   0.801  53.298  1.00  0.00    -0.265 NA
HETATM    7  C6  UNL     1      21.615   1.065  53.098  1.00  0.00     0.273 C 
HETATM    8  N3  UNL     1      21.444   2.418  52.545  1.00  0.00    -0.377 N 
HETATM    9  C7  UNL     1      20.061   2.778  52.269  1.00  0.00     0.150 C 
HETATM   10  C8  UNL     1      22.519   3.305  52.305  1.00  0.00     0.085 C 
HETATM   11  C9  UNL     1      23.378   4.279  52.494  1.00  0.00     0.025 C 
HETATM   12  C10 UNL     1      24.447   4.623  51.482  1.00  0.00     0.167 C 
HETATM   13  C11 UNL     1      25.357   3.502  51.240  1.00  0.00     0.040 C 
HETATM   14  C12 UNL     1      26.134   2.523  50.854  1.00  0.00     0.049 C 
HETATM   15  C13 UNL     1      25.926   2.576  49.399  1.00  0.00     0.076 C 
HETATM   16  O3  UNL     1      26.989   1.568  51.372  1.00  0.00    -0.311 OA
HETATM   17  C14 UNL     1      26.634   0.673  52.358  1.00  0.00     0.124 C 
HETATM   18  C15 UNL     1      26.112  -0.564  52.418  1.00  0.00     0.132 C 
ENDROOT
BRANCH   1  19
HETATM   19  O1  UNL     1      27.375   2.327  54.153  1.00  0.00    -0.353 OA
HETATM   20  C1  UNL     1      28.736   2.547  53.893  1.00  0.00     0.210 C 
ENDBRANCH   1  19
BRANCH  12  21
HETATM   21  O2  UNL     1      23.770   4.998  50.294  1.00  0.00    -0.388 OA
HETATM   22  H16 UNL     1      23.731   5.966  50.208  1.00  0.00     0.210 HD
ENDBRANCH  12  21
TORSDOF 2
ENDMDL
MODEL 5
REMARK VINA RESULT:      -6.1      2.552      4.678
REMARK  2 active torsions:
REMARK  status: ('A' for Active; 'I' for Inactive)
REMARK    1  A    between atoms: O1_2  and  C2_3 
REMARK    2  A    between atoms: C10_14  and  O2_15 
ROOT
HETATM    1  C2  UNL     1      22.908   5.326  50.477  1.00  0.00     0.101 C 
HETATM    2  C3  UNL     1      23.962   6.152  50.483  1.00  0.00     0.033 C 
HETATM    3  C4  UNL     1      25.282   5.592  50.040  1.00  0.00     0.159 C 
HETATM    4  N1  UNL     1      25.100   4.319  49.408  1.00  0.00    -0.345 N 
HETATM    5  C5  UNL     1      26.033   3.289  49.721  1.00  0.00     0.205 C 
HETATM    6  N2  UNL     1      25.865   2.937  50.974  1.00  0.00    -0.265 NA
HETATM    7  C6  UNL     1      26.773   1.874  51.426  1.00  0.00     0.273 C 
HETATM    8  N3  UNL     1      26.001   0.852  52.150  1.00  0.00    -0.377 N 
HETATM    9  C7  UNL     1      26.795  -0.275  52.616  1.00  0.00     0.150 C 
HETATM   10  C8  UNL     1      24.610   0.947  52.388  1.00  0.00     0.085 C 
HETATM   11  C9  UNL     1      23.481   1.196  53.008  1.00  0.00     0.025 C 
HETATM   12  C10 UNL     1      22.134   0.939  52.371  1.00  0.00     0.167 C 
HETATM   13  C11 UNL     1      21.947   1.717  51.145  1.00  0.00     0.040 C 
HETATM   14  C12 UNL     1      21.741   2.258  49.972  1.00  0.00     0.049 C 
HETATM   15  C13 UNL     1      21.400   1.064  49.184  1.00  0.00     0.076 C 
HETATM   16  O3  UNL     1      21.756   3.491  49.346  1.00  0.00    -0.311 OA
HETATM   17  C14 UNL     1      22.833   4.349  49.366  1.00  0.00     0.124 C 
HETATM   18  C15 UNL     1      23.923   4.575  48.611  1.00  0.00     0.132 C 
ENDROOT
BRANCH   1  19
HETATM   19  O1  UNL     1      21.955   5.433  51.502  1.00  0.00    -0.353 OA
HETATM   20  C1  UNL     1      22.266   4.831  52.730  1.00  0.00     0.210 C 
ENDBRANCH   1  19
BRANCH  12  21
HETATM   21  O2  UNL     1      22.073  -0.453  52.110  1.00  0.00    -0.388 OA
HETATM   22  H16 UNL     1      22.436  -0.963  52.854  1.00  0.00     0.210 HD
ENDBRANCH  12  21
TORSDOF 2
ENDMDL
MODEL 6
REMARK VINA RESULT:      -6.0      7.754     10.299
REMARK  2 active torsions:
REMARK  status: ('A' for Active; 'I' for Inactive)
REMARK    1  A    between atoms: O1_2  and  C2_3 
REMARK    2  A    between atoms: C10_14  and  O2_15 
ROOT
HETATM    1  C2  UNL     1      31.220   7.362  48.437  1.00  0.00     0.101 C 
HETATM    2  C3  UNL     1      30.261   6.454  48.216  1.00  0.00     0.033 C 
HETATM    3  C4  UNL     1      30.672   5.146  47.608  1.00  0.00     0.159 C 
HETATM    4  N1  UNL     1      32.099   5.006  47.639  1.00  0.00    -0.345 N 
HETATM    5  C5  UNL     1      32.733   4.467  46.483  1.00  0.00     0.205 C 
HETATM    6  N2  UNL     1      32.620   5.331  45.502  1.00  0.00    -0.265 NA
HETATM    7  C6  UNL     1      33.237   4.893  44.243  1.00  0.00     0.273 C 
HETATM    8  N3  UNL     1      34.048   5.991  43.693  1.00  0.00    -0.377 N 
HETATM    9  C7  UNL     1      34.741   5.658  42.457  1.00  0.00     0.150 C 
HETATM   10  C8  UNL     1      34.148   7.266  44.296  1.00  0.00     0.085 C 
HETATM   11  C9  UNL     1      33.915   8.534  44.543  1.00  0.00     0.025 C 
HETATM   12  C10 UNL     1      34.650   9.297  45.621  1.00  0.00     0.167 C 
HETATM   13  C11 UNL     1      34.437   8.719  46.949  1.00  0.00     0.040 C 
HETATM   14  C12 UNL     1      34.422   8.198  48.149  1.00  0.00     0.049 C 
HETATM   15  C13 UNL     1      35.865   8.096  48.413  1.00  0.00     0.076 C 
HETATM   16  O3  UNL     1      33.532   7.768  49.117  1.00  0.00    -0.311 OA
HETATM   17  C14 UNL     1      32.534   6.848  48.888  1.00  0.00     0.124 C 
HETATM   18  C15 UNL     1      32.394   5.513  48.959  1.00  0.00     0.132 C 
ENDROOT
BRANCH   1  19
HETATM   19  O1  UNL     1      30.931   8.721  48.232  1.00  0.00    -0.353 OA
HETATM   20  C1  UNL     1      30.480   9.453  49.341  1.00  0.00     0.210 C 
ENDBRANCH   1  19
BRANCH  12  21
HETATM   21  O2  UNL     1      36.022   9.271  45.265  1.00  0.00    -0.388 OA
HETATM   22  H16 UNL     1      36.494  10.032  45.646  1.00  0.00     0.210 HD
ENDBRANCH  12  21
TORSDOF 2
ENDMDL
MODEL 7
REMARK VINA RESULT:      -6.0      7.851     10.473
REMARK  2 active torsions:
REMARK  status: ('A' for Active; 'I' for Inactive)
REMARK    1  A    between atoms: O1_2  and  C2_3 
REMARK    2  A    between atoms: C10_14  and  O2_15 
ROOT
HETATM    1  C2  UNL     1      34.190   9.417  46.300  1.00  0.00     0.101 C 
HETATM    2  C3  UNL     1      34.958   9.218  45.221  1.00  0.00     0.033 C 
HETATM    3  C4  UNL     1      34.452   8.268  44.177  1.00  0.00     0.159 C 
HETATM    4  N1  UNL     1      33.071   7.960  44.407  1.00  0.00    -0.345 N 
HETATM    5  C5  UNL     1      32.660   6.607  44.239  1.00  0.00     0.205 C 
HETATM    6  N2  UNL     1      33.207   5.882  45.188  1.00  0.00    -0.265 NA
HETATM    7  C6  UNL     1      32.861   4.457  45.129  1.00  0.00     0.273 C 
HETATM    8  N3  UNL     1      32.474   3.995  46.471  1.00  0.00    -0.377 N 
HETATM    9  C7  UNL     1      32.073   2.597  46.528  1.00  0.00     0.150 C 
HETATM   10  C8  UNL     1      32.493   4.823  47.617  1.00  0.00     0.085 C 
HETATM   11  C9  UNL     1      32.918   5.382  48.726  1.00  0.00     0.025 C 
HETATM   12  C10 UNL     1      32.106   6.414  49.474  1.00  0.00     0.167 C 
HETATM   13  C11 UNL     1      31.837   7.601  48.659  1.00  0.00     0.040 C 
HETATM   14  C12 UNL     1      31.428   8.634  47.969  1.00  0.00     0.049 C 
HETATM   15  C13 UNL     1      29.978   8.553  48.204  1.00  0.00     0.076 C 
HETATM   16  O3  UNL     1      31.921   9.655  47.178  1.00  0.00    -0.311 OA
HETATM   17  C14 UNL     1      32.726   9.453  46.078  1.00  0.00     0.124 C 
HETATM   18  C15 UNL     1      32.555   9.263  44.758  1.00  0.00     0.132 C 
ENDROOT
BRANCH   1  19
HETATM   19  O1  UNL     1      34.805   9.578  47.552  1.00  0.00    -0.353 OA
HETATM   20  C1  UNL     1      35.360   8.433  48.144  1.00  0.00     0.210 C 
ENDBRANCH   1  19
BRANCH  12  21
HETATM   21  O2  UNL     1      30.901   5.775  49.861  1.00  0.00    -0.388 OA
HETATM   22  H16 UNL     1      30.429   5.426  49.085  1.00  0.00     0.210 HD
ENDBRANCH  12  21
TORSDOF 2
ENDMDL
MODEL 8
REMARK VINA RESULT:      -6.0      3.459      6.169
REMARK  2 active torsions:
REMARK  status: ('A' for Active; 'I' for Inactive)
REMARK    1  A    between atoms: O1_2  and  C2_3 
REMARK    2  A    between atoms: C10_14  and  O2_15 
ROOT
HETATM    1  C2  UNL     1      23.898   3.454  51.912  1.00  0.00     0.101 C 
HETATM    2  C3  UNL     1      24.465   3.236  53.106  1.00  0.00     0.033 C 
HETATM    3  C4  UNL     1      24.410   1.841  53.654  1.00  0.00     0.159 C 
HETATM    4  N1  UNL     1      23.994   0.919  52.638  1.00  0.00    -0.345 N 
HETATM    5  C5  UNL     1      23.065  -0.095  53.008  1.00  0.00     0.205 C 
HETATM    6  N2  UNL     1      21.911   0.471  53.275  1.00  0.00    -0.265 NA
HETATM    7  C6  UNL     1      20.858  -0.472  53.672  1.00  0.00     0.273 C 
HETATM    8  N3  UNL     1      19.626  -0.166  52.928  1.00  0.00    -0.377 N 
HETATM    9  C7  UNL     1      18.517  -1.064  53.215  1.00  0.00     0.150 C 
HETATM   10  C8  UNL     1      19.511   0.910  52.017  1.00  0.00     0.085 C 
HETATM   11  C9  UNL     1      19.226   2.102  51.548  1.00  0.00     0.025 C 
HETATM   12  C10 UNL     1      19.505   2.496  50.117  1.00  0.00     0.167 C 
HETATM   13  C11 UNL     1      20.930   2.412  49.790  1.00  0.00     0.040 C 
HETATM   14  C12 UNL     1      22.154   2.234  49.363  1.00  0.00     0.049 C 
HETATM   15  C13 UNL     1      21.906   1.379  48.192  1.00  0.00     0.076 C 
HETATM   16  O3  UNL     1      23.456   2.586  49.671  1.00  0.00    -0.311 OA
HETATM   17  C14 UNL     1      24.035   2.379  50.903  1.00  0.00     0.124 C 
HETATM   18  C15 UNL     1      24.744   1.407  51.503  1.00  0.00     0.132 C 
ENDROOT
BRANCH   1  19
HETATM   19  O1  UNL     1      23.221   4.664  51.692  1.00  0.00    -0.353 OA
HETATM   20  C1  UNL     1      21.956   4.806  52.283  1.00  0.00     0.210 C 
ENDBRANCH   1  19
BRANCH  12  21
HETATM   21  O2  UNL     1      18.740   1.624  49.303  1.00  0.00    -0.388 OA
HETATM   22  H16 UNL     1      17.803   1.882  49.302  1.00  0.00     0.210 HD
ENDBRANCH  12  21
TORSDOF 2
ENDMDL
MODEL 9
REMARK VINA RESULT:      -5.8      6.003      8.922
REMARK  2 active torsions:
REMARK  status: ('A' for Active; 'I' for Inactive)
REMARK    1  A    between atoms: O1_2  and  C2_3 
REMARK    2  A    between atoms: C10_14  and  O2_15 
ROOT
HETATM    1  C2  UNL     1      31.965   8.624  45.644  1.00  0.00     0.101 C 
HETATM    2  C3  UNL     1      31.866   9.902  45.257  1.00  0.00     0.033 C 
HETATM    3  C4  UNL     1      31.501  10.915  46.302  1.00  0.00     0.159 C 
HETATM    4  N1  UNL     1      31.605  10.343  47.612  1.00  0.00    -0.345 N 
HETATM    5  C5  UNL     1      30.579  10.654  48.550  1.00  0.00     0.205 C 
HETATM    6  N2  UNL     1      29.463  10.089  48.153  1.00  0.00    -0.265 NA
HETATM    7  C6  UNL     1      28.318  10.333  49.040  1.00  0.00     0.273 C 
HETATM    8  N3  UNL     1      27.620   9.063  49.293  1.00  0.00    -0.377 N 
HETATM    9  C7  UNL     1      26.483   9.176  50.194  1.00  0.00     0.150 C 
HETATM   10  C8  UNL     1      28.004   7.832  48.711  1.00  0.00     0.085 C 
HETATM   11  C9  UNL     1      28.027   6.815  47.882  1.00  0.00     0.025 C 
HETATM   12  C10 UNL     1      28.986   5.659  48.045  1.00  0.00     0.167 C 
HETATM   13  C11 UNL     1      30.384   6.089  47.983  1.00  0.00     0.040 C 
HETATM   14  C12 UNL     1      31.653   6.391  48.082  1.00  0.00     0.049 C 
HETATM   15  C13 UNL     1      31.981   5.747  49.363  1.00  0.00     0.076 C 
HETATM   16  O3  UNL     1      32.648   7.066  47.399  1.00  0.00    -0.311 OA
HETATM   17  C14 UNL     1      32.541   8.376  46.985  1.00  0.00     0.124 C 
HETATM   18  C15 UNL     1      32.831   9.590  47.484  1.00  0.00     0.132 C 
ENDROOT
BRANCH   1  19
HETATM   19  O1  UNL     1      31.525   7.614  44.772  1.00  0.00    -0.353 OA
HETATM   20  C1  UNL     1      32.428   7.178  43.791  1.00  0.00     0.210 C 
ENDBRANCH   1  19
BRANCH  12  21
HETATM   21  O2  UNL     1      28.688   5.064  49.297  1.00  0.00    -0.388 OA
HETATM   22  H16 UNL     1      27.930   4.459  49.223  1.00  0.00     0.210 HD
ENDBRANCH  12  21
TORSDOF 2
ENDMDL
