MODEL 1
REMARK VINA RESULT:      -7.4      0.000      0.000
REMARK  7 active torsions:
REMARK  status: ('A' for Active; 'I' for Inactive)
REMARK    1  A    between atoms: C2_2  and  N1_3 
REMARK    2  A    between atoms: N1_3  and  C3_4 
REMARK    3  A    between atoms: N1_3  and  C5_6 
REMARK    4  A    between atoms: C5_6  and  C6_7 
REMARK    5  A    between atoms: C6_7  and  C7_8 
REMARK    6  A    between atoms: C7_8  and  C8_9 
REMARK       I    between atoms: C8_9  and  N2_11 
REMARK    7  A    between atoms: C13_19  and  C14_20 
ROOT
HETATM    1  C8  UNL     1      23.755   0.513  52.703  1.00  0.00     0.304 C 
HETATM    2  O1  UNL     1      24.362   1.034  51.691  1.00  0.00    -0.258 OA
HETATM    3  N2  UNL     1      22.533   0.026  53.329  1.00  0.00    -0.284 N 
HETATM    4  C9  UNL     1      22.791  -0.991  54.301  1.00  0.00     0.282 C 
HETATM    5  N3  UNL     1      21.637  -1.790  54.583  1.00  0.00    -0.279 NA
HETATM    6  C10 UNL     1      20.447  -1.622  54.186  1.00  0.00     0.146 C 
HETATM    7  C11 UNL     1      20.128  -0.505  53.310  1.00  0.00     0.104 A 
HETATM    8  N4  UNL     1      18.904  -0.174  52.854  1.00  0.00    -0.238 NA
HETATM    9  C12 UNL     1      18.745   0.919  52.052  1.00  0.00     0.234 A 
HETATM   10  N5  UNL     1      19.810   1.701  51.697  1.00  0.00    -0.239 NA
HETATM   11  C13 UNL     1      21.048   1.376  52.151  1.00  0.00     0.098 A 
HETATM   12  C20 UNL     1      21.197   0.277  52.944  1.00  0.00     0.099 A 
ENDROOT
BRANCH   1  13
HETATM   13  C7  UNL     1      24.938   0.411  53.562  1.00  0.00    -0.003 C 
BRANCH  13  14
HETATM   14  C6  UNL     1      25.945   0.346  54.283  1.00  0.00    -0.077 C 
BRANCH  14  15
HETATM   15  C5  UNL     1      27.134   0.251  55.126  1.00  0.00     0.212 C 
BRANCH  15  16
HETATM   16  N1  UNL     1      28.342   0.233  54.350  1.00  0.00    -0.403 N 
BRANCH  16  17
HETATM   17  C2  UNL     1      28.442  -0.712  53.329  1.00  0.00     0.113 C 
HETATM   18  C1  UNL     1      29.721  -1.506  53.395  1.00  0.00     0.026 C 
ENDBRANCH  16  17
BRANCH  16  19
HETATM   19  C3  UNL     1      29.181   1.346  54.434  1.00  0.00     0.113 C 
HETATM   20  C4  UNL     1      28.748   2.493  53.595  1.00  0.00     0.026 C 
ENDBRANCH  16  19
ENDBRANCH  15  16
ENDBRANCH  14  15
ENDBRANCH  13  14
ENDBRANCH   1  13
BRANCH  11  21
HETATM   21  C14 UNL     1      21.960   2.422  51.712  1.00  0.00    -0.003 A 
HETATM   22  C15 UNL     1      22.481   3.269  52.716  1.00  0.00     0.017 A 
HETATM   23  C16 UNL     1      23.322   4.293  52.338  1.00  0.00     0.045 A 
HETATM   24  C17 UNL     1      23.629   4.458  50.987  1.00  0.00     0.138 A 
HETATM   25  F1  UNL     1      24.440   5.433  50.546  1.00  0.00    -0.204 F 
HETATM   26  C18 UNL     1      23.108   3.620  50.026  1.00  0.00     0.073 A 
HETATM   27 CL1  UNL     1      23.488   3.823  48.325  1.00  0.00    -0.081 Cl
HETATM   28  C19 UNL     1      22.256   2.573  50.348  1.00  0.00     0.041 A 
ENDBRANCH  11  21
TORSDOF 7
ENDMDL
MODEL 2
REMARK VINA RESULT:      -7.4      3.448      5.764
REMARK  7 active torsions:
REMARK  status: ('A' for Active; 'I' for Inactive)
REMARK    1  A    between atoms: C2_2  and  N1_3 
REMARK    2  A    between atoms: N1_3  and  C3_4 
REMARK    3  A    between atoms: N1_3  and  C5_6 
REMARK    4  A    between atoms: C5_6  and  C6_7 
REMARK    5  A    between atoms: C6_7  and  C7_8 
REMARK    6  A    between atoms: C7_8  and  C8_9 
REMARK       I    between atoms: C8_9  and  N2_11 
REMARK    7  A    between atoms: C13_19  and  C14_20 
ROOT
HETATM    1  C8  UNL     1      24.508   2.314  52.529  1.00  0.00     0.304 C 
HETATM    2  O1  UNL     1      25.688   2.469  53.028  1.00  0.00    -0.258 OA
HETATM    3  N2  UNL     1      23.169   1.747  52.606  1.00  0.00    -0.284 N 
HETATM    4  C9  UNL     1      22.200   2.551  51.928  1.00  0.00     0.282 C 
HETATM    5  N3  UNL     1      20.862   2.287  52.363  1.00  0.00    -0.279 NA
HETATM    6  C10 UNL     1      20.453   1.379  53.145  1.00  0.00     0.146 C 
HETATM    7  C11 UNL     1      21.405   0.452  53.736  1.00  0.00     0.104 A 
HETATM    8  N4  UNL     1      21.109  -0.589  54.539  1.00  0.00    -0.238 NA
HETATM    9  C12 UNL     1      22.105  -1.396  55.008  1.00  0.00     0.234 A 
HETATM   10  N5  UNL     1      23.414  -1.175  54.678  1.00  0.00    -0.239 NA
HETATM   11  C13 UNL     1      23.723  -0.128  53.869  1.00  0.00     0.098 A 
HETATM   12  C20 UNL     1      22.721   0.678  53.414  1.00  0.00     0.099 A 
ENDROOT
BRANCH   1  13
HETATM   13  C7  UNL     1      24.737   3.123  51.328  1.00  0.00    -0.003 C 
BRANCH  13  14
HETATM   14  C6  UNL     1      24.952   3.803  50.314  1.00  0.00    -0.077 C 
BRANCH  14  15
HETATM   15  C5  UNL     1      25.196   4.619  49.127  1.00  0.00     0.212 C 
BRANCH  15  16
HETATM   16  N1  UNL     1      25.938   5.808  49.436  1.00  0.00    -0.403 N 
BRANCH  16  17
HETATM   17  C2  UNL     1      26.999   6.147  48.597  1.00  0.00     0.113 C 
HETATM   18  C1  UNL     1      28.056   5.075  48.532  1.00  0.00     0.026 C 
ENDBRANCH  16  17
BRANCH  16  19
HETATM   19  C3  UNL     1      25.365   6.713  50.333  1.00  0.00     0.113 C 
HETATM   20  C4  UNL     1      25.696   8.134  50.050  1.00  0.00     0.026 C 
ENDBRANCH  16  19
ENDBRANCH  15  16
ENDBRANCH  14  15
ENDBRANCH  13  14
ENDBRANCH   1  13
BRANCH  11  21
HETATM   21  C14 UNL     1      25.152  -0.192  53.603  1.00  0.00    -0.003 A 
HETATM   22  C15 UNL     1      25.535  -0.598  52.304  1.00  0.00     0.017 A 
HETATM   23  C16 UNL     1      26.879  -0.704  52.020  1.00  0.00     0.045 A 
HETATM   24  C17 UNL     1      27.811  -0.410  53.017  1.00  0.00     0.138 A 
HETATM   25  F1  UNL     1      29.135  -0.492  52.812  1.00  0.00    -0.204 F 
HETATM   26  C18 UNL     1      27.413  -0.017  54.275  1.00  0.00     0.073 A 
HETATM   27 CL1  UNL     1      28.578   0.353  55.535  1.00  0.00    -0.081 Cl
HETATM   28  C19 UNL     1      26.074   0.107  54.618  1.00  0.00     0.041 A 
ENDBRANCH  11  21
TORSDOF 7
ENDMDL
MODEL 3
REMARK VINA RESULT:      -7.1      2.157      6.671
REMARK  7 active torsions:
REMARK  status: ('A' for Active; 'I' for Inactive)
REMARK    1  A    between atoms: C2_2  and  N1_3 
REMARK    2  A    between atoms: N1_3  and  C3_4 
REMARK    3  A    between atoms: N1_3  and  C5_6 
REMARK    4  A    between atoms: C5_6  and  C6_7 
REMARK    5  A    between atoms: C6_7  and  C7_8 
REMARK    6  A    between atoms: C7_8  and  C8_9 
REMARK       I    between atoms: C8_9  and  N2_11 
REMARK    7  A    between atoms: C13_19  and  C14_20 
ROOT
HETATM    1  C8  UNL     1      21.184   1.071  53.016  1.00  0.00     0.304 C 
HETATM    2  O1  UNL     1      21.006   2.319  52.738  1.00  0.00    -0.258 OA
HETATM    3  N2  UNL     1      22.009   0.005  53.569  1.00  0.00    -0.284 N 
HETATM    4  C9  UNL     1      21.226  -1.084  54.065  1.00  0.00     0.282 C 
HETATM    5  N3  UNL     1      21.942  -1.897  54.999  1.00  0.00    -0.279 NA
HETATM    6  C10 UNL     1      23.165  -1.839  55.319  1.00  0.00     0.146 C 
HETATM    7  C11 UNL     1      24.022  -0.829  54.717  1.00  0.00     0.104 A 
HETATM    8  N4  UNL     1      25.345  -0.682  54.921  1.00  0.00    -0.238 NA
HETATM    9  C12 UNL     1      26.033   0.301  54.270  1.00  0.00     0.234 A 
HETATM   10  N5  UNL     1      25.407   1.152  53.401  1.00  0.00    -0.239 NA
HETATM   11  C13 UNL     1      24.072   1.012  53.189  1.00  0.00     0.098 A 
HETATM   12  C20 UNL     1      23.393   0.033  53.851  1.00  0.00     0.099 A 
ENDROOT
BRANCH   1  13
HETATM   13  C7  UNL     1      19.904   0.604  52.476  1.00  0.00    -0.003 C 
BRANCH  13  14
HETATM   14  C6  UNL     1      18.830   0.189  52.015  1.00  0.00    -0.077 C 
BRANCH  14  15
HETATM   15  C5  UNL     1      17.562  -0.309  51.488  1.00  0.00     0.212 C 
BRANCH  15  16
HETATM   16  N1  UNL     1      16.890  -1.164  52.425  1.00  0.00    -0.403 N 
BRANCH  16  17
HETATM   17  C2  UNL     1      17.663  -1.780  53.409  1.00  0.00     0.113 C 
HETATM   18  C1  UNL     1      17.369  -3.251  53.545  1.00  0.00     0.026 C 
ENDBRANCH  16  17
BRANCH  16  19
HETATM   19  C3  UNL     1      15.499  -1.067  52.507  1.00  0.00     0.113 C 
HETATM   20  C4  UNL     1      15.007   0.302  52.813  1.00  0.00     0.026 C 
ENDBRANCH  16  19
ENDBRANCH  15  16
ENDBRANCH  14  15
ENDBRANCH  13  14
ENDBRANCH   1  13
BRANCH  11  21
HETATM   21  C14 UNL     1      23.696   1.966  52.156  1.00  0.00    -0.003 A 
HETATM   22  C15 UNL     1      23.285   1.425  50.916  1.00  0.00     0.017 A 
HETATM   23  C16 UNL     1      22.951   2.295  49.900  1.00  0.00     0.045 A 
HETATM   24  C17 UNL     1      23.030   3.669  50.127  1.00  0.00     0.138 A 
HETATM   25  F1  UNL     1      22.721   4.574  49.185  1.00  0.00    -0.204 F 
HETATM   26  C18 UNL     1      23.434   4.172  51.344  1.00  0.00     0.073 A 
HETATM   27 CL1  UNL     1      23.536   5.900  51.637  1.00  0.00    -0.081 Cl
HETATM   28  C19 UNL     1      23.781   3.345  52.403  1.00  0.00     0.041 A 
ENDBRANCH  11  21
TORSDOF 7
ENDMDL
MODEL 4
REMARK VINA RESULT:      -6.9      3.535      6.072
REMARK  7 active torsions:
REMARK  status: ('A' for Active; 'I' for Inactive)
REMARK    1  A    between atoms: C2_2  and  N1_3 
REMARK    2  A    between atoms: N1_3  and  C3_4 
REMARK    3  A    between atoms: N1_3  and  C5_6 
REMARK    4  A    between atoms: C5_6  and  C6_7 
REMARK    5  A    between atoms: C6_7  and  C7_8 
REMARK    6  A    between atoms: C7_8  and  C8_9 
REMARK       I    between atoms: C8_9  and  N2_11 
REMARK    7  A    between atoms: C13_19  and  C14_20 
ROOT
HETATM    1  C8  UNL     1      23.799   2.885  50.088  1.00  0.00     0.304 C 
HETATM    2  O1  UNL     1      22.701   2.712  49.433  1.00  0.00    -0.258 OA
HETATM    3  N2  UNL     1      24.772   2.420  51.068  1.00  0.00    -0.284 N 
HETATM    4  C9  UNL     1      26.086   2.919  50.805  1.00  0.00     0.282 C 
HETATM    5  N3  UNL     1      27.108   2.142  51.437  1.00  0.00    -0.279 NA
HETATM    6  C10 UNL     1      26.977   1.191  52.263  1.00  0.00     0.146 C 
HETATM    7  C11 UNL     1      25.647   0.758  52.661  1.00  0.00     0.104 A 
HETATM    8  N4  UNL     1      25.358  -0.199  53.564  1.00  0.00    -0.238 NA
HETATM    9  C12 UNL     1      24.058  -0.491  53.859  1.00  0.00     0.234 A 
HETATM   10  N5  UNL     1      23.025   0.174  53.257  1.00  0.00    -0.239 NA
HETATM   11  C13 UNL     1      23.306   1.140  52.344  1.00  0.00     0.098 A 
HETATM   12  C20 UNL     1      24.608   1.417  52.050  1.00  0.00     0.099 A 
ENDROOT
BRANCH   1  13
HETATM   13  C7  UNL     1      24.133   4.184  49.498  1.00  0.00    -0.003 C 
BRANCH  13  14
HETATM   14  C6  UNL     1      24.396   5.284  48.988  1.00  0.00    -0.077 C 
BRANCH  14  15
HETATM   15  C5  UNL     1      24.701   6.572  48.370  1.00  0.00     0.212 C 
BRANCH  15  16
HETATM   16  N1  UNL     1      25.964   7.092  48.811  1.00  0.00    -0.403 N 
BRANCH  16  17
HETATM   17  C2  UNL     1      26.047   7.573  50.117  1.00  0.00     0.113 C 
HETATM   18  C1  UNL     1      26.844   8.847  50.219  1.00  0.00     0.026 C 
ENDBRANCH  16  17
BRANCH  16  19
HETATM   19  C3  UNL     1      27.092   6.787  48.045  1.00  0.00     0.113 C 
HETATM   20  C4  UNL     1      27.798   5.553  48.477  1.00  0.00     0.026 C 
ENDBRANCH  16  19
ENDBRANCH  15  16
ENDBRANCH  14  15
ENDBRANCH  13  14
ENDBRANCH   1  13
BRANCH  11  21
HETATM   21  C14 UNL     1      22.042   1.743  51.948  1.00  0.00    -0.003 A 
HETATM   22  C15 UNL     1      21.817   3.074  52.369  1.00  0.00     0.017 A 
HETATM   23  C16 UNL     1      20.619   3.670  52.042  1.00  0.00     0.045 A 
HETATM   24  C17 UNL     1      19.674   2.947  51.314  1.00  0.00     0.138 A 
HETATM   25  F1  UNL     1      18.486   3.463  50.962  1.00  0.00    -0.204 F 
HETATM   26  C18 UNL     1      19.916   1.651  50.916  1.00  0.00     0.073 A 
HETATM   27 CL1  UNL     1      18.732   0.733  50.000  1.00  0.00    -0.081 Cl
HETATM   28  C19 UNL     1      21.104   0.999  51.215  1.00  0.00     0.041 A 
ENDBRANCH  11  21
TORSDOF 7
ENDMDL
MODEL 5
REMARK VINA RESULT:      -6.7      3.316      5.677
REMARK  7 active torsions:
REMARK  status: ('A' for Active; 'I' for Inactive)
REMARK    1  A    between atoms: C2_2  and  N1_3 
REMARK    2  A    between atoms: N1_3  and  C3_4 
REMARK    3  A    between atoms: N1_3  and  C5_6 
REMARK    4  A    between atoms: C5_6  and  C6_7 
REMARK    5  A    between atoms: C6_7  and  C7_8 
REMARK    6  A    between atoms: C7_8  and  C8_9 
REMARK       I    between atoms: C8_9  and  N2_11 
REMARK    7  A    between atoms: C13_19  and  C14_20 
ROOT
HETATM    1  C8  UNL     1      23.730   3.344  52.793  1.00  0.00     0.304 C 
HETATM    2  O1  UNL     1      24.837   3.377  53.454  1.00  0.00    -0.258 OA
HETATM    3  N2  UNL     1      22.448   2.713  52.505  1.00  0.00    -0.284 N 
HETATM    4  C9  UNL     1      21.478   3.651  52.033  1.00  0.00     0.282 C 
HETATM    5  N3  UNL     1      20.135   3.178  52.184  1.00  0.00    -0.279 NA
HETATM    6  C10 UNL     1      19.740   2.032  52.549  1.00  0.00     0.146 C 
HETATM    7  C11 UNL     1      20.715   1.009  52.897  1.00  0.00     0.104 A 
HETATM    8  N4  UNL     1      20.443  -0.262  53.250  1.00  0.00    -0.238 NA
HETATM    9  C12 UNL     1      21.461  -1.127  53.531  1.00  0.00     0.234 A 
HETATM   10  N5  UNL     1      22.769  -0.733  53.459  1.00  0.00    -0.239 NA
HETATM   11  C13 UNL     1      23.053   0.547  53.105  1.00  0.00     0.098 A 
HETATM   12  C20 UNL     1      22.029   1.405  52.835  1.00  0.00     0.099 A 
ENDROOT
BRANCH   1  13
HETATM   13  C7  UNL     1      23.995   4.535  51.981  1.00  0.00    -0.003 C 
BRANCH  13  14
HETATM   14  C6  UNL     1      24.233   5.550  51.309  1.00  0.00    -0.077 C 
BRANCH  14  15
HETATM   15  C5  UNL     1      24.520   6.735  50.505  1.00  0.00     0.212 C 
BRANCH  15  16
HETATM   16  N1  UNL     1      25.484   6.464  49.476  1.00  0.00    -0.403 N 
BRANCH  16  17
HETATM   17  C2  UNL     1      26.375   7.482  49.138  1.00  0.00     0.113 C 
HETATM   18  C1  UNL     1      26.533   8.504  50.233  1.00  0.00     0.026 C 
ENDBRANCH  16  17
BRANCH  16  19
HETATM   19  C3  UNL     1      25.690   5.129  49.119  1.00  0.00     0.113 C 
HETATM   20  C4  UNL     1      27.114   4.785  48.871  1.00  0.00     0.026 C 
ENDBRANCH  16  19
ENDBRANCH  15  16
ENDBRANCH  14  15
ENDBRANCH  13  14
ENDBRANCH   1  13
BRANCH  11  21
HETATM   21  C14 UNL     1      24.501   0.659  53.009  1.00  0.00    -0.003 A 
HETATM   22  C15 UNL     1      25.026   0.996  51.740  1.00  0.00     0.017 A 
HETATM   23  C16 UNL     1      26.395   1.080  51.599  1.00  0.00     0.045 A 
HETATM   24  C17 UNL     1      27.210   0.830  52.704  1.00  0.00     0.138 A 
HETATM   25  F1  UNL     1      28.549   0.893  52.639  1.00  0.00    -0.204 F 
HETATM   26  C18 UNL     1      26.674   0.504  53.930  1.00  0.00     0.073 A 
HETATM   27 CL1  UNL     1      27.693   0.188  55.324  1.00  0.00    -0.081 Cl
HETATM   28  C19 UNL     1      25.305   0.405  54.131  1.00  0.00     0.041 A 
ENDBRANCH  11  21
TORSDOF 7
ENDMDL
MODEL 6
REMARK VINA RESULT:      -6.7      3.416      5.424
REMARK  7 active torsions:
REMARK  status: ('A' for Active; 'I' for Inactive)
REMARK    1  A    between atoms: C2_2  and  N1_3 
REMARK    2  A    between atoms: N1_3  and  C3_4 
REMARK    3  A    between atoms: N1_3  and  C5_6 
REMARK    4  A    between atoms: C5_6  and  C6_7 
REMARK    5  A    between atoms: C6_7  and  C7_8 
REMARK    6  A    between atoms: C7_8  and  C8_9 
REMARK       I    between atoms: C8_9  and  N2_11 
REMARK    7  A    between atoms: C13_19  and  C14_20 
ROOT
HETATM    1  C8  UNL     1      24.916   2.965  51.626  1.00  0.00     0.304 C 
HETATM    2  O1  UNL     1      24.122   2.899  52.641  1.00  0.00    -0.258 OA
HETATM    3  N2  UNL     1      25.396   3.664  50.441  1.00  0.00    -0.284 N 
HETATM    4  C9  UNL     1      26.766   3.371  50.158  1.00  0.00     0.282 C 
HETATM    5  N3  UNL     1      27.379   4.356  49.320  1.00  0.00    -0.279 NA
HETATM    6  C10 UNL     1      26.836   5.335  48.728  1.00  0.00     0.146 C 
HETATM    7  C11 UNL     1      25.409   5.571  48.883  1.00  0.00     0.104 A 
HETATM    8  N4  UNL     1      24.690   6.536  48.276  1.00  0.00    -0.238 NA
HETATM    9  C12 UNL     1      23.347   6.630  48.497  1.00  0.00     0.234 A 
HETATM   10  N5  UNL     1      22.699   5.756  49.326  1.00  0.00    -0.239 NA
HETATM   11  C13 UNL     1      23.415   4.779  49.944  1.00  0.00     0.098 A 
HETATM   12  C20 UNL     1      24.758   4.700  49.724  1.00  0.00     0.099 A 
ENDROOT
BRANCH   1  13
HETATM   13  C7  UNL     1      25.605   1.697  51.881  1.00  0.00    -0.003 C 
BRANCH  13  14
HETATM   14  C6  UNL     1      26.193   0.631  52.117  1.00  0.00    -0.077 C 
BRANCH  14  15
HETATM   15  C5  UNL     1      26.897  -0.622  52.380  1.00  0.00     0.212 C 
BRANCH  15  16
HETATM   16  N1  UNL     1      28.027  -0.430  53.244  1.00  0.00    -0.403 N 
BRANCH  16  17
HETATM   17  C2  UNL     1      27.880   0.445  54.320  1.00  0.00     0.113 C 
HETATM   18  C1  UNL     1      29.125   1.247  54.593  1.00  0.00     0.026 C 
ENDBRANCH  16  17
BRANCH  16  19
HETATM   19  C3  UNL     1      29.069  -1.357  53.161  1.00  0.00     0.113 C 
HETATM   20  C4  UNL     1      28.615  -2.769  53.082  1.00  0.00     0.026 C 
ENDBRANCH  16  19
ENDBRANCH  15  16
ENDBRANCH  14  15
ENDBRANCH  13  14
ENDBRANCH   1  13
BRANCH  11  21
HETATM   21  C14 UNL     1      22.471   3.944  50.671  1.00  0.00    -0.003 A 
HETATM   22  C15 UNL     1      21.840   4.532  51.791  1.00  0.00     0.017 A 
HETATM   23  C16 UNL     1      20.963   3.764  52.527  1.00  0.00     0.045 A 
HETATM   24  C17 UNL     1      20.730   2.442  52.145  1.00  0.00     0.138 A 
HETATM   25  F1  UNL     1      19.891   1.636  52.814  1.00  0.00    -0.204 F 
HETATM   26  C18 UNL     1      21.357   1.892  51.049  1.00  0.00     0.073 A 
HETATM   27 CL1  UNL     1      21.070   0.230  50.563  1.00  0.00    -0.081 Cl
HETATM   28  C19 UNL     1      22.249   2.617  50.271  1.00  0.00     0.041 A 
ENDBRANCH  11  21
TORSDOF 7
ENDMDL
MODEL 7
REMARK VINA RESULT:      -6.7      2.209      6.919
REMARK  7 active torsions:
REMARK  status: ('A' for Active; 'I' for Inactive)
REMARK    1  A    between atoms: C2_2  and  N1_3 
REMARK    2  A    between atoms: N1_3  and  C3_4 
REMARK    3  A    between atoms: N1_3  and  C5_6 
REMARK    4  A    between atoms: C5_6  and  C6_7 
REMARK    5  A    between atoms: C6_7  and  C7_8 
REMARK    6  A    between atoms: C7_8  and  C8_9 
REMARK       I    between atoms: C8_9  and  N2_11 
REMARK    7  A    between atoms: C13_19  and  C14_20 
ROOT
HETATM    1  C8  UNL     1      20.978   0.812  53.106  1.00  0.00     0.304 C 
HETATM    2  O1  UNL     1      20.720   2.031  52.770  1.00  0.00    -0.258 OA
HETATM    3  N2  UNL     1      21.891  -0.179  53.659  1.00  0.00    -0.284 N 
HETATM    4  C9  UNL     1      21.199  -1.270  54.273  1.00  0.00     0.282 C 
HETATM    5  N3  UNL     1      22.017  -1.992  55.199  1.00  0.00    -0.279 NA
HETATM    6  C10 UNL     1      23.256  -1.858  55.425  1.00  0.00     0.146 C 
HETATM    7  C11 UNL     1      24.018  -0.850  54.705  1.00  0.00     0.104 A 
HETATM    8  N4  UNL     1      25.343  -0.632  54.804  1.00  0.00    -0.238 NA
HETATM    9  C12 UNL     1      25.935   0.339  54.049  1.00  0.00     0.234 A 
HETATM   10  N5  UNL     1      25.209   1.106  53.179  1.00  0.00    -0.239 NA
HETATM   11  C13 UNL     1      23.871   0.894  53.073  1.00  0.00     0.098 A 
HETATM   12  C20 UNL     1      23.288  -0.072  53.838  1.00  0.00     0.099 A 
ENDROOT
BRANCH   1  13
HETATM   13  C7  UNL     1      19.688   0.256  52.688  1.00  0.00    -0.003 C 
BRANCH  13  14
HETATM   14  C6  UNL     1      18.587  -0.195  52.340  1.00  0.00    -0.077 C 
BRANCH  14  15
HETATM   15  C5  UNL     1      17.282  -0.722  51.946  1.00  0.00     0.212 C 
BRANCH  15  16
HETATM   16  N1  UNL     1      16.555   0.205  51.126  1.00  0.00    -0.403 N 
BRANCH  16  17
HETATM   17  C2  UNL     1      15.972   1.306  51.752  1.00  0.00     0.113 C 
HETATM   18  C1  UNL     1      14.835   0.923  52.662  1.00  0.00     0.026 C 
ENDBRANCH  16  17
BRANCH  16  19
HETATM   19  C3  UNL     1      16.752   0.137  49.744  1.00  0.00     0.113 C 
HETATM   20  C4  UNL     1      15.967  -0.932  49.075  1.00  0.00     0.026 C 
ENDBRANCH  16  19
ENDBRANCH  15  16
ENDBRANCH  14  15
ENDBRANCH  13  14
ENDBRANCH   1  13
BRANCH  11  21
HETATM   21  C14 UNL     1      23.377   1.764  52.016  1.00  0.00    -0.003 A 
HETATM   22  C15 UNL     1      23.378   3.151  52.287  1.00  0.00     0.017 A 
HETATM   23  C16 UNL     1      22.888   4.007  51.325  1.00  0.00     0.045 A 
HETATM   24  C17 UNL     1      22.410   3.480  50.124  1.00  0.00     0.138 A 
HETATM   25  F1  UNL     1      21.918   4.253  49.143  1.00  0.00    -0.204 F 
HETATM   26  C18 UNL     1      22.419   2.124  49.883  1.00  0.00     0.073 A 
HETATM   27 CL1  UNL     1      21.818   1.454  48.376  1.00  0.00    -0.081 Cl
HETATM   28  C19 UNL     1      22.901   1.215  50.814  1.00  0.00     0.041 A 
ENDBRANCH  11  21
TORSDOF 7
ENDMDL
MODEL 8
REMARK VINA RESULT:      -6.7      2.374      7.161
REMARK  7 active torsions:
REMARK  status: ('A' for Active; 'I' for Inactive)
REMARK    1  A    between atoms: C2_2  and  N1_3 
REMARK    2  A    between atoms: N1_3  and  C3_4 
REMARK    3  A    between atoms: N1_3  and  C5_6 
REMARK    4  A    between atoms: C5_6  and  C6_7 
REMARK    5  A    between atoms: C6_7  and  C7_8 
REMARK    6  A    between atoms: C7_8  and  C8_9 
REMARK       I    between atoms: C8_9  and  N2_11 
REMARK    7  A    between atoms: C13_19  and  C14_20 
ROOT
HETATM    1  C8  UNL     1      20.791   2.085  52.529  1.00  0.00     0.304 C 
HETATM    2  O1  UNL     1      20.936   3.351  52.329  1.00  0.00    -0.258 OA
HETATM    3  N2  UNL     1      21.318   0.813  53.005  1.00  0.00    -0.284 N 
HETATM    4  C9  UNL     1      20.283  -0.071  53.447  1.00  0.00     0.282 C 
HETATM    5  N3  UNL     1      20.769  -1.095  54.320  1.00  0.00    -0.279 NA
HETATM    6  C10 UNL     1      21.967  -1.369  54.624  1.00  0.00     0.146 C 
HETATM    7  C11 UNL     1      23.052  -0.574  54.071  1.00  0.00     0.104 A 
HETATM    8  N4  UNL     1      24.369  -0.780  54.263  1.00  0.00    -0.238 NA
HETATM    9  C12 UNL     1      25.285   0.034  53.662  1.00  0.00     0.234 A 
HETATM   10  N5  UNL     1      24.896   1.067  52.854  1.00  0.00    -0.239 NA
HETATM   11  C13 UNL     1      23.570   1.285  52.654  1.00  0.00     0.098 A 
HETATM   12  C20 UNL     1      22.663   0.471  53.267  1.00  0.00     0.099 A 
ENDROOT
BRANCH   1  13
HETATM   13  C7  UNL     1      19.435   1.992  51.981  1.00  0.00    -0.003 C 
BRANCH  13  14
HETATM   14  C6  UNL     1      18.292   1.893  51.509  1.00  0.00    -0.077 C 
BRANCH  14  15
HETATM   15  C5  UNL     1      16.944   1.795  50.956  1.00  0.00     0.212 C 
BRANCH  15  16
HETATM   16  N1  UNL     1      15.961   2.363  51.835  1.00  0.00    -0.403 N 
BRANCH  16  17
HETATM   17  C2  UNL     1      16.055   3.725  52.120  1.00  0.00     0.113 C 
HETATM   18  C1  UNL     1      15.089   4.164  53.189  1.00  0.00     0.026 C 
ENDBRANCH  16  17
BRANCH  16  19
HETATM   19  C3  UNL     1      14.804   1.618  52.078  1.00  0.00     0.113 C 
HETATM   20  C4  UNL     1      15.046   0.353  52.820  1.00  0.00     0.026 C 
ENDBRANCH  16  19
ENDBRANCH  15  16
ENDBRANCH  14  15
ENDBRANCH  13  14
ENDBRANCH   1  13
BRANCH  11  21
HETATM   21  C14 UNL     1      23.448   2.364  51.686  1.00  0.00    -0.003 A 
HETATM   22  C15 UNL     1      23.043   2.000  50.382  1.00  0.00     0.017 A 
HETATM   23  C16 UNL     1      22.948   2.988  49.426  1.00  0.00     0.045 A 
HETATM   24  C17 UNL     1      23.253   4.304  49.774  1.00  0.00     0.138 A 
HETATM   25  F1  UNL     1      23.182   5.317  48.896  1.00  0.00    -0.204 F 
HETATM   26  C18 UNL     1      23.645   4.634  51.052  1.00  0.00     0.073 A 
HETATM   27 CL1  UNL     1      24.031   6.288  51.498  1.00  0.00    -0.081 Cl
HETATM   28  C19 UNL     1      23.759   3.682  52.055  1.00  0.00     0.041 A 
ENDBRANCH  11  21
TORSDOF 7
ENDMDL
MODEL 9
REMARK VINA RESULT:      -6.6      8.038      9.974
REMARK  7 active torsions:
REMARK  status: ('A' for Active; 'I' for Inactive)
REMARK    1  A    between atoms: C2_2  and  N1_3 
REMARK    2  A    between atoms: N1_3  and  C3_4 
REMARK    3  A    between atoms: N1_3  and  C5_6 
REMARK    4  A    between atoms: C5_6  and  C6_7 
REMARK    5  A    between atoms: C6_7  and  C7_8 
REMARK    6  A    between atoms: C7_8  and  C8_9 
REMARK       I    between atoms: C8_9  and  N2_11 
REMARK    7  A    between atoms: C13_19  and  C14_20 
ROOT
HETATM    1  C8  UNL     1      29.292   6.829  47.581  1.00  0.00     0.304 C 
HETATM    2  O1  UNL     1      29.830   7.671  46.765  1.00  0.00    -0.258 OA
HETATM    3  N2  UNL     1      28.172   6.420  48.417  1.00  0.00    -0.284 N 
HETATM    4  C9  UNL     1      28.095   4.999  48.564  1.00  0.00     0.282 C 
HETATM    5  N3  UNL     1      26.796   4.555  48.967  1.00  0.00    -0.279 NA
HETATM    6  C10 UNL     1      25.798   5.253  49.315  1.00  0.00     0.146 C 
HETATM    7  C11 UNL     1      25.896   6.704  49.315  1.00  0.00     0.104 A 
HETATM    8  N4  UNL     1      24.939   7.567  49.709  1.00  0.00    -0.238 NA
HETATM    9  C12 UNL     1      25.175   8.911  49.677  1.00  0.00     0.234 A 
HETATM   10  N5  UNL     1      26.375   9.413  49.254  1.00  0.00    -0.239 NA
HETATM   11  C13 UNL     1      27.346   8.551  48.854  1.00  0.00     0.098 A 
HETATM   12  C20 UNL     1      27.097   7.211  48.881  1.00  0.00     0.099 A 
ENDROOT
BRANCH   1  13
HETATM   13  C7  UNL     1      30.423   5.896  47.615  1.00  0.00    -0.003 C 
BRANCH  13  14
HETATM   14  C6  UNL     1      31.369   5.096  47.660  1.00  0.00    -0.077 C 
BRANCH  14  15
HETATM   15  C5  UNL     1      32.473   4.141  47.703  1.00  0.00     0.212 C 
BRANCH  15  16
HETATM   16  N1  UNL     1      33.750   4.794  47.628  1.00  0.00    -0.403 N 
BRANCH  16  17
HETATM   17  C2  UNL     1      34.438   4.735  46.417  1.00  0.00     0.113 C 
HETATM   18  C1  UNL     1      34.985   3.363  46.123  1.00  0.00     0.026 C 
ENDBRANCH  16  17
BRANCH  16  19
HETATM   19  C3  UNL     1      34.067   5.709  48.635  1.00  0.00     0.113 C 
HETATM   20  C4  UNL     1      35.435   5.544  49.190  1.00  0.00     0.026 C 
ENDBRANCH  16  19
ENDBRANCH  15  16
ENDBRANCH  14  15
ENDBRANCH  13  14
ENDBRANCH   1  13
BRANCH  11  21
HETATM   21  C14 UNL     1      28.533   9.341  48.561  1.00  0.00    -0.003 A 
HETATM   22  C15 UNL     1      29.593   9.259  49.492  1.00  0.00     0.017 A 
HETATM   23  C16 UNL     1      30.722  10.017  49.268  1.00  0.00     0.045 A 
HETATM   24  C17 UNL     1      30.780  10.834  48.139  1.00  0.00     0.138 A 
HETATM   25  F1  UNL     1      31.847  11.599  47.857  1.00  0.00    -0.204 F 
HETATM   26  C18 UNL     1      29.734  10.898  47.246  1.00  0.00     0.073 A 
HETATM   27 CL1  UNL     1      29.799  11.925  45.824  1.00  0.00    -0.081 Cl
HETATM   28  C19 UNL     1      28.573  10.158  47.420  1.00  0.00     0.041 A 
ENDBRANCH  11  21
TORSDOF 7
ENDMDL
