MODEL 1
REMARK VINA RESULT:      -9.0      0.000      0.000
REMARK  2 active torsions:
REMARK  status: ('A' for Active; 'I' for Inactive)
REMARK    1  A    between atoms: C4_5  and  C5_6 
REMARK    2  A    between atoms: C5_6  and  N1_7 
ROOT
HETATM    1  N1  UNL     1      23.755   1.557  52.580  1.00  0.00    -0.006 N 
HETATM    2  C6  UNL     1      22.777   0.563  53.318  1.00  0.00     0.173 A 
HETATM    3  C7  UNL     1      22.515   0.895  52.215  1.00  0.00     0.338 A 
HETATM    4  C8  UNL     1      22.548   1.493  50.953  1.00  0.00     0.063 A 
HETATM    5  C9  UNL     1      21.375   0.850  50.633  1.00  0.00     0.142 A 
HETATM    6  N2  UNL     1      21.163   1.300  49.382  1.00  0.00    -0.204 NA
HETATM    7  C10 UNL     1      22.302   2.178  49.147  1.00  0.00     0.197 A 
HETATM    8 BR1  UNL     1      22.170   2.940  47.374  1.00  0.00    -0.007 Br
HETATM    9  N3  UNL     1      23.393   2.551  49.919  1.00  0.00    -0.215 NA
HETATM   10  C11 UNL     1      23.678   2.130  51.224  1.00  0.00     0.313 A 
HETATM   11  N4  UNL     1      20.935   0.046  51.730  1.00  0.00    -0.331 N 
HETATM   12  C12 UNL     1      19.583   0.181  51.234  1.00  0.00     0.093 C 
HETATM   13  C13 UNL     1      18.721  -0.183  52.236  1.00  0.00     0.017 C 
HETATM   14  C14 UNL     1      19.401  -0.630  53.483  1.00  0.00    -0.001 C 
HETATM   15  C15 UNL     1      20.697  -0.762  53.770  1.00  0.00     0.001 C 
HETATM   16  C16 UNL     1      21.719  -0.486  52.821  1.00  0.00     0.157 A 
ENDROOT
BRANCH   1  17
HETATM   17  C5  UNL     1      25.095   2.070  53.170  1.00  0.00     0.281 C 
BRANCH  17  18
HETATM   18  C4  UNL     1      26.131   1.051  53.193  1.00  0.00    -0.032 A 
HETATM   19  C3  UNL     1      26.134  -0.047  52.345  1.00  0.00     0.010 A 
HETATM   20  C2  UNL     1      27.159  -0.963  52.438  1.00  0.00     0.024 A 
HETATM   21  C1  UNL     1      28.209  -0.874  53.330  1.00  0.00     0.034 A 
HETATM   22 CL1  UNL     1      29.441  -2.110  53.338  1.00  0.00    -0.084 Cl
HETATM   23  C18 UNL     1      28.198   0.235  54.180  1.00  0.00     0.024 A 
HETATM   24  C17 UNL     1      27.186   1.160  54.104  1.00  0.00     0.010 A 
ENDBRANCH  17  18
ENDBRANCH   1  17
TORSDOF 2
ENDMDL
MODEL 2
REMARK VINA RESULT:      -8.8      1.912      3.615
REMARK  2 active torsions:
REMARK  status: ('A' for Active; 'I' for Inactive)
REMARK    1  A    between atoms: C4_5  and  C5_6 
REMARK    2  A    between atoms: C5_6  and  N1_7 
ROOT
HETATM    1  N1  UNL     1      23.580   0.291  53.083  1.00  0.00    -0.006 N 
HETATM    2  C6  UNL     1      24.252   1.425  52.215  1.00  0.00     0.173 A 
HETATM    3  C7  UNL     1      23.098   1.222  52.077  1.00  0.00     0.338 A 
HETATM    4  C8  UNL     1      21.804   0.707  52.197  1.00  0.00     0.063 A 
HETATM    5  C9  UNL     1      21.374   1.601  51.245  1.00  0.00     0.142 A 
HETATM    6  N2  UNL     1      20.070   1.282  51.157  1.00  0.00    -0.204 NA
HETATM    7  C10 UNL     1      19.926   0.197  52.120  1.00  0.00     0.197 A 
HETATM    8 BR1  UNL     1      18.091  -0.412  52.132  1.00  0.00    -0.007 Br
HETATM    9  N3  UNL     1      20.815  -0.443  52.973  1.00  0.00    -0.215 NA
HETATM   10  C11 UNL     1      22.181  -0.171  53.116  1.00  0.00     0.313 A 
HETATM   11  N4  UNL     1      22.463   2.415  50.800  1.00  0.00    -0.331 N 
HETATM   12  C12 UNL     1      21.761   2.598  49.549  1.00  0.00     0.093 C 
HETATM   13  C13 UNL     1      22.653   3.077  48.625  1.00  0.00     0.017 C 
HETATM   14  C14 UNL     1      24.023   3.294  49.166  1.00  0.00    -0.001 C 
HETATM   15  C15 UNL     1      24.511   3.132  50.396  1.00  0.00     0.001 C 
HETATM   16  C16 UNL     1      23.703   2.702  51.484  1.00  0.00     0.157 A 
ENDROOT
BRANCH   1  17
HETATM   17  C5  UNL     1      24.313  -0.528  54.177  1.00  0.00     0.281 C 
BRANCH  17  18
HETATM   18  C4  UNL     1      25.755  -0.545  54.002  1.00  0.00    -0.032 A 
HETATM   19  C3  UNL     1      26.388  -1.256  52.991  1.00  0.00     0.010 A 
HETATM   20  C2  UNL     1      27.762  -1.213  52.901  1.00  0.00     0.024 A 
HETATM   21  C1  UNL     1      28.580  -0.502  53.758  1.00  0.00     0.034 A 
HETATM   22 CL1  UNL     1      30.310  -0.538  53.526  1.00  0.00    -0.084 Cl
HETATM   23  C18 UNL     1      27.935   0.210  54.772  1.00  0.00     0.024 A 
HETATM   24  C17 UNL     1      26.565   0.181  54.880  1.00  0.00     0.010 A 
ENDBRANCH  17  18
ENDBRANCH   1  17
TORSDOF 2
ENDMDL
MODEL 3
REMARK VINA RESULT:      -8.7      4.236      5.866
REMARK  2 active torsions:
REMARK  status: ('A' for Active; 'I' for Inactive)
REMARK    1  A    between atoms: C4_5  and  C5_6 
REMARK    2  A    between atoms: C5_6  and  N1_7 
ROOT
HETATM    1  N1  UNL     1      24.684   2.633  50.442  1.00  0.00    -0.006 N 
HETATM    2  C6  UNL     1      23.289   2.104  50.954  1.00  0.00     0.173 A 
HETATM    3  C7  UNL     1      24.245   1.895  51.614  1.00  0.00     0.338 A 
HETATM    4  C8  UNL     1      25.555   1.851  52.098  1.00  0.00     0.063 A 
HETATM    5  C9  UNL     1      25.111   1.157  53.198  1.00  0.00     0.142 A 
HETATM    6  N2  UNL     1      26.263   0.963  53.868  1.00  0.00    -0.204 NA
HETATM    7  C10 UNL     1      27.255   1.608  53.017  1.00  0.00     0.197 A 
HETATM    8 BR1  UNL     1      29.005   1.426  53.819  1.00  0.00    -0.007 Br
HETATM    9  N3  UNL     1      27.177   2.282  51.806  1.00  0.00    -0.215 NA
HETATM   10  C11 UNL     1      26.022   2.518  51.052  1.00  0.00     0.313 A 
HETATM   11  N4  UNL     1      23.697   0.960  53.124  1.00  0.00    -0.331 N 
HETATM   12  C12 UNL     1      23.857  -0.213  53.953  1.00  0.00     0.093 C 
HETATM   13  C13 UNL     1      22.714  -0.964  53.858  1.00  0.00     0.017 C 
HETATM   14  C14 UNL     1      21.666  -0.359  52.991  1.00  0.00    -0.001 C 
HETATM   15  C15 UNL     1      21.646   0.796  52.325  1.00  0.00     0.001 C 
HETATM   16  C16 UNL     1      22.726   1.720  52.370  1.00  0.00     0.157 A 
ENDROOT
BRANCH   1  17
HETATM   17  C5  UNL     1      24.884   3.491  49.165  1.00  0.00     0.281 C 
BRANCH  17  18
HETATM   18  C4  UNL     1      25.288   4.856  49.457  1.00  0.00    -0.032 A 
HETATM   19  C3  UNL     1      24.631   5.661  50.377  1.00  0.00     0.010 A 
HETATM   20  C2  UNL     1      25.087   6.944  50.590  1.00  0.00     0.024 A 
HETATM   21  C1  UNL     1      26.170   7.507  49.943  1.00  0.00     0.034 A 
HETATM   22 CL1  UNL     1      26.636   9.148  50.312  1.00  0.00    -0.084 Cl
HETATM   23  C18 UNL     1      26.824   6.689  49.019  1.00  0.00     0.024 A 
HETATM   24  C17 UNL     1      26.387   5.407  48.792  1.00  0.00     0.010 A 
ENDBRANCH  17  18
ENDBRANCH   1  17
TORSDOF 2
ENDMDL
MODEL 4
REMARK VINA RESULT:      -8.6      2.165      3.726
REMARK  2 active torsions:
REMARK  status: ('A' for Active; 'I' for Inactive)
REMARK    1  A    between atoms: C4_5  and  C5_6 
REMARK    2  A    between atoms: C5_6  and  N1_7 
ROOT
HETATM    1  N1  UNL     1      24.887   1.997  52.434  1.00  0.00    -0.006 N 
HETATM    2  C6  UNL     1      24.552   2.703  51.064  1.00  0.00     0.173 A 
HETATM    3  C7  UNL     1      23.764   1.949  51.514  1.00  0.00     0.338 A 
HETATM    4  C8  UNL     1      23.107   1.032  52.338  1.00  0.00     0.063 A 
HETATM    5  C9  UNL     1      22.056   1.009  51.452  1.00  0.00     0.142 A 
HETATM    6  N2  UNL     1      21.232   0.125  52.046  1.00  0.00    -0.204 NA
HETATM    7  C10 UNL     1      21.961  -0.251  53.251  1.00  0.00     0.197 A 
HETATM    8 BR1  UNL     1      20.925  -1.543  54.250  1.00  0.00    -0.007 Br
HETATM    9  N3  UNL     1      23.191   0.120  53.775  1.00  0.00    -0.215 NA
HETATM   10  C11 UNL     1      24.100   1.026  53.216  1.00  0.00     0.313 A 
HETATM   11  N4  UNL     1      22.314   1.886  50.353  1.00  0.00    -0.331 N 
HETATM   12  C12 UNL     1      21.436   1.068  49.547  1.00  0.00     0.093 C 
HETATM   13  C13 UNL     1      21.661   1.369  48.228  1.00  0.00     0.017 C 
HETATM   14  C14 UNL     1      22.679   2.436  48.019  1.00  0.00    -0.001 C 
HETATM   15  C15 UNL     1      23.376   3.159  48.896  1.00  0.00     0.001 C 
HETATM   16  C16 UNL     1      23.214   3.015  50.302  1.00  0.00     0.157 A 
ENDROOT
BRANCH   1  17
HETATM   17  C5  UNL     1      26.151   2.287  53.286  1.00  0.00     0.281 C 
BRANCH  17  18
HETATM   18  C4  UNL     1      27.055   1.151  53.363  1.00  0.00    -0.032 A 
HETATM   19  C3  UNL     1      28.212   1.154  54.130  1.00  0.00     0.010 A 
HETATM   20  C2  UNL     1      29.009   0.031  54.143  1.00  0.00     0.024 A 
HETATM   21  C1  UNL     1      28.743  -1.126  53.435  1.00  0.00     0.034 A 
HETATM   22 CL1  UNL     1      29.844  -2.476  53.545  1.00  0.00    -0.084 Cl
HETATM   23  C18 UNL     1      27.577  -1.119  52.667  1.00  0.00     0.024 A 
HETATM   24  C17 UNL     1      26.767  -0.010  52.640  1.00  0.00     0.010 A 
ENDBRANCH  17  18
ENDBRANCH   1  17
TORSDOF 2
ENDMDL
MODEL 5
REMARK VINA RESULT:      -8.5      3.803      6.205
REMARK  2 active torsions:
REMARK  status: ('A' for Active; 'I' for Inactive)
REMARK    1  A    between atoms: C4_5  and  C5_6 
REMARK    2  A    between atoms: C5_6  and  N1_7 
ROOT
HETATM    1  N1  UNL     1      24.330   2.316  50.943  1.00  0.00    -0.006 N 
HETATM    2  C6  UNL     1      25.825   2.045  51.367  1.00  0.00     0.173 A 
HETATM    3  C7  UNL     1      24.970   1.431  51.901  1.00  0.00     0.338 A 
HETATM    4  C8  UNL     1      23.728   0.921  52.285  1.00  0.00     0.063 A 
HETATM    5  C9  UNL     1      24.360   0.092  53.181  1.00  0.00     0.142 A 
HETATM    6  N2  UNL     1      23.311  -0.545  53.734  1.00  0.00    -0.204 NA
HETATM    7  C10 UNL     1      22.167   0.035  53.042  1.00  0.00     0.197 A 
HETATM    8 BR1  UNL     1      20.538  -0.759  53.717  1.00  0.00    -0.007 Br
HETATM    9  N3  UNL     1      22.042   1.000  52.052  1.00  0.00    -0.215 NA
HETATM   10  C11 UNL     1      23.081   1.705  51.434  1.00  0.00     0.313 A 
HETATM   11  N4  UNL     1      25.776   0.285  53.122  1.00  0.00    -0.331 N 
HETATM   12  C12 UNL     1      25.854  -0.173  54.491  1.00  0.00     0.093 C 
HETATM   13  C13 UNL     1      27.077   0.188  54.995  1.00  0.00     0.017 C 
HETATM   14  C14 UNL     1      27.949   0.889  54.012  1.00  0.00    -0.001 C 
HETATM   15  C15 UNL     1      27.750   1.191  52.729  1.00  0.00     0.001 C 
HETATM   16  C16 UNL     1      26.560   0.830  52.038  1.00  0.00     0.157 A 
ENDROOT
BRANCH   1  17
HETATM   17  C5  UNL     1      23.900   3.278  49.804  1.00  0.00     0.281 C 
BRANCH  17  18
HETATM   18  C4  UNL     1      24.562   4.570  49.873  1.00  0.00    -0.032 A 
HETATM   19  C3  UNL     1      25.619   4.926  49.047  1.00  0.00     0.010 A 
HETATM   20  C2  UNL     1      26.184   6.174  49.184  1.00  0.00     0.024 A 
HETATM   21  C1  UNL     1      25.775   7.123  50.101  1.00  0.00     0.034 A 
HETATM   22 CL1  UNL     1      26.585   8.667  50.164  1.00  0.00    -0.084 Cl
HETATM   23  C18 UNL     1      24.711   6.755  50.928  1.00  0.00     0.024 A 
HETATM   24  C17 UNL     1      24.132   5.515  50.808  1.00  0.00     0.010 A 
ENDBRANCH  17  18
ENDBRANCH   1  17
TORSDOF 2
ENDMDL
MODEL 6
REMARK VINA RESULT:      -8.1      3.637      6.632
REMARK  2 active torsions:
REMARK  status: ('A' for Active; 'I' for Inactive)
REMARK    1  A    between atoms: C4_5  and  C5_6 
REMARK    2  A    between atoms: C5_6  and  N1_7 
ROOT
HETATM    1  N1  UNL     1      23.618   2.937  51.999  1.00  0.00    -0.006 N 
HETATM    2  C6  UNL     1      25.194   2.879  51.949  1.00  0.00     0.173 A 
HETATM    3  C7  UNL     1      24.613   1.968  52.425  1.00  0.00     0.338 A 
HETATM    4  C8  UNL     1      23.607   1.115  52.888  1.00  0.00     0.063 A 
HETATM    5  C9  UNL     1      24.570   0.214  53.278  1.00  0.00     0.142 A 
HETATM    6  N2  UNL     1      23.813  -0.764  53.808  1.00  0.00    -0.204 NA
HETATM    7  C10 UNL     1      22.454  -0.264  53.637  1.00  0.00     0.197 A 
HETATM    8 BR1  UNL     1      21.202  -1.548  54.358  1.00  0.00    -0.007 Br
HETATM    9  N3  UNL     1      21.929   0.899  53.091  1.00  0.00    -0.215 NA
HETATM   10  C11 UNL     1      22.650   1.959  52.527  1.00  0.00     0.313 A 
HETATM   11  N4  UNL     1      25.873   0.713  52.965  1.00  0.00    -0.331 N 
HETATM   12  C12 UNL     1      26.398  -0.100  54.040  1.00  0.00     0.093 C 
HETATM   13  C13 UNL     1      27.657   0.350  54.340  1.00  0.00     0.017 C 
HETATM   14  C14 UNL     1      28.116   1.477  53.481  1.00  0.00    -0.001 C 
HETATM   15  C15 UNL     1      27.520   2.092  52.459  1.00  0.00     0.001 C 
HETATM   16  C16 UNL     1      26.238   1.705  51.980  1.00  0.00     0.157 A 
ENDROOT
BRANCH   1  17
HETATM   17  C5  UNL     1      22.762   4.076  51.386  1.00  0.00     0.281 C 
BRANCH  17  18
HETATM   18  C4  UNL     1      22.577   3.937  49.951  1.00  0.00    -0.032 A 
HETATM   19  C3  UNL     1      22.655   2.718  49.291  1.00  0.00     0.010 A 
HETATM   20  C2  UNL     1      22.465   2.682  47.927  1.00  0.00     0.024 A 
HETATM   21  C1  UNL     1      22.198   3.788  47.145  1.00  0.00     0.034 A 
HETATM   22 CL1  UNL     1      21.979   3.595  45.424  1.00  0.00    -0.084 Cl
HETATM   23  C18 UNL     1      22.122   5.010  47.817  1.00  0.00     0.024 A 
HETATM   24  C17 UNL     1      22.308   5.069  49.177  1.00  0.00     0.010 A 
ENDBRANCH  17  18
ENDBRANCH   1  17
TORSDOF 2
ENDMDL
MODEL 7
REMARK VINA RESULT:      -7.8      4.107      5.214
REMARK  2 active torsions:
REMARK  status: ('A' for Active; 'I' for Inactive)
REMARK    1  A    between atoms: C4_5  and  C5_6 
REMARK    2  A    between atoms: C5_6  and  N1_7 
ROOT
HETATM    1  N1  UNL     1      23.981   4.763  50.046  1.00  0.00    -0.006 N 
HETATM    2  C6  UNL     1      23.941   3.532  51.033  1.00  0.00     0.173 A 
HETATM    3  C7  UNL     1      23.383   3.439  49.996  1.00  0.00     0.338 A 
HETATM    4  C8  UNL     1      22.868   3.702  48.725  1.00  0.00     0.063 A 
HETATM    5  C9  UNL     1      22.317   2.443  48.703  1.00  0.00     0.142 A 
HETATM    6  N2  UNL     1      21.706   2.445  47.503  1.00  0.00    -0.204 NA
HETATM    7  C10 UNL     1      22.010   3.771  46.978  1.00  0.00     0.197 A 
HETATM    8 BR1  UNL     1      21.197   3.972  45.235  1.00  0.00    -0.007 Br
HETATM    9  N3  UNL     1      22.726   4.851  47.474  1.00  0.00    -0.215 NA
HETATM   10  C11 UNL     1      23.383   4.924  48.709  1.00  0.00     0.313 A 
HETATM   11  N4  UNL     1      22.624   1.745  49.913  1.00  0.00    -0.331 N 
HETATM   12  C12 UNL     1      21.428   0.957  49.713  1.00  0.00     0.093 C 
HETATM   13  C13 UNL     1      21.123   0.336  50.897  1.00  0.00     0.017 C 
HETATM   14  C14 UNL     1      22.094   0.614  51.991  1.00  0.00    -0.001 C 
HETATM   15  C15 UNL     1      23.216   1.334  51.999  1.00  0.00     0.001 C 
HETATM   16  C16 UNL     1      23.707   1.991  50.837  1.00  0.00     0.157 A 
ENDROOT
BRANCH   1  17
HETATM   17  C5  UNL     1      24.778   6.069  50.303  1.00  0.00     0.281 C 
BRANCH  17  18
HETATM   18  C4  UNL     1      26.040   6.113  49.584  1.00  0.00    -0.032 A 
HETATM   19  C3  UNL     1      26.739   4.974  49.209  1.00  0.00     0.010 A 
HETATM   20  C2  UNL     1      27.929   5.112  48.529  1.00  0.00     0.024 A 
HETATM   21  C1  UNL     1      28.496   6.323  48.183  1.00  0.00     0.034 A 
HETATM   22 CL1  UNL     1      30.013   6.349  47.319  1.00  0.00    -0.084 Cl
HETATM   23  C18 UNL     1      27.786   7.464  48.564  1.00  0.00     0.024 A 
HETATM   24  C17 UNL     1      26.597   7.349  49.243  1.00  0.00     0.010 A 
ENDBRANCH  17  18
ENDBRANCH   1  17
TORSDOF 2
ENDMDL
MODEL 8
REMARK VINA RESULT:      -7.7      9.319     10.803
REMARK  2 active torsions:
REMARK  status: ('A' for Active; 'I' for Inactive)
REMARK    1  A    between atoms: C4_5  and  C5_6 
REMARK    2  A    between atoms: C5_6  and  N1_7 
ROOT
HETATM    1  N1  UNL     1      31.325   7.721  48.843  1.00  0.00    -0.006 N 
HETATM    2  C6  UNL     1      30.382   6.479  48.599  1.00  0.00     0.173 A 
HETATM    3  C7  UNL     1      29.899   7.557  48.618  1.00  0.00     0.338 A 
HETATM    4  C8  UNL     1      29.710   8.938  48.701  1.00  0.00     0.063 A 
HETATM    5  C9  UNL     1      28.366   8.754  48.483  1.00  0.00     0.142 A 
HETATM    6  N2  UNL     1      27.916  10.021  48.534  1.00  0.00    -0.204 NA
HETATM    7  C10 UNL     1      29.126  10.794  48.784  1.00  0.00     0.197 A 
HETATM    8 BR1  UNL     1      28.677  12.671  48.900  1.00  0.00    -0.007 Br
HETATM    9  N3  UNL     1      30.460  10.448  48.950  1.00  0.00    -0.215 NA
HETATM   10  C11 UNL     1      31.000   9.157  48.915  1.00  0.00     0.313 A 
HETATM   11  N4  UNL     1      28.075   7.363  48.320  1.00  0.00    -0.331 N 
HETATM   12  C12 UNL     1      26.731   7.631  48.782  1.00  0.00     0.093 C 
HETATM   13  C13 UNL     1      26.152   6.438  49.127  1.00  0.00     0.017 C 
HETATM   14  C14 UNL     1      27.027   5.255  48.900  1.00  0.00    -0.001 C 
HETATM   15  C15 UNL     1      28.256   5.165  48.392  1.00  0.00     0.001 C 
HETATM   16  C16 UNL     1      28.973   6.302  47.927  1.00  0.00     0.157 A 
ENDROOT
BRANCH   1  17
HETATM   17  C5  UNL     1      32.868   7.638  48.976  1.00  0.00     0.281 C 
BRANCH  17  18
HETATM   18  C4  UNL     1      33.456   6.610  48.134  1.00  0.00    -0.032 A 
HETATM   19  C3  UNL     1      34.167   5.530  48.640  1.00  0.00     0.010 A 
HETATM   20  C2  UNL     1      34.688   4.602  47.766  1.00  0.00     0.024 A 
HETATM   21  C1  UNL     1      34.557   4.662  46.392  1.00  0.00     0.034 A 
HETATM   22 CL1  UNL     1      35.271   3.414  45.403  1.00  0.00    -0.084 Cl
HETATM   23  C18 UNL     1      33.840   5.752  45.892  1.00  0.00     0.024 A 
HETATM   24  C17 UNL     1      33.312   6.689  46.746  1.00  0.00     0.010 A 
ENDBRANCH  17  18
ENDBRANCH   1  17
TORSDOF 2
ENDMDL
MODEL 9
REMARK VINA RESULT:      -7.6      4.236      7.348
REMARK  2 active torsions:
REMARK  status: ('A' for Active; 'I' for Inactive)
REMARK    1  A    between atoms: C4_5  and  C5_6 
REMARK    2  A    between atoms: C5_6  and  N1_7 
ROOT
HETATM    1  N1  UNL     1      23.186   4.283  51.444  1.00  0.00    -0.006 N 
HETATM    2  C6  UNL     1      23.534   5.241  50.240  1.00  0.00     0.173 A 
HETATM    3  C7  UNL     1      24.292   4.376  50.507  1.00  0.00     0.338 A 
HETATM    4  C8  UNL     1      24.912   3.276  51.104  1.00  0.00     0.063 A 
HETATM    5  C9  UNL     1      25.944   3.385  50.202  1.00  0.00     0.142 A 
HETATM    6  N2  UNL     1      26.745   2.377  50.597  1.00  0.00    -0.204 NA
HETATM    7  C10 UNL     1      26.022   1.800  51.724  1.00  0.00     0.197 A 
HETATM    8 BR1  UNL     1      27.034   0.318  52.443  1.00  0.00    -0.007 Br
HETATM    9  N3  UNL     1      24.817   2.107  52.340  1.00  0.00    -0.215 NA
HETATM   10  C11 UNL     1      23.937   3.138  51.991  1.00  0.00     0.313 A 
HETATM   11  N4  UNL     1      25.709   4.476  49.308  1.00  0.00    -0.331 N 
HETATM   12  C12 UNL     1      27.139   4.578  49.121  1.00  0.00     0.093 C 
HETATM   13  C13 UNL     1      27.411   5.796  48.554  1.00  0.00     0.017 C 
HETATM   14  C14 UNL     1      26.198   6.614  48.274  1.00  0.00    -0.001 C 
HETATM   15  C15 UNL     1      24.905   6.345  48.453  1.00  0.00     0.001 C 
HETATM   16  C16 UNL     1      24.451   5.101  48.971  1.00  0.00     0.157 A 
ENDROOT
BRANCH   1  17
HETATM   17  C5  UNL     1      21.866   4.339  52.258  1.00  0.00     0.281 C 
BRANCH  17  18
HETATM   18  C4  UNL     1      20.918   3.308  51.872  1.00  0.00    -0.032 A 
HETATM   19  C3  UNL     1      20.575   2.246  52.697  1.00  0.00     0.010 A 
HETATM   20  C2  UNL     1      19.664   1.315  52.247  1.00  0.00     0.024 A 
HETATM   21  C1  UNL     1      19.052   1.355  51.009  1.00  0.00     0.034 A 
HETATM   22 CL1  UNL     1      17.916   0.105  50.569  1.00  0.00    -0.084 Cl
HETATM   23  C18 UNL     1      19.404   2.427  50.185  1.00  0.00     0.024 A 
HETATM   24  C17 UNL     1      20.309   3.366  50.615  1.00  0.00     0.010 A 
ENDBRANCH  17  18
ENDBRANCH   1  17
TORSDOF 2
ENDMDL
