MODEL 1
REMARK VINA RESULT:      -8.3      0.000      0.000
REMARK  6 active torsions:
REMARK  status: ('A' for Active; 'I' for Inactive)
REMARK    1  A    between atoms: C3_3  and  C4_4 
REMARK    2  A    between atoms: C4_4  and  C5_5 
REMARK    3  A    between atoms: C5_5  and  C6_6 
REMARK    4  A    between atoms: C6_6  and  C7_7 
REMARK    5  A    between atoms: C7_7  and  C8_8 
REMARK    6  A    between atoms: C17_20  and  O3_21 
ROOT
HETATM    1  C8  UNL     1      24.244   0.759  52.486  1.00  0.00    -0.043 A 
HETATM    2  C9  UNL     1      24.811  -0.494  52.410  1.00  0.00     0.035 A 
HETATM    3  C10 UNL     1      26.027  -0.746  53.003  1.00  0.00     0.044 A 
HETATM    4  N1  UNL     1      26.594   0.245  53.627  1.00  0.00    -0.226 NA
HETATM    5  C11 UNL     1      26.102   1.461  53.731  1.00  0.00     0.206 A 
HETATM    6  C12 UNL     1      24.895   1.796  53.167  1.00  0.00     0.000 A 
HETATM    7  C13 UNL     1      24.485   3.188  53.378  1.00  0.00     0.053 C 
HETATM    8  O1  UNL     1      27.026   2.238  54.475  1.00  0.00    -0.176 OA
HETATM    9  O2  UNL     1      28.234   2.416  53.812  1.00  0.00    -0.225 OA
HETATM   10  C14 UNL     1      29.165   1.430  53.730  1.00  0.00     0.228 C 
HETATM   11  C15 UNL     1      29.648   0.143  53.561  1.00  0.00     0.034 C 
HETATM   12  C16 UNL     1      29.346  -1.293  53.305  1.00  0.00     0.009 C 
HETATM   13  C17 UNL     1      28.183  -1.882  53.110  1.00  0.00     0.045 C 
HETATM   14  C18 UNL     1      26.731  -2.058  52.954  1.00  0.00     0.123 C 
ENDROOT
BRANCH   1  15
HETATM   15  C7  UNL     1      22.948   1.147  51.888  1.00  0.00     0.066 C 
BRANCH  15  16
HETATM   16  C6  UNL     1      23.121   1.916  50.629  1.00  0.00    -0.022 C 
BRANCH  16  17
HETATM   17  C5  UNL     1      23.364   2.837  49.750  1.00  0.00    -0.007 C 
BRANCH  17  18
HETATM   18  C4  UNL     1      24.101   3.901  49.089  1.00  0.00    -0.022 C 
BRANCH  18  19
HETATM   19  C3  UNL     1      25.326   3.878  49.383  1.00  0.00     0.013 A 
HETATM   20  C2  UNL     1      26.694   3.697  49.821  1.00  0.00    -0.002 A 
HETATM   21  C1  UNL     1      26.613   4.802  49.042  1.00  0.00     0.014 A 
ENDBRANCH  18  19
ENDBRANCH  17  18
ENDBRANCH  16  17
ENDBRANCH  15  16
ENDBRANCH   1  15
BRANCH  13  22
HETATM   22  O3  UNL     1      28.557  -3.238  52.926  1.00  0.00    -0.365 OA
HETATM   23  H17 UNL     1      28.092  -4.000  53.382  1.00  0.00     0.217 HD
ENDBRANCH  13  22
TORSDOF 6
ENDMDL
MODEL 2
REMARK VINA RESULT:      -8.3      1.747      3.763
REMARK  6 active torsions:
REMARK  status: ('A' for Active; 'I' for Inactive)
REMARK    1  A    between atoms: C3_3  and  C4_4 
REMARK    2  A    between atoms: C4_4  and  C5_5 
REMARK    3  A    between atoms: C5_5  and  C6_6 
REMARK    4  A    between atoms: C6_6  and  C7_7 
REMARK    5  A    between atoms: C7_7  and  C8_8 
REMARK    6  A    between atoms: C17_20  and  O3_21 
ROOT
HETATM    1  C8  UNL     1      24.544   1.146  52.137  1.00  0.00    -0.043 A 
HETATM    2  C9  UNL     1      25.007  -0.149  52.068  1.00  0.00     0.035 A 
HETATM    3  C10 UNL     1      26.127  -0.527  52.773  1.00  0.00     0.044 A 
HETATM    4  N1  UNL     1      26.706   0.389  53.493  1.00  0.00    -0.226 NA
HETATM    5  C11 UNL     1      26.311   1.639  53.596  1.00  0.00     0.206 A 
HETATM    6  C12 UNL     1      25.204   2.099  52.924  1.00  0.00     0.000 A 
HETATM    7  C13 UNL     1      24.893   3.515  53.149  1.00  0.00     0.053 C 
HETATM    8  O1  UNL     1      27.213   2.308  54.463  1.00  0.00    -0.176 OA
HETATM    9  O2  UNL     1      28.495   2.399  53.937  1.00  0.00    -0.225 OA
HETATM   10  C14 UNL     1      29.343   1.338  53.910  1.00  0.00     0.228 C 
HETATM   11  C15 UNL     1      29.730   0.019  53.739  1.00  0.00     0.034 C 
HETATM   12  C16 UNL     1      29.336  -1.376  53.394  1.00  0.00     0.009 C 
HETATM   13  C17 UNL     1      28.155  -1.853  53.055  1.00  0.00     0.045 C 
HETATM   14  C18 UNL     1      26.718  -1.894  52.743  1.00  0.00     0.123 C 
ENDROOT
BRANCH   1  15
HETATM   15  C7  UNL     1      23.356   1.667  51.424  1.00  0.00     0.066 C 
BRANCH  15  16
HETATM   16  C6  UNL     1      22.097   1.397  52.165  1.00  0.00    -0.022 C 
BRANCH  16  17
HETATM   17  C5  UNL     1      21.219   1.054  53.054  1.00  0.00    -0.007 C 
BRANCH  17  18
HETATM   18  C4  UNL     1      20.683   0.367  54.217  1.00  0.00    -0.022 C 
BRANCH  18  19
HETATM   19  C3  UNL     1      21.487  -0.492  54.668  1.00  0.00     0.013 A 
HETATM   20  C2  UNL     1      22.493  -1.336  55.277  1.00  0.00    -0.002 A 
HETATM   21  C1  UNL     1      21.680  -2.092  54.501  1.00  0.00     0.014 A 
ENDBRANCH  18  19
ENDBRANCH  17  18
ENDBRANCH  16  17
ENDBRANCH  15  16
ENDBRANCH   1  15
BRANCH  13  22
HETATM   22  O3  UNL     1      28.430  -3.229  52.855  1.00  0.00    -0.365 OA
HETATM   23  H17 UNL     1      29.220  -3.559  52.333  1.00  0.00     0.217 HD
ENDBRANCH  13  22
TORSDOF 6
ENDMDL
MODEL 3
REMARK VINA RESULT:      -8.2      2.382      3.969
REMARK  6 active torsions:
REMARK  status: ('A' for Active; 'I' for Inactive)
REMARK    1  A    between atoms: C3_3  and  C4_4 
REMARK    2  A    between atoms: C4_4  and  C5_5 
REMARK    3  A    between atoms: C5_5  and  C6_6 
REMARK    4  A    between atoms: C6_6  and  C7_7 
REMARK    5  A    between atoms: C7_7  and  C8_8 
REMARK    6  A    between atoms: C17_20  and  O3_21 
ROOT
HETATM    1  C8  UNL     1      22.530   0.521  53.426  1.00  0.00    -0.043 A 
HETATM    2  C9  UNL     1      23.193   1.375  52.573  1.00  0.00     0.035 A 
HETATM    3  C10 UNL     1      24.559   1.295  52.430  1.00  0.00     0.044 A 
HETATM    4  N1  UNL     1      25.172   0.384  53.130  1.00  0.00    -0.226 NA
HETATM    5  C11 UNL     1      24.593  -0.456  53.960  1.00  0.00     0.206 A 
HETATM    6  C12 UNL     1      23.233  -0.442  54.161  1.00  0.00     0.000 A 
HETATM    7  C13 UNL     1      22.743  -1.445  55.112  1.00  0.00     0.053 C 
HETATM    8  O1  UNL     1      25.605  -1.272  54.526  1.00  0.00    -0.176 OA
HETATM    9  O2  UNL     1      26.485  -0.556  55.328  1.00  0.00    -0.225 OA
HETATM   10  C14 UNL     1      27.452   0.243  54.805  1.00  0.00     0.228 C 
HETATM   11  C15 UNL     1      28.011   1.172  53.943  1.00  0.00     0.034 C 
HETATM   12  C16 UNL     1      27.827   2.077  52.774  1.00  0.00     0.009 C 
HETATM   13  C17 UNL     1      26.752   2.291  52.042  1.00  0.00     0.045 C 
HETATM   14  C18 UNL     1      25.368   2.188  51.555  1.00  0.00     0.123 C 
ENDROOT
BRANCH   1  15
HETATM   15  C7  UNL     1      21.069   0.515  53.662  1.00  0.00     0.066 C 
BRANCH  15  16
HETATM   16  C6  UNL     1      20.298   0.456  52.393  1.00  0.00    -0.022 C 
BRANCH  16  17
HETATM   17  C5  UNL     1      19.908   0.556  51.161  1.00  0.00    -0.007 C 
BRANCH  17  18
HETATM   18  C4  UNL     1      19.988   0.900  49.752  1.00  0.00    -0.022 C 
BRANCH  18  19
HETATM   19  C3  UNL     1      21.093   1.430  49.458  1.00  0.00     0.013 A 
HETATM   20  C2  UNL     1      22.374   2.085  49.302  1.00  0.00    -0.002 A 
HETATM   21  C1  UNL     1      21.969   1.598  48.106  1.00  0.00     0.014 A 
ENDBRANCH  18  19
ENDBRANCH  17  18
ENDBRANCH  16  17
ENDBRANCH  15  16
ENDBRANCH   1  15
BRANCH  13  22
HETATM   22  O3  UNL     1      27.213   3.244  51.099  1.00  0.00    -0.365 OA
HETATM   23  H17 UNL     1      28.181   3.350  50.857  1.00  0.00     0.217 HD
ENDBRANCH  13  22
TORSDOF 6
ENDMDL
MODEL 4
REMARK VINA RESULT:      -7.7      3.483      5.558
REMARK  6 active torsions:
REMARK  status: ('A' for Active; 'I' for Inactive)
REMARK    1  A    between atoms: C3_3  and  C4_4 
REMARK    2  A    between atoms: C4_4  and  C5_5 
REMARK    3  A    between atoms: C5_5  and  C6_6 
REMARK    4  A    between atoms: C6_6  and  C7_7 
REMARK    5  A    between atoms: C7_7  and  C8_8 
REMARK    6  A    between atoms: C17_20  and  O3_21 
ROOT
HETATM    1  C8  UNL     1      22.497   0.515  53.372  1.00  0.00    -0.043 A 
HETATM    2  C9  UNL     1      23.158   1.363  52.511  1.00  0.00     0.035 A 
HETATM    3  C10 UNL     1      24.525   1.293  52.374  1.00  0.00     0.044 A 
HETATM    4  N1  UNL     1      25.142   0.396  53.088  1.00  0.00    -0.226 NA
HETATM    5  C11 UNL     1      24.566  -0.438  53.927  1.00  0.00     0.206 A 
HETATM    6  C12 UNL     1      23.206  -0.432  54.123  1.00  0.00     0.000 A 
HETATM    7  C13 UNL     1      22.721  -1.427  55.085  1.00  0.00     0.053 C 
HETATM    8  O1  UNL     1      25.583  -1.238  54.507  1.00  0.00    -0.176 OA
HETATM    9  O2  UNL     1      26.454  -0.504  55.303  1.00  0.00    -0.225 OA
HETATM   10  C14 UNL     1      27.417   0.296  54.774  1.00  0.00     0.228 C 
HETATM   11  C15 UNL     1      27.971   1.218  53.902  1.00  0.00     0.034 C 
HETATM   12  C16 UNL     1      27.784   2.107  52.720  1.00  0.00     0.009 C 
HETATM   13  C17 UNL     1      26.710   2.302  51.981  1.00  0.00     0.045 C 
HETATM   14  C18 UNL     1      25.330   2.182  51.490  1.00  0.00     0.123 C 
ENDROOT
BRANCH   1  15
HETATM   15  C7  UNL     1      21.036   0.501  53.603  1.00  0.00     0.066 C 
BRANCH  15  16
HETATM   16  C6  UNL     1      20.274   0.295  52.344  1.00  0.00    -0.022 C 
BRANCH  16  17
HETATM   17  C5  UNL     1      19.400   0.349  51.389  1.00  0.00    -0.007 C 
BRANCH  17  18
HETATM   18  C4  UNL     1      18.111   0.185  50.737  1.00  0.00    -0.022 C 
BRANCH  18  19
HETATM   19  C3  UNL     1      17.282  -0.411  51.476  1.00  0.00     0.013 A 
HETATM   20  C2  UNL     1      16.448  -1.057  52.467  1.00  0.00    -0.002 A 
HETATM   21  C1  UNL     1      15.860  -1.152  51.251  1.00  0.00     0.014 A 
ENDBRANCH  18  19
ENDBRANCH  17  18
ENDBRANCH  16  17
ENDBRANCH  15  16
ENDBRANCH   1  15
BRANCH  13  22
HETATM   22  O3  UNL     1      27.168   3.246  51.027  1.00  0.00    -0.365 OA
HETATM   23  H17 UNL     1      26.833   3.276  50.082  1.00  0.00     0.217 HD
ENDBRANCH  13  22
TORSDOF 6
ENDMDL
MODEL 5
REMARK VINA RESULT:      -7.5      3.792      6.559
REMARK  6 active torsions:
REMARK  status: ('A' for Active; 'I' for Inactive)
REMARK    1  A    between atoms: C3_3  and  C4_4 
REMARK    2  A    between atoms: C4_4  and  C5_5 
REMARK    3  A    between atoms: C5_5  and  C6_6 
REMARK    4  A    between atoms: C6_6  and  C7_7 
REMARK    5  A    between atoms: C7_7  and  C8_8 
REMARK    6  A    between atoms: C17_20  and  O3_21 
ROOT
HETATM    1  C8  UNL     1      23.795   2.089  51.156  1.00  0.00    -0.043 A 
HETATM    2  C9  UNL     1      23.643   1.308  52.280  1.00  0.00     0.035 A 
HETATM    3  C10 UNL     1      22.574   0.450  52.394  1.00  0.00     0.044 A 
HETATM    4  N1  UNL     1      21.735   0.420  51.399  1.00  0.00    -0.226 NA
HETATM    5  C11 UNL     1      21.827   1.143  50.304  1.00  0.00     0.206 A 
HETATM    6  C12 UNL     1      22.863   2.025  50.112  1.00  0.00     0.000 A 
HETATM    7  C13 UNL     1      22.824   2.749  48.837  1.00  0.00     0.053 C 
HETATM    8  O1  UNL     1      20.717   0.823  49.480  1.00  0.00    -0.176 OA
HETATM    9  O2  UNL     1      19.505   1.208  50.040  1.00  0.00    -0.225 OA
HETATM   10  C14 UNL     1      18.925   0.514  51.054  1.00  0.00     0.228 C 
HETATM   11  C15 UNL     1      18.862  -0.198  52.240  1.00  0.00     0.034 C 
HETATM   12  C16 UNL     1      19.592  -0.770  53.407  1.00  0.00     0.009 C 
HETATM   13  C17 UNL     1      20.877  -0.726  53.694  1.00  0.00     0.045 C 
HETATM   14  C18 UNL     1      22.310  -0.415  53.578  1.00  0.00     0.123 C 
ENDROOT
BRANCH   1  15
HETATM   15  C7  UNL     1      24.899   3.046  50.925  1.00  0.00     0.066 C 
BRANCH  15  16
HETATM   16  C6  UNL     1      26.203   2.523  51.409  1.00  0.00    -0.022 C 
BRANCH  16  17
HETATM   17  C5  UNL     1      27.152   1.988  52.110  1.00  0.00    -0.007 C 
BRANCH  17  18
HETATM   18  C4  UNL     1      27.822   0.983  52.919  1.00  0.00    -0.022 C 
BRANCH  18  19
HETATM   19  C3  UNL     1      27.248  -0.137  52.848  1.00  0.00     0.013 A 
HETATM   20  C2  UNL     1      26.428  -1.325  52.745  1.00  0.00    -0.002 A 
HETATM   21  C1  UNL     1      27.721  -1.684  52.928  1.00  0.00     0.014 A 
ENDBRANCH  18  19
ENDBRANCH  17  18
ENDBRANCH  16  17
ENDBRANCH  15  16
ENDBRANCH   1  15
BRANCH  13  22
HETATM   22  O3  UNL     1      20.939  -1.444  54.916  1.00  0.00    -0.365 OA
HETATM   23  H17 UNL     1      20.315  -2.196  55.141  1.00  0.00     0.217 HD
ENDBRANCH  13  22
TORSDOF 6
ENDMDL
MODEL 6
REMARK VINA RESULT:      -7.4      4.433      7.458
REMARK  6 active torsions:
REMARK  status: ('A' for Active; 'I' for Inactive)
REMARK    1  A    between atoms: C3_3  and  C4_4 
REMARK    2  A    between atoms: C4_4  and  C5_5 
REMARK    3  A    between atoms: C5_5  and  C6_6 
REMARK    4  A    between atoms: C6_6  and  C7_7 
REMARK    5  A    between atoms: C7_7  and  C8_8 
REMARK    6  A    between atoms: C17_20  and  O3_21 
ROOT
HETATM    1  C8  UNL     1      22.855   1.172  52.573  1.00  0.00    -0.043 A 
HETATM    2  C9  UNL     1      21.990   0.455  53.369  1.00  0.00     0.035 A 
HETATM    3  C10 UNL     1      20.822  -0.053  52.849  1.00  0.00     0.044 A 
HETATM    4  N1  UNL     1      20.589   0.178  51.589  1.00  0.00    -0.226 NA
HETATM    5  C11 UNL     1      21.376   0.857  50.782  1.00  0.00     0.206 A 
HETATM    6  C12 UNL     1      22.560   1.398  51.223  1.00  0.00     0.000 A 
HETATM    7  C13 UNL     1      23.323   2.120  50.199  1.00  0.00     0.053 C 
HETATM    8  O1  UNL     1      20.761   0.888  49.504  1.00  0.00    -0.176 OA
HETATM    9  O2  UNL     1      19.570   1.605  49.500  1.00  0.00    -0.225 OA
HETATM   10  C14 UNL     1      18.420   1.098  50.016  1.00  0.00     0.228 C 
HETATM   11  C15 UNL     1      17.618   0.419  50.918  1.00  0.00     0.034 C 
HETATM   12  C16 UNL     1      17.524  -0.357  52.187  1.00  0.00     0.009 C 
HETATM   13  C17 UNL     1      18.476  -0.696  53.033  1.00  0.00     0.045 C 
HETATM   14  C18 UNL     1      19.813  -0.818  53.633  1.00  0.00     0.123 C 
ENDROOT
BRANCH   1  15
HETATM   15  C7  UNL     1      24.134   1.765  53.022  1.00  0.00     0.066 C 
BRANCH  15  16
HETATM   16  C6  UNL     1      25.245   0.779  53.004  1.00  0.00    -0.022 C 
BRANCH  16  17
HETATM   17  C5  UNL     1      25.964  -0.295  53.093  1.00  0.00    -0.007 C 
BRANCH  17  18
HETATM   18  C4  UNL     1      27.037  -1.223  52.777  1.00  0.00    -0.022 C 
BRANCH  18  19
HETATM   19  C3  UNL     1      28.148  -0.825  53.220  1.00  0.00     0.013 A 
HETATM   20  C2  UNL     1      29.339  -0.203  53.759  1.00  0.00    -0.002 A 
HETATM   21  C1  UNL     1      29.615  -1.484  53.415  1.00  0.00     0.014 A 
ENDBRANCH  18  19
ENDBRANCH  17  18
ENDBRANCH  16  17
ENDBRANCH  15  16
ENDBRANCH   1  15
BRANCH  13  22
HETATM   22  O3  UNL     1      17.760  -1.418  54.021  1.00  0.00    -0.365 OA
HETATM   23  H17 UNL     1      18.201  -2.039  54.673  1.00  0.00     0.217 HD
ENDBRANCH  13  22
TORSDOF 6
ENDMDL
MODEL 7
REMARK VINA RESULT:      -7.3      3.013      5.699
REMARK  6 active torsions:
REMARK  status: ('A' for Active; 'I' for Inactive)
REMARK    1  A    between atoms: C3_3  and  C4_4 
REMARK    2  A    between atoms: C4_4  and  C5_5 
REMARK    3  A    between atoms: C5_5  and  C6_6 
REMARK    4  A    between atoms: C6_6  and  C7_7 
REMARK    5  A    between atoms: C7_7  and  C8_8 
REMARK    6  A    between atoms: C17_20  and  O3_21 
ROOT
HETATM    1  C8  UNL     1      25.347   2.485  51.091  1.00  0.00    -0.043 A 
HETATM    2  C9  UNL     1      24.153   3.171  51.118  1.00  0.00     0.035 A 
HETATM    3  C10 UNL     1      23.144   2.782  51.969  1.00  0.00     0.044 A 
HETATM    4  N1  UNL     1      23.381   1.752  52.730  1.00  0.00    -0.226 NA
HETATM    5  C11 UNL     1      24.498   1.059  52.746  1.00  0.00     0.206 A 
HETATM    6  C12 UNL     1      25.554   1.381  51.927  1.00  0.00     0.000 A 
HETATM    7  C13 UNL     1      26.729   0.514  52.071  1.00  0.00     0.053 C 
HETATM    8  O1  UNL     1      24.349   0.021  53.701  1.00  0.00    -0.176 OA
HETATM    9  O2  UNL     1      23.379  -0.906  53.337  1.00  0.00    -0.225 OA
HETATM   10  C14 UNL     1      22.051  -0.643  53.448  1.00  0.00     0.228 C 
HETATM   11  C15 UNL     1      20.887   0.103  53.366  1.00  0.00     0.034 C 
HETATM   12  C16 UNL     1      20.245   1.401  53.013  1.00  0.00     0.009 C 
HETATM   13  C17 UNL     1      20.790   2.505  52.542  1.00  0.00     0.045 C 
HETATM   14  C18 UNL     1      21.812   3.442  52.053  1.00  0.00     0.123 C 
ENDROOT
BRANCH   1  15
HETATM   15  C7  UNL     1      26.498   2.810  50.220  1.00  0.00     0.066 C 
BRANCH  15  16
HETATM   16  C6  UNL     1      26.323   4.111  49.524  1.00  0.00    -0.022 C 
BRANCH  16  17
HETATM   17  C5  UNL     1      26.512   5.264  48.964  1.00  0.00    -0.007 C 
BRANCH  17  18
HETATM   18  C4  UNL     1      27.257   6.395  48.437  1.00  0.00    -0.022 C 
BRANCH  18  19
HETATM   19  C3  UNL     1      28.461   6.102  48.211  1.00  0.00     0.013 A 
HETATM   20  C2  UNL     1      29.814   5.611  48.057  1.00  0.00    -0.002 A 
HETATM   21  C1  UNL     1      29.677   6.775  47.380  1.00  0.00     0.014 A 
ENDBRANCH  18  19
ENDBRANCH  17  18
ENDBRANCH  16  17
ENDBRANCH  15  16
ENDBRANCH   1  15
BRANCH  13  22
HETATM   22  O3  UNL     1      19.670   3.366  52.418  1.00  0.00    -0.365 OA
HETATM   23  H17 UNL     1      19.480   3.902  51.592  1.00  0.00     0.217 HD
ENDBRANCH  13  22
TORSDOF 6
ENDMDL
MODEL 8
REMARK VINA RESULT:      -7.0      3.323      6.205
REMARK  6 active torsions:
REMARK  status: ('A' for Active; 'I' for Inactive)
REMARK    1  A    between atoms: C3_3  and  C4_4 
REMARK    2  A    between atoms: C4_4  and  C5_5 
REMARK    3  A    between atoms: C5_5  and  C6_6 
REMARK    4  A    between atoms: C6_6  and  C7_7 
REMARK    5  A    between atoms: C7_7  and  C8_8 
REMARK    6  A    between atoms: C17_20  and  O3_21 
ROOT
HETATM    1  C8  UNL     1      23.293   2.861  50.889  1.00  0.00    -0.043 A 
HETATM    2  C9  UNL     1      24.554   2.706  50.357  1.00  0.00     0.035 A 
HETATM    3  C10 UNL     1      25.363   3.799  50.149  1.00  0.00     0.044 A 
HETATM    4  N1  UNL     1      24.878   4.961  50.479  1.00  0.00    -0.226 NA
HETATM    5  C11 UNL     1      23.683   5.171  50.988  1.00  0.00     0.206 A 
HETATM    6  C12 UNL     1      22.813   4.133  51.226  1.00  0.00     0.000 A 
HETATM    7  C13 UNL     1      21.524   4.533  51.801  1.00  0.00     0.053 C 
HETATM    8  O1  UNL     1      23.540   6.566  51.195  1.00  0.00    -0.176 OA
HETATM    9  O2  UNL     1      23.533   7.287  50.007  1.00  0.00    -0.225 OA
HETATM   10  C14 UNL     1      24.670   7.530  49.304  1.00  0.00     0.228 C 
HETATM   11  C15 UNL     1      25.903   7.254  48.737  1.00  0.00     0.034 C 
HETATM   12  C16 UNL     1      26.992   6.262  48.510  1.00  0.00     0.009 C 
HETATM   13  C17 UNL     1      27.081   5.010  48.912  1.00  0.00     0.045 C 
HETATM   14  C18 UNL     1      26.728   3.736  49.557  1.00  0.00     0.123 C 
ENDROOT
BRANCH   1  15
HETATM   15  C7  UNL     1      22.338   1.763  51.154  1.00  0.00     0.066 C 
BRANCH  15  16
HETATM   16  C6  UNL     1      22.785   0.889  52.269  1.00  0.00    -0.022 C 
BRANCH  16  17
HETATM   17  C5  UNL     1      23.486   0.246  53.149  1.00  0.00    -0.007 C 
BRANCH  17  18
HETATM   18  C4  UNL     1      24.655  -0.396  53.726  1.00  0.00    -0.022 C 
BRANCH  18  19
HETATM   19  C3  UNL     1      25.661  -0.307  52.973  1.00  0.00     0.013 A 
HETATM   20  C2  UNL     1      26.700  -0.129  51.980  1.00  0.00    -0.002 A 
HETATM   21  C1  UNL     1      27.230  -0.693  53.091  1.00  0.00     0.014 A 
ENDBRANCH  18  19
ENDBRANCH  17  18
ENDBRANCH  16  17
ENDBRANCH  15  16
ENDBRANCH   1  15
BRANCH  13  22
HETATM   22  O3  UNL     1      28.336   4.612  48.384  1.00  0.00    -0.365 OA
HETATM   23  H17 UNL     1      28.953   5.241  47.905  1.00  0.00     0.217 HD
ENDBRANCH  13  22
TORSDOF 6
ENDMDL
MODEL 9
REMARK VINA RESULT:      -6.7      4.041      6.796
REMARK  6 active torsions:
REMARK  status: ('A' for Active; 'I' for Inactive)
REMARK    1  A    between atoms: C3_3  and  C4_4 
REMARK    2  A    between atoms: C4_4  and  C5_5 
REMARK    3  A    between atoms: C5_5  and  C6_6 
REMARK    4  A    between atoms: C6_6  and  C7_7 
REMARK    5  A    between atoms: C7_7  and  C8_8 
REMARK    6  A    between atoms: C17_20  and  O3_21 
ROOT
HETATM    1  C8  UNL     1      27.211   5.735  48.614  1.00  0.00    -0.043 A 
HETATM    2  C9  UNL     1      27.351   4.469  49.140  1.00  0.00     0.035 A 
HETATM    3  C10 UNL     1      26.310   3.875  49.815  1.00  0.00     0.044 A 
HETATM    4  N1  UNL     1      25.210   4.563  49.923  1.00  0.00    -0.226 NA
HETATM    5  C11 UNL     1      25.019   5.773  49.444  1.00  0.00     0.206 A 
HETATM    6  C12 UNL     1      26.008   6.438  48.759  1.00  0.00     0.000 A 
HETATM    7  C13 UNL     1      25.634   7.775  48.286  1.00  0.00     0.053 C 
HETATM    8  O1  UNL     1      23.699   6.168  49.782  1.00  0.00    -0.176 OA
HETATM    9  O2  UNL     1      23.516   6.311  51.152  1.00  0.00    -0.225 OA
HETATM   10  C14 UNL     1      23.384   5.242  51.979  1.00  0.00     0.228 C 
HETATM   11  C15 UNL     1      23.652   3.982  52.487  1.00  0.00     0.034 C 
HETATM   12  C16 UNL     1      24.458   2.731  52.397  1.00  0.00     0.009 C 
HETATM   13  C17 UNL     1      25.417   2.413  51.550  1.00  0.00     0.045 C 
HETATM   14  C18 UNL     1      26.373   2.524  50.439  1.00  0.00     0.123 C 
ENDROOT
BRANCH   1  15
HETATM   15  C7  UNL     1      28.258   6.472  47.874  1.00  0.00     0.066 C 
BRANCH  15  16
HETATM   16  C6  UNL     1      29.574   5.784  47.932  1.00  0.00    -0.022 C 
BRANCH  16  17
HETATM   17  C5  UNL     1      30.828   5.496  48.082  1.00  0.00    -0.007 C 
BRANCH  17  18
HETATM   18  C4  UNL     1      32.158   5.049  47.702  1.00  0.00    -0.022 C 
BRANCH  18  19
HETATM   19  C3  UNL     1      32.140   3.895  47.196  1.00  0.00     0.013 A 
HETATM   20  C2  UNL     1      31.963   2.625  46.525  1.00  0.00    -0.002 A 
HETATM   21  C1  UNL     1      33.065   2.571  47.310  1.00  0.00     0.014 A 
ENDBRANCH  18  19
ENDBRANCH  17  18
ENDBRANCH  16  17
ENDBRANCH  15  16
ENDBRANCH   1  15
BRANCH  13  22
HETATM   22  O3  UNL     1      25.777   1.109  51.978  1.00  0.00    -0.365 OA
HETATM   23  H17 UNL     1      25.603   0.286  51.431  1.00  0.00     0.217 HD
ENDBRANCH  13  22
TORSDOF 6
ENDMDL
