MODEL 1
REMARK VINA RESULT:      -9.8      0.000      0.000
REMARK  0 active torsions:
REMARK  status: ('A' for Active; 'I' for Inactive)
ROOT
HETATM    1  C1  UNL     1      26.389   2.594  50.872  1.00  0.00    -0.001 C 
HETATM    2  C2  UNL     1      26.479   1.859  51.974  1.00  0.00    -0.024 C 
HETATM    3  C3  UNL     1      25.682   1.731  53.252  1.00  0.00     0.013 C 
HETATM    4  C4  UNL     1      24.811   2.914  53.477  1.00  0.00     0.013 C 
HETATM    5  C5  UNL     1      23.455   2.876  52.859  1.00  0.00     0.041 C 
HETATM    6  C6  UNL     1      22.864   1.535  52.827  1.00  0.00    -0.028 A 
HETATM    7  C7  UNL     1      23.600   0.396  53.095  1.00  0.00    -0.007 A 
HETATM    8  S1  UNL     1      22.367  -0.893  52.986  1.00  0.00    -0.073 SA
HETATM    9  C8  UNL     1      20.996   0.155  52.598  1.00  0.00     0.114 A 
HETATM   10  N1  UNL     1      19.699  -0.056  52.350  1.00  0.00    -0.234 NA
HETATM   11  C9  UNL     1      18.857   0.954  52.059  1.00  0.00     0.236 A 
HETATM   12  N2  UNL     1      19.413   2.182  52.034  1.00  0.00    -0.222 NA
HETATM   13  C10 UNL     1      20.731   2.414  52.286  1.00  0.00     0.162 A 
HETATM   14  C11 UNL     1      21.555   1.356  52.581  1.00  0.00     0.055 A 
HETATM   15  N3  UNL     1      21.000   3.803  52.122  1.00  0.00    -0.233 NA
HETATM   16  C12 UNL     1      20.609   4.523  51.117  1.00  0.00     0.303 C 
HETATM   17  O1  UNL     1      20.058   4.963  49.960  1.00  0.00    -0.317 OA
HETATM   18  C13 UNL     1      20.688   5.397  48.810  1.00  0.00     0.105 A 
HETATM   19  C14 UNL     1      19.773   5.279  47.793  1.00  0.00     0.040 A 
HETATM   20  C15 UNL     1      19.998   5.611  46.450  1.00  0.00     0.003 A 
HETATM   21  C16 UNL     1      21.274   6.102  46.152  1.00  0.00     0.003 A 
HETATM   22  C17 UNL     1      22.171   6.211  47.190  1.00  0.00     0.039 A 
HETATM   23  C18 UNL     1      21.922   5.877  48.496  1.00  0.00     0.102 A 
HETATM   24  O2  UNL     1      23.065   6.121  49.261  1.00  0.00    -0.346 OA
HETATM   25  C19 UNL     1      23.660   7.381  49.319  1.00  0.00     0.202 C 
HETATM   26  C20 UNL     1      24.881   7.440  50.171  1.00  0.00     0.196 C 
HETATM   27  O3  UNL     1      25.944   6.666  49.843  1.00  0.00    -0.361 OA
HETATM   28  C21 UNL     1      25.695   5.310  49.872  1.00  0.00     0.437 C 
HETATM   29  N4  UNL     1      26.917   4.563  49.562  1.00  0.00     0.109 N 
HETATM   30  C22 UNL     1      26.675   3.161  49.551  1.00  0.00     0.299 C 
HETATM   31  C23 UNL     1      25.046   0.394  53.361  1.00  0.00     0.055 C 
HETATM   32  H20 UNL     1      27.257   4.880  48.637  1.00  0.00     0.319 HD
ENDROOT
TORSDOF 0
ENDMDL
MODEL 2
REMARK VINA RESULT:      -9.1      2.313      5.651
REMARK  0 active torsions:
REMARK  status: ('A' for Active; 'I' for Inactive)
ROOT
HETATM    1  C1  UNL     1      17.379   2.710  51.516  1.00  0.00    -0.001 C 
HETATM    2  C2  UNL     1      17.216   1.415  51.762  1.00  0.00    -0.024 C 
HETATM    3  C3  UNL     1      17.974   0.152  51.428  1.00  0.00     0.013 C 
HETATM    4  C4  UNL     1      18.918   0.359  50.298  1.00  0.00     0.013 C 
HETATM    5  C5  UNL     1      20.281   0.853  50.645  1.00  0.00     0.041 C 
HETATM    6  C6  UNL     1      20.781   0.338  51.923  1.00  0.00    -0.028 A 
HETATM    7  C7  UNL     1      19.965  -0.313  52.829  1.00  0.00    -0.007 A 
HETATM    8  S1  UNL     1      21.110  -0.765  54.124  1.00  0.00    -0.073 SA
HETATM    9  C8  UNL     1      22.556  -0.068  53.383  1.00  0.00     0.114 A 
HETATM   10  N1  UNL     1      23.842   0.020  53.743  1.00  0.00    -0.234 NA
HETATM   11  C9  UNL     1      24.756   0.639  52.971  1.00  0.00     0.236 A 
HETATM   12  N2  UNL     1      24.284   1.160  51.820  1.00  0.00    -0.222 NA
HETATM   13  C10 UNL     1      22.980   1.077  51.439  1.00  0.00     0.162 A 
HETATM   14  C11 UNL     1      22.081   0.436  52.254  1.00  0.00     0.055 A 
HETATM   15  N3  UNL     1      22.809   1.775  50.209  1.00  0.00    -0.233 NA
HETATM   16  C12 UNL     1      23.268   2.961  49.956  1.00  0.00     0.303 C 
HETATM   17  O1  UNL     1      23.874   4.172  50.029  1.00  0.00    -0.317 OA
HETATM   18  C13 UNL     1      23.299   5.428  50.041  1.00  0.00     0.105 A 
HETATM   19  C14 UNL     1      24.226   6.278  50.592  1.00  0.00     0.040 A 
HETATM   20  C15 UNL     1      24.053   7.654  50.794  1.00  0.00     0.003 A 
HETATM   21  C16 UNL     1      22.820   8.177  50.389  1.00  0.00     0.003 A 
HETATM   22  C17 UNL     1      21.909   7.302  49.839  1.00  0.00     0.039 A 
HETATM   23  C18 UNL     1      22.107   5.959  49.654  1.00  0.00     0.102 A 
HETATM   24  O2  UNL     1      20.967   5.400  49.072  1.00  0.00    -0.346 OA
HETATM   25  C19 UNL     1      20.457   5.859  47.858  1.00  0.00     0.202 C 
HETATM   26  C20 UNL     1      19.224   5.153  47.408  1.00  0.00     0.196 C 
HETATM   27  O3  UNL     1      18.119   5.205  48.190  1.00  0.00    -0.361 OA
HETATM   28  C21 UNL     1      18.276   4.646  49.441  1.00  0.00     0.437 C 
HETATM   29  N4  UNL     1      17.013   4.700  50.182  1.00  0.00     0.109 N 
HETATM   30  C22 UNL     1      17.160   4.159  51.491  1.00  0.00     0.299 C 
HETATM   31  C23 UNL     1      18.517  -0.493  52.650  1.00  0.00     0.055 C 
HETATM   32  H20 UNL     1      16.715   5.691  50.231  1.00  0.00     0.319 HD
ENDROOT
TORSDOF 0
ENDMDL
MODEL 3
REMARK VINA RESULT:      -8.5      2.224      5.394
REMARK  0 active torsions:
REMARK  status: ('A' for Active; 'I' for Inactive)
ROOT
HETATM    1  C1  UNL     1      19.367   3.517  49.709  1.00  0.00    -0.001 C 
HETATM    2  C2  UNL     1      19.224   2.234  50.021  1.00  0.00    -0.024 C 
HETATM    3  C3  UNL     1      20.105   1.008  49.970  1.00  0.00     0.013 C 
HETATM    4  C4  UNL     1      21.266   1.203  49.063  1.00  0.00     0.013 C 
HETATM    5  C5  UNL     1      22.488   1.816  49.659  1.00  0.00     0.041 C 
HETATM    6  C6  UNL     1      22.714   1.429  51.055  1.00  0.00    -0.028 A 
HETATM    7  C7  UNL     1      21.751   0.787  51.810  1.00  0.00    -0.007 A 
HETATM    8  S1  UNL     1      22.597   0.510  53.359  1.00  0.00    -0.073 SA
HETATM    9  C8  UNL     1      24.134   1.255  52.899  1.00  0.00     0.114 A 
HETATM   10  N1  UNL     1      25.298   1.460  53.524  1.00  0.00    -0.234 NA
HETATM   11  C9  UNL     1      26.328   2.087  52.923  1.00  0.00     0.236 A 
HETATM   12  N2  UNL     1      26.100   2.490  51.657  1.00  0.00    -0.222 NA
HETATM   13  C10 UNL     1      24.922   2.288  51.006  1.00  0.00     0.162 A 
HETATM   14  C11 UNL     1      23.898   1.643  51.654  1.00  0.00     0.055 A 
HETATM   15  N3  UNL     1      24.995   2.884  49.714  1.00  0.00    -0.233 NA
HETATM   16  C12 UNL     1      25.435   4.079  49.470  1.00  0.00     0.303 C 
HETATM   17  O1  UNL     1      25.942   5.332  49.571  1.00  0.00    -0.317 OA
HETATM   18  C13 UNL     1      25.312   6.541  49.350  1.00  0.00     0.105 A 
HETATM   19  C14 UNL     1      26.043   7.492  50.018  1.00  0.00     0.040 A 
HETATM   20  C15 UNL     1      25.755   8.863  50.061  1.00  0.00     0.003 A 
HETATM   21  C16 UNL     1      24.619   9.266  49.351  1.00  0.00     0.003 A 
HETATM   22  C17 UNL     1      23.904   8.292  48.689  1.00  0.00     0.039 A 
HETATM   23  C18 UNL     1      24.211   6.957  48.666  1.00  0.00     0.102 A 
HETATM   24  O2  UNL     1      23.263   6.279  47.897  1.00  0.00    -0.346 OA
HETATM   25  C19 UNL     1      23.016   6.614  46.566  1.00  0.00     0.202 C 
HETATM   26  C20 UNL     1      21.956   5.790  45.917  1.00  0.00     0.196 C 
HETATM   27  O3  UNL     1      20.702   5.819  46.429  1.00  0.00    -0.361 OA
HETATM   28  C21 UNL     1      20.603   5.361  47.726  1.00  0.00     0.437 C 
HETATM   29  N4  UNL     1      19.205   5.377  48.164  1.00  0.00     0.109 N 
HETATM   30  C22 UNL     1      19.082   4.942  49.513  1.00  0.00     0.299 C 
HETATM   31  C23 UNL     1      20.392   0.491  51.332  1.00  0.00     0.055 C 
HETATM   32  H20 UNL     1      18.851   6.345  48.061  1.00  0.00     0.319 HD
ENDROOT
TORSDOF 0
ENDMDL
MODEL 4
REMARK VINA RESULT:      -8.1      1.792      2.174
REMARK  0 active torsions:
REMARK  status: ('A' for Active; 'I' for Inactive)
ROOT
HETATM    1  C1  UNL     1      26.073   3.558  50.335  1.00  0.00    -0.001 C 
HETATM    2  C2  UNL     1      25.814   2.722  51.333  1.00  0.00    -0.024 C 
HETATM    3  C3  UNL     1      24.705   2.564  52.346  1.00  0.00     0.013 C 
HETATM    4  C4  UNL     1      23.901   3.807  52.479  1.00  0.00     0.013 C 
HETATM    5  C5  UNL     1      22.754   3.968  51.540  1.00  0.00     0.041 C 
HETATM    6  C6  UNL     1      22.088   2.705  51.208  1.00  0.00    -0.028 A 
HETATM    7  C7  UNL     1      22.637   1.475  51.520  1.00  0.00    -0.007 A 
HETATM    8  S1  UNL     1      21.378   0.338  50.959  1.00  0.00    -0.073 SA
HETATM    9  C8  UNL     1      20.243   1.555  50.361  1.00  0.00     0.114 A 
HETATM   10  N1  UNL     1      19.043   1.505  49.773  1.00  0.00    -0.234 NA
HETATM   11  C9  UNL     1      18.387   2.620  49.397  1.00  0.00     0.236 A 
HETATM   12  N2  UNL     1      19.026   3.780  49.653  1.00  0.00    -0.222 NA
HETATM   13  C10 UNL     1      20.246   3.848  50.252  1.00  0.00     0.162 A 
HETATM   14  C11 UNL     1      20.879   2.687  50.622  1.00  0.00     0.055 A 
HETATM   15  N3  UNL     1      20.656   5.210  50.321  1.00  0.00    -0.233 NA
HETATM   16  C12 UNL     1      20.600   6.055  49.339  1.00  0.00     0.303 C 
HETATM   17  O1  UNL     1      20.405   6.653  48.138  1.00  0.00    -0.317 OA
HETATM   18  C13 UNL     1      21.345   7.119  47.240  1.00  0.00     0.105 A 
HETATM   19  C14 UNL     1      20.721   7.191  46.020  1.00  0.00     0.040 A 
HETATM   20  C15 UNL     1      21.313   7.616  44.823  1.00  0.00     0.003 A 
HETATM   21  C16 UNL     1      22.657   7.995  44.913  1.00  0.00     0.003 A 
HETATM   22  C17 UNL     1      23.259   7.915  46.149  1.00  0.00     0.039 A 
HETATM   23  C18 UNL     1      22.652   7.494  47.303  1.00  0.00     0.102 A 
HETATM   24  O2  UNL     1      23.572   7.546  48.353  1.00  0.00    -0.346 OA
HETATM   25  C19 UNL     1      24.228   8.726  48.702  1.00  0.00     0.202 C 
HETATM   26  C20 UNL     1      25.186   8.579  49.835  1.00  0.00     0.196 C 
HETATM   27  O3  UNL     1      26.233   7.730  49.698  1.00  0.00    -0.361 OA
HETATM   28  C21 UNL     1      25.879   6.411  49.508  1.00  0.00     0.437 C 
HETATM   29  N4  UNL     1      27.077   5.571  49.433  1.00  0.00     0.109 N 
HETATM   30  C22 UNL     1      26.737   4.208  49.201  1.00  0.00     0.299 C 
HETATM   31  C23 UNL     1      23.959   1.297  52.140  1.00  0.00     0.055 C 
HETATM   32  H20 UNL     1      27.671   5.932  48.665  1.00  0.00     0.319 HD
ENDROOT
TORSDOF 0
ENDMDL
MODEL 5
REMARK VINA RESULT:      -8.1      8.757     13.159
REMARK  0 active torsions:
REMARK  status: ('A' for Active; 'I' for Inactive)
ROOT
HETATM    1  C1  UNL     1      28.642   8.033  48.517  1.00  0.00    -0.001 C 
HETATM    2  C2  UNL     1      28.282   9.217  48.999  1.00  0.00    -0.024 C 
HETATM    3  C3  UNL     1      28.972  10.540  49.230  1.00  0.00     0.013 C 
HETATM    4  C4  UNL     1      30.451  10.395  49.243  1.00  0.00     0.013 C 
HETATM    5  C5  UNL     1      31.145  10.486  47.927  1.00  0.00     0.041 C 
HETATM    6  C6  UNL     1      30.517  11.431  46.998  1.00  0.00    -0.028 A 
HETATM    7  C7  UNL     1      29.264  11.969  47.226  1.00  0.00    -0.007 A 
HETATM    8  S1  UNL     1      29.064  13.078  45.840  1.00  0.00    -0.073 SA
HETATM    9  C8  UNL     1      30.624  12.748  45.075  1.00  0.00     0.114 A 
HETATM   10  N1  UNL     1      31.234  13.185  43.968  1.00  0.00    -0.234 NA
HETATM   11  C9  UNL     1      32.453  12.742  43.604  1.00  0.00     0.236 A 
HETATM   12  N2  UNL     1      33.007  11.831  44.430  1.00  0.00    -0.222 NA
HETATM   13  C10 UNL     1      32.400  11.377  45.561  1.00  0.00     0.162 A 
HETATM   14  C11 UNL     1      31.159  11.857  45.897  1.00  0.00     0.055 A 
HETATM   15  N3  UNL     1      33.226  10.387  46.168  1.00  0.00    -0.233 NA
HETATM   16  C12 UNL     1      33.786   9.400  45.541  1.00  0.00     0.303 C 
HETATM   17  O1  UNL     1      34.208   8.518  44.602  1.00  0.00    -0.317 OA
HETATM   18  C13 UNL     1      33.878   7.184  44.457  1.00  0.00     0.105 A 
HETATM   19  C14 UNL     1      34.146   6.854  43.152  1.00  0.00     0.040 A 
HETATM   20  C15 UNL     1      33.955   5.592  42.573  1.00  0.00     0.003 A 
HETATM   21  C16 UNL     1      33.446   4.605  43.425  1.00  0.00     0.003 A 
HETATM   22  C17 UNL     1      33.187   4.963  44.729  1.00  0.00     0.039 A 
HETATM   23  C18 UNL     1      33.384   6.208  45.267  1.00  0.00     0.102 A 
HETATM   24  O2  UNL     1      33.010   6.194  46.612  1.00  0.00    -0.346 OA
HETATM   25  C19 UNL     1      33.582   5.312  47.529  1.00  0.00     0.202 C 
HETATM   26  C20 UNL     1      33.040   5.434  48.912  1.00  0.00     0.196 C 
HETATM   27  O3  UNL     1      31.721   5.204  49.119  1.00  0.00    -0.361 OA
HETATM   28  C21 UNL     1      30.878   6.069  48.452  1.00  0.00     0.437 C 
HETATM   29  N4  UNL     1      29.482   5.776  48.788  1.00  0.00     0.109 N 
HETATM   30  C22 UNL     1      28.592   6.633  48.083  1.00  0.00     0.299 C 
HETATM   31  C23 UNL     1      28.406  11.605  48.364  1.00  0.00     0.055 C 
HETATM   32  H20 UNL     1      29.299   4.785  48.547  1.00  0.00     0.319 HD
ENDROOT
TORSDOF 0
ENDMDL
MODEL 6
REMARK VINA RESULT:      -8.1     24.973     27.912
REMARK  0 active torsions:
REMARK  status: ('A' for Active; 'I' for Inactive)
ROOT
HETATM    1  C1  UNL     1      41.099   6.076  71.751  1.00  0.00    -0.001 C 
HETATM    2  C2  UNL     1      42.034   7.018  71.740  1.00  0.00    -0.024 C 
HETATM    3  C3  UNL     1      43.507   7.070  71.406  1.00  0.00     0.013 C 
HETATM    4  C4  UNL     1      44.122   5.718  71.421  1.00  0.00     0.013 C 
HETATM    5  C5  UNL     1      44.062   4.940  70.150  1.00  0.00     0.041 C 
HETATM    6  C6  UNL     1      44.169   5.773  68.949  1.00  0.00    -0.028 A 
HETATM    7  C7  UNL     1      44.063   7.151  68.992  1.00  0.00    -0.007 A 
HETATM    8  S1  UNL     1      44.345   7.612  67.290  1.00  0.00    -0.073 SA
HETATM    9  C8  UNL     1      44.575   5.976  66.660  1.00  0.00     0.114 A 
HETATM   10  N1  UNL     1      44.823   5.466  65.448  1.00  0.00    -0.234 NA
HETATM   11  C9  UNL     1      44.939   4.140  65.244  1.00  0.00     0.236 A 
HETATM   12  N2  UNL     1      44.787   3.370  66.341  1.00  0.00    -0.222 NA
HETATM   13  C10 UNL     1      44.535   3.873  67.581  1.00  0.00     0.162 A 
HETATM   14  C11 UNL     1      44.426   5.232  67.746  1.00  0.00     0.055 A 
HETATM   15  N3  UNL     1      44.373   2.795  68.497  1.00  0.00    -0.233 NA
HETATM   16  C12 UNL     1      43.640   1.746  68.290  1.00  0.00     0.303 C 
HETATM   17  O1  UNL     1      42.810   0.815  67.759  1.00  0.00    -0.317 OA
HETATM   18  C13 UNL     1      41.538   0.458  68.163  1.00  0.00     0.105 A 
HETATM   19  C14 UNL     1      40.938  -0.143  67.084  1.00  0.00     0.040 A 
HETATM   20  C15 UNL     1      39.634  -0.658  67.057  1.00  0.00     0.003 A 
HETATM   21  C16 UNL     1      38.908  -0.534  68.247  1.00  0.00     0.003 A 
HETATM   22  C17 UNL     1      39.534   0.073  69.313  1.00  0.00     0.039 A 
HETATM   23  C18 UNL     1      40.812   0.567  69.310  1.00  0.00     0.102 A 
HETATM   24  O2  UNL     1      41.101   1.108  70.564  1.00  0.00    -0.346 OA
HETATM   25  C19 UNL     1      41.012   0.351  71.733  1.00  0.00     0.202 C 
HETATM   26  C20 UNL     1      41.340   1.106  72.975  1.00  0.00     0.196 C 
HETATM   27  O3  UNL     1      40.584   2.182  73.304  1.00  0.00    -0.361 OA
HETATM   28  C21 UNL     1      40.616   3.207  72.382  1.00  0.00     0.437 C 
HETATM   29  N4  UNL     1      39.818   4.341  72.857  1.00  0.00     0.109 N 
HETATM   30  C22 UNL     1      39.808   5.398  71.905  1.00  0.00     0.299 C 
HETATM   31  C23 UNL     1      43.761   7.915  70.212  1.00  0.00     0.055 C 
HETATM   32  H20 UNL     1      38.856   4.001  73.032  1.00  0.00     0.319 HD
ENDROOT
TORSDOF 0
ENDMDL
MODEL 7
REMARK VINA RESULT:      -8.0      8.318     12.367
REMARK  0 active torsions:
REMARK  status: ('A' for Active; 'I' for Inactive)
ROOT
HETATM    1  C1  UNL     1      31.184  11.015  44.071  1.00  0.00    -0.001 C 
HETATM    2  C2  UNL     1      32.402  11.115  43.551  1.00  0.00    -0.024 C 
HETATM    3  C3  UNL     1      33.785  10.657  43.951  1.00  0.00     0.013 C 
HETATM    4  C4  UNL     1      33.856  10.321  45.397  1.00  0.00     0.013 C 
HETATM    5  C5  UNL     1      33.497   8.926  45.780  1.00  0.00     0.041 C 
HETATM    6  C6  UNL     1      33.890   7.926  44.782  1.00  0.00    -0.028 A 
HETATM    7  C7  UNL     1      34.302   8.274  43.509  1.00  0.00    -0.007 A 
HETATM    8  S1  UNL     1      34.714   6.691  42.792  1.00  0.00    -0.073 SA
HETATM    9  C8  UNL     1      34.315   5.705  44.205  1.00  0.00     0.114 A 
HETATM   10  N1  UNL     1      34.342   4.395  44.469  1.00  0.00    -0.234 NA
HETATM   11  C9  UNL     1      33.957   3.901  45.662  1.00  0.00     0.236 A 
HETATM   12  N2  UNL     1      33.543   4.816  46.561  1.00  0.00    -0.222 NA
HETATM   13  C10 UNL     1      33.510   6.153  46.308  1.00  0.00     0.162 A 
HETATM   14  C11 UNL     1      33.914   6.616  45.080  1.00  0.00     0.055 A 
HETATM   15  N3  UNL     1      32.972   6.829  47.441  1.00  0.00    -0.233 NA
HETATM   16  C12 UNL     1      31.900   6.474  48.078  1.00  0.00     0.303 C 
HETATM   17  O1  UNL     1      30.778   5.841  48.498  1.00  0.00    -0.317 OA
HETATM   18  C13 UNL     1      29.469   6.281  48.461  1.00  0.00     0.105 A 
HETATM   19  C14 UNL     1      28.676   5.163  48.536  1.00  0.00     0.040 A 
HETATM   20  C15 UNL     1      27.275   5.153  48.529  1.00  0.00     0.003 A 
HETATM   21  C16 UNL     1      26.660   6.407  48.438  1.00  0.00     0.003 A 
HETATM   22  C17 UNL     1      27.479   7.512  48.365  1.00  0.00     0.039 A 
HETATM   23  C18 UNL     1      28.849   7.490  48.373  1.00  0.00     0.102 A 
HETATM   24  O2  UNL     1      29.332   8.797  48.283  1.00  0.00    -0.346 OA
HETATM   25  C19 UNL     1      28.983   9.779  49.211  1.00  0.00     0.202 C 
HETATM   26  C20 UNL     1      29.583  11.116  48.937  1.00  0.00     0.196 C 
HETATM   27  O3  UNL     1      29.283  11.740  47.772  1.00  0.00    -0.361 OA
HETATM   28  C21 UNL     1      29.681  11.061  46.640  1.00  0.00     0.437 C 
HETATM   29  N4  UNL     1      29.366  11.844  45.442  1.00  0.00     0.109 N 
HETATM   30  C22 UNL     1      29.736  11.146  44.258  1.00  0.00     0.299 C 
HETATM   31  C23 UNL     1      34.320   9.653  42.998  1.00  0.00     0.055 C 
HETATM   32  H20 UNL     1      28.348  12.035  45.447  1.00  0.00     0.319 HD
ENDROOT
TORSDOF 0
ENDMDL
MODEL 8
REMARK VINA RESULT:      -7.9      4.312      6.209
REMARK  0 active torsions:
REMARK  status: ('A' for Active; 'I' for Inactive)
ROOT
HETATM    1  C1  UNL     1      27.231   4.708  48.997  1.00  0.00    -0.001 C 
HETATM    2  C2  UNL     1      26.389   3.948  49.688  1.00  0.00    -0.024 C 
HETATM    3  C3  UNL     1      24.969   4.091  50.183  1.00  0.00     0.013 C 
HETATM    4  C4  UNL     1      24.532   5.511  50.201  1.00  0.00     0.013 C 
HETATM    5  C5  UNL     1      23.939   6.046  48.943  1.00  0.00     0.041 C 
HETATM    6  C6  UNL     1      23.156   5.056  48.198  1.00  0.00    -0.028 A 
HETATM    7  C7  UNL     1      23.194   3.707  48.496  1.00  0.00    -0.007 A 
HETATM    8  S1  UNL     1      22.013   3.024  47.342  1.00  0.00    -0.073 SA
HETATM    9  C8  UNL     1      21.569   4.549  46.564  1.00  0.00     0.114 A 
HETATM   10  N1  UNL     1      20.733   4.885  45.575  1.00  0.00    -0.234 NA
HETATM   11  C9  UNL     1      20.597   6.160  45.162  1.00  0.00     0.236 A 
HETATM   12  N2  UNL     1      21.359   7.063  45.811  1.00  0.00    -0.222 NA
HETATM   13  C10 UNL     1      22.212   6.737  46.820  1.00  0.00     0.162 A 
HETATM   14  C11 UNL     1      22.319   5.426  47.213  1.00  0.00     0.055 A 
HETATM   15  N3  UNL     1      22.901   7.910  47.245  1.00  0.00    -0.233 NA
HETATM   16  C12 UNL     1      23.462   8.771  46.454  1.00  0.00     0.303 C 
HETATM   17  O1  UNL     1      23.923   9.448  45.374  1.00  0.00    -0.317 OA
HETATM   18  C13 UNL     1      25.229   9.646  44.970  1.00  0.00     0.105 A 
HETATM   19  C14 UNL     1      25.183   9.951  43.632  1.00  0.00     0.040 A 
HETATM   20  C15 UNL     1      26.291  10.226  42.819  1.00  0.00     0.003 A 
HETATM   21  C16 UNL     1      27.537  10.180  43.455  1.00  0.00     0.003 A 
HETATM   22  C17 UNL     1      27.554   9.873  44.797  1.00  0.00     0.039 A 
HETATM   23  C18 UNL     1      26.452   9.607  45.567  1.00  0.00     0.102 A 
HETATM   24  O2  UNL     1      26.857   9.339  46.876  1.00  0.00    -0.346 OA
HETATM   25  C19 UNL     1      27.603  10.253  47.620  1.00  0.00     0.202 C 
HETATM   26  C20 UNL     1      27.958   9.780  48.989  1.00  0.00     0.196 C 
HETATM   27  O3  UNL     1      28.712   8.661  49.118  1.00  0.00    -0.361 OA
HETATM   28  C21 UNL     1      28.132   7.518  48.609  1.00  0.00     0.437 C 
HETATM   29  N4  UNL     1      28.997   6.361  48.851  1.00  0.00     0.109 N 
HETATM   30  C22 UNL     1      28.436   5.173  48.303  1.00  0.00     0.299 C 
HETATM   31  C23 UNL     1      24.064   3.115  49.523  1.00  0.00     0.055 C 
HETATM   32  H20 UNL     1      29.919   6.557  48.422  1.00  0.00     0.319 HD
ENDROOT
TORSDOF 0
ENDMDL
MODEL 9
REMARK VINA RESULT:      -7.9      2.528      5.844
REMARK  0 active torsions:
REMARK  status: ('A' for Active; 'I' for Inactive)
ROOT
HETATM    1  C1  UNL     1      18.778   2.423  51.630  1.00  0.00    -0.001 C 
HETATM    2  C2  UNL     1      19.372   1.241  51.740  1.00  0.00    -0.024 C 
HETATM    3  C3  UNL     1      20.434   0.493  50.969  1.00  0.00     0.013 C 
HETATM    4  C4  UNL     1      20.613   1.047  49.601  1.00  0.00     0.013 C 
HETATM    5  C5  UNL     1      21.578   2.174  49.456  1.00  0.00     0.041 C 
HETATM    6  C6  UNL     1      22.731   2.077  50.356  1.00  0.00    -0.028 A 
HETATM    7  C7  UNL     1      22.773   1.183  51.410  1.00  0.00    -0.007 A 
HETATM    8  S1  UNL     1      24.404   1.459  52.084  1.00  0.00    -0.073 SA
HETATM    9  C8  UNL     1      24.897   2.716  50.943  1.00  0.00     0.114 A 
HETATM   10  N1  UNL     1      26.001   3.454  50.784  1.00  0.00    -0.234 NA
HETATM   11  C9  UNL     1      26.105   4.379  49.810  1.00  0.00     0.236 A 
HETATM   12  N2  UNL     1      25.023   4.506  49.015  1.00  0.00    -0.222 NA
HETATM   13  C10 UNL     1      23.893   3.762  49.162  1.00  0.00     0.162 A 
HETATM   14  C11 UNL     1      23.829   2.828  50.167  1.00  0.00     0.055 A 
HETATM   15  N3  UNL     1      22.928   4.183  48.203  1.00  0.00    -0.233 NA
HETATM   16  C12 UNL     1      22.615   5.417  47.956  1.00  0.00     0.303 C 
HETATM   17  O1  UNL     1      22.534   6.770  47.952  1.00  0.00    -0.317 OA
HETATM   18  C13 UNL     1      21.489   7.577  48.358  1.00  0.00     0.105 A 
HETATM   19  C14 UNL     1      22.025   8.814  48.616  1.00  0.00     0.040 A 
HETATM   20  C15 UNL     1      21.312   9.938  49.056  1.00  0.00     0.003 A 
HETATM   21  C16 UNL     1      19.936   9.751  49.236  1.00  0.00     0.003 A 
HETATM   22  C17 UNL     1      19.425   8.500  48.969  1.00  0.00     0.039 A 
HETATM   23  C18 UNL     1      20.149   7.419  48.540  1.00  0.00     0.102 A 
HETATM   24  O2  UNL     1      19.295   6.327  48.377  1.00  0.00    -0.346 OA
HETATM   25  C19 UNL     1      18.187   6.376  47.530  1.00  0.00     0.202 C 
HETATM   26  C20 UNL     1      17.384   5.120  47.502  1.00  0.00     0.196 C 
HETATM   27  O3  UNL     1      16.814   4.684  48.652  1.00  0.00    -0.361 OA
HETATM   28  C21 UNL     1      17.710   4.377  49.654  1.00  0.00     0.437 C 
HETATM   29  N4  UNL     1      16.999   3.861  50.827  1.00  0.00     0.109 N 
HETATM   30  C22 UNL     1      17.901   3.570  51.889  1.00  0.00     0.299 C 
HETATM   31  C23 UNL     1      21.659   0.299  51.784  1.00  0.00     0.055 C 
HETATM   32  H20 UNL     1      16.311   4.577  51.122  1.00  0.00     0.319 HD
ENDROOT
TORSDOF 0
ENDMDL
