MODEL 1
REMARK VINA RESULT:      -8.9      0.000      0.000
REMARK  4 active torsions:
REMARK  status: ('A' for Active; 'I' for Inactive)
REMARK    1  A    between atoms: C1_2  and  O1_5 
REMARK    2  A    between atoms: O1_5  and  C2_6 
REMARK    3  A    between atoms: C7_14  and  N3_15 
REMARK    4  A    between atoms: N3_15  and  C8_16 
ROOT
HETATM    1  C2  UNL     1      27.848  -0.228  53.766  1.00  0.00     0.091 C 
HETATM    2  C3  UNL     1      27.269   0.706  54.484  1.00  0.00     0.035 C 
HETATM    3  C4  UNL     1      26.163   0.243  55.096  1.00  0.00     0.159 C 
HETATM    4  O2  UNL     1      25.422  -0.450  54.105  1.00  0.00    -0.301 OA
HETATM    5  C5  UNL     1      24.090  -0.194  53.841  1.00  0.00     0.201 A 
HETATM    6  N1  UNL     1      23.312  -1.017  54.561  1.00  0.00    -0.215 NA
HETATM    7  C6  UNL     1      21.978  -1.034  54.544  1.00  0.00     0.238 A 
HETATM    8  N2  UNL     1      21.328  -0.150  53.734  1.00  0.00    -0.222 NA
HETATM    9  C7  UNL     1      22.110   0.692  52.999  1.00  0.00     0.160 A 
HETATM   10  C14 UNL     1      23.493   0.719  53.006  1.00  0.00     0.129 A 
HETATM   11  N4  UNL     1      24.105   1.675  52.155  1.00  0.00    -0.380 N 
HETATM   12  C15 UNL     1      25.498   2.014  52.298  1.00  0.00     0.147 C 
HETATM   13  C16 UNL     1      26.314   0.838  51.934  1.00  0.00    -0.005 C 
HETATM   14  C17 UNL     1      27.173   0.043  52.518  1.00  0.00     0.035 C 
HETATM   15  H8  UNL     1      23.543   2.129  51.425  1.00  0.00     0.160 HD
ENDROOT
BRANCH   9  16
HETATM   16  N3  UNL     1      21.297   1.548  52.211  1.00  0.00    -0.338 N 
HETATM   17  H3  UNL     1      20.538   1.803  52.879  1.00  0.00     0.167 HD
BRANCH  16  18
HETATM   18  C8  UNL     1      21.326   2.042  50.879  1.00  0.00     0.051 A 
HETATM   19  C9  UNL     1      21.280   0.915  50.047  1.00  0.00     0.031 A 
HETATM   20  C10 UNL     1      21.284   1.091  48.659  1.00  0.00     0.002 A 
HETATM   21  C11 UNL     1      21.336   2.342  48.092  1.00  0.00     0.002 A 
HETATM   22  C12 UNL     1      21.381   3.454  48.939  1.00  0.00     0.021 A 
HETATM   23  C13 UNL     1      21.375   3.283  50.300  1.00  0.00     0.037 A 
HETATM   24 BR1  UNL     1      21.428   4.685  51.585  1.00  0.00    -0.049 Br
ENDBRANCH  16  18
ENDBRANCH   9  16
BRANCH   1  25
HETATM   25  O1  UNL     1      28.771  -1.054  54.327  1.00  0.00    -0.254 OA
BRANCH  25  26
HETATM   26  C1  UNL     1      29.865  -1.605  53.615  1.00  0.00     0.530 C 
HETATM   27  F1  UNL     1      29.335  -2.680  52.927  1.00  0.00    -0.144 F 
HETATM   28  F2  UNL     1      30.377  -0.670  52.741  1.00  0.00    -0.144 F 
HETATM   29  F3  UNL     1      30.875  -1.976  54.464  1.00  0.00    -0.144 F 
ENDBRANCH  25  26
ENDBRANCH   1  25
TORSDOF 4
ENDMDL
MODEL 2
REMARK VINA RESULT:      -8.8      1.579      1.872
REMARK  4 active torsions:
REMARK  status: ('A' for Active; 'I' for Inactive)
REMARK    1  A    between atoms: C1_2  and  O1_5 
REMARK    2  A    between atoms: O1_5  and  C2_6 
REMARK    3  A    between atoms: C7_14  and  N3_15 
REMARK    4  A    between atoms: N3_15  and  C8_16 
ROOT
HETATM    1  C2  UNL     1      27.626  -0.278  53.791  1.00  0.00     0.091 C 
HETATM    2  C3  UNL     1      27.043   0.599  54.573  1.00  0.00     0.035 C 
HETATM    3  C4  UNL     1      26.017   0.052  55.251  1.00  0.00     0.159 C 
HETATM    4  O2  UNL     1      25.250  -0.665  54.297  1.00  0.00    -0.301 OA
HETATM    5  C5  UNL     1      23.888  -0.490  54.137  1.00  0.00     0.201 A 
HETATM    6  N1  UNL     1      23.219  -1.378  54.889  1.00  0.00    -0.215 NA
HETATM    7  C6  UNL     1      21.891  -1.482  54.967  1.00  0.00     0.238 A 
HETATM    8  N2  UNL     1      21.129  -0.623  54.230  1.00  0.00    -0.222 NA
HETATM    9  C7  UNL     1      21.800   0.283  53.463  1.00  0.00     0.160 A 
HETATM   10  C14 UNL     1      23.175   0.400  53.372  1.00  0.00     0.129 A 
HETATM   11  N4  UNL     1      23.661   1.412  52.504  1.00  0.00    -0.380 N 
HETATM   12  C15 UNL     1      25.037   1.838  52.556  1.00  0.00     0.147 C 
HETATM   13  C16 UNL     1      25.897   0.726  52.103  1.00  0.00    -0.005 C 
HETATM   14  C17 UNL     1      26.845  -0.025  52.603  1.00  0.00     0.035 C 
HETATM   15  H8  UNL     1      23.020   1.844  51.830  1.00  0.00     0.160 HD
ENDROOT
BRANCH   9  16
HETATM   16  N3  UNL     1      20.878   1.102  52.759  1.00  0.00    -0.338 N 
HETATM   17  H3  UNL     1      21.063   2.042  53.172  1.00  0.00     0.167 HD
BRANCH  16  18
HETATM   18  C8  UNL     1      19.899   0.902  51.749  1.00  0.00     0.051 A 
HETATM   19  C9  UNL     1      18.923   0.071  52.316  1.00  0.00     0.031 A 
HETATM   20  C10 UNL     1      17.811  -0.296  51.550  1.00  0.00     0.002 A 
HETATM   21  C11 UNL     1      17.655   0.137  50.254  1.00  0.00     0.002 A 
HETATM   22  C12 UNL     1      18.640   0.964  49.707  1.00  0.00     0.021 A 
HETATM   23  C13 UNL     1      19.730   1.326  50.458  1.00  0.00     0.037 A 
HETATM   24 BR1  UNL     1      21.150   2.445  49.866  1.00  0.00    -0.049 Br
ENDBRANCH  16  18
ENDBRANCH   9  16
BRANCH   1  25
HETATM   25  O1  UNL     1      28.637  -1.055  54.262  1.00  0.00    -0.254 OA
BRANCH  25  26
HETATM   26  C1  UNL     1      29.806  -1.356  53.518  1.00  0.00     0.530 C 
HETATM   27  F1  UNL     1      29.420  -2.349  52.638  1.00  0.00    -0.144 F 
HETATM   28  F2  UNL     1      30.231  -0.236  52.835  1.00  0.00    -0.144 F 
HETATM   29  F3  UNL     1      30.829  -1.754  54.339  1.00  0.00    -0.144 F 
ENDBRANCH  25  26
ENDBRANCH   1  25
TORSDOF 4
ENDMDL
MODEL 3
REMARK VINA RESULT:      -8.4      2.020      3.136
REMARK  4 active torsions:
REMARK  status: ('A' for Active; 'I' for Inactive)
REMARK    1  A    between atoms: C1_2  and  O1_5 
REMARK    2  A    between atoms: O1_5  and  C2_6 
REMARK    3  A    between atoms: C7_14  and  N3_15 
REMARK    4  A    between atoms: N3_15  and  C8_16 
ROOT
HETATM    1  C2  UNL     1      27.158  -0.615  53.488  1.00  0.00     0.091 C 
HETATM    2  C3  UNL     1      26.530  -0.840  52.359  1.00  0.00     0.035 C 
HETATM    3  C4  UNL     1      26.328   0.299  51.671  1.00  0.00     0.159 C 
HETATM    4  O2  UNL     1      25.802   1.234  52.599  1.00  0.00    -0.301 OA
HETATM    5  C5  UNL     1      24.635   1.941  52.381  1.00  0.00     0.201 A 
HETATM    6  N1  UNL     1      24.915   3.126  51.813  1.00  0.00    -0.215 NA
HETATM    7  C6  UNL     1      24.017   4.051  51.470  1.00  0.00     0.238 A 
HETATM    8  N2  UNL     1      22.698   3.794  51.704  1.00  0.00    -0.222 NA
HETATM    9  C7  UNL     1      22.404   2.594  52.280  1.00  0.00     0.160 A 
HETATM   10  C14 UNL     1      23.324   1.626  52.642  1.00  0.00     0.129 A 
HETATM   11  N4  UNL     1      22.796   0.450  53.235  1.00  0.00    -0.380 N 
HETATM   12  C15 UNL     1      23.598  -0.740  53.369  1.00  0.00     0.147 C 
HETATM   13  C16 UNL     1      24.686  -0.475  54.333  1.00  0.00    -0.005 C 
HETATM   14  C17 UNL     1      25.994  -0.443  54.325  1.00  0.00     0.035 C 
HETATM   15  H8  UNL     1      21.827   0.452  53.575  1.00  0.00     0.160 HD
ENDROOT
BRANCH   9  16
HETATM   16  N3  UNL     1      21.001   2.471  52.461  1.00  0.00    -0.338 N 
HETATM   17  H3  UNL     1      20.876   2.821  53.436  1.00  0.00     0.167 HD
BRANCH  16  18
HETATM   18  C8  UNL     1      19.905   2.023  51.675  1.00  0.00     0.051 A 
HETATM   19  C9  UNL     1      19.707   0.678  52.018  1.00  0.00     0.031 A 
HETATM   20  C10 UNL     1      18.674  -0.038  51.404  1.00  0.00     0.002 A 
HETATM   21  C11 UNL     1      17.851   0.546  50.470  1.00  0.00     0.002 A 
HETATM   22  C12 UNL     1      18.065   1.888  50.141  1.00  0.00     0.021 A 
HETATM   23  C13 UNL     1      19.076   2.591  50.744  1.00  0.00     0.037 A 
HETATM   24 BR1  UNL     1      19.496   4.417  50.413  1.00  0.00    -0.049 Br
ENDBRANCH  16  18
ENDBRANCH   9  16
BRANCH   1  25
HETATM   25  O1  UNL     1      28.517  -0.606  53.530  1.00  0.00    -0.254 OA
BRANCH  25  26
HETATM   26  C1  UNL     1      29.283   0.527  53.903  1.00  0.00     0.530 C 
HETATM   27  F1  UNL     1      30.594   0.164  53.658  1.00  0.00    -0.144 F 
HETATM   28  F2  UNL     1      28.924   1.612  53.132  1.00  0.00    -0.144 F 
HETATM   29  F3  UNL     1      29.070   0.861  55.215  1.00  0.00    -0.144 F 
ENDBRANCH  25  26
ENDBRANCH   1  25
TORSDOF 4
ENDMDL
MODEL 4
REMARK VINA RESULT:      -8.2      2.785      4.267
REMARK  4 active torsions:
REMARK  status: ('A' for Active; 'I' for Inactive)
REMARK    1  A    between atoms: C1_2  and  O1_5 
REMARK    2  A    between atoms: O1_5  and  C2_6 
REMARK    3  A    between atoms: C7_14  and  N3_15 
REMARK    4  A    between atoms: N3_15  and  C8_16 
ROOT
HETATM    1  C2  UNL     1      26.687  -0.239  53.623  1.00  0.00     0.091 C 
HETATM    2  C3  UNL     1      26.269  -0.638  52.445  1.00  0.00     0.035 C 
HETATM    3  C4  UNL     1      26.758   0.137  51.459  1.00  0.00     0.159 C 
HETATM    4  O2  UNL     1      26.546   1.478  51.869  1.00  0.00    -0.301 OA
HETATM    5  C5  UNL     1      25.907   2.416  51.079  1.00  0.00     0.201 A 
HETATM    6  N1  UNL     1      26.809   3.102  50.359  1.00  0.00    -0.215 NA
HETATM    7  C6  UNL     1      26.529   4.080  49.495  1.00  0.00     0.238 A 
HETATM    8  N2  UNL     1      25.223   4.429  49.312  1.00  0.00    -0.222 NA
HETATM    9  C7  UNL     1      24.299   3.738  50.040  1.00  0.00     0.160 A 
HETATM   10  C14 UNL     1      24.576   2.724  50.939  1.00  0.00     0.129 A 
HETATM   11  N4  UNL     1      23.458   2.145  51.593  1.00  0.00    -0.380 N 
HETATM   12  C15 UNL     1      23.577   0.896  52.303  1.00  0.00     0.147 C 
HETATM   13  C16 UNL     1      24.443   1.099  53.482  1.00  0.00    -0.005 C 
HETATM   14  C17 UNL     1      25.590   0.651  53.924  1.00  0.00     0.035 C 
HETATM   15  H8  UNL     1      22.553   2.627  51.560  1.00  0.00     0.160 HD
ENDROOT
BRANCH   9  16
HETATM   16  N3  UNL     1      22.993   4.211  49.744  1.00  0.00    -0.338 N 
HETATM   17  H3  UNL     1      22.447   3.324  49.696  1.00  0.00     0.167 HD
BRANCH  16  18
HETATM   18  C8  UNL     1      22.391   5.479  49.531  1.00  0.00     0.051 A 
HETATM   19  C9  UNL     1      22.280   6.073  50.796  1.00  0.00     0.031 A 
HETATM   20  C10 UNL     1      21.724   7.352  50.904  1.00  0.00     0.002 A 
HETATM   21  C11 UNL     1      21.281   8.040  49.799  1.00  0.00     0.002 A 
HETATM   22  C12 UNL     1      21.400   7.431  48.546  1.00  0.00     0.021 A 
HETATM   23  C13 UNL     1      21.947   6.177  48.439  1.00  0.00     0.037 A 
HETATM   24 BR1  UNL     1      22.183   5.215  46.814  1.00  0.00    -0.049 Br
ENDBRANCH  16  18
ENDBRANCH   9  16
BRANCH   1  25
HETATM   25  O1  UNL     1      27.857  -0.707  54.134  1.00  0.00    -0.254 OA
BRANCH  25  26
HETATM   26  C1  UNL     1      29.025   0.085  54.270  1.00  0.00     0.530 C 
HETATM   27  F1  UNL     1      30.070  -0.819  54.250  1.00  0.00    -0.144 F 
HETATM   28  F2  UNL     1      29.122   0.967  53.215  1.00  0.00    -0.144 F 
HETATM   29  F3  UNL     1      28.995   0.821  55.426  1.00  0.00    -0.144 F 
ENDBRANCH  25  26
ENDBRANCH   1  25
TORSDOF 4
ENDMDL
MODEL 5
REMARK VINA RESULT:      -8.2      2.079      3.635
REMARK  4 active torsions:
REMARK  status: ('A' for Active; 'I' for Inactive)
REMARK    1  A    between atoms: C1_2  and  O1_5 
REMARK    2  A    between atoms: O1_5  and  C2_6 
REMARK    3  A    between atoms: C7_14  and  N3_15 
REMARK    4  A    between atoms: N3_15  and  C8_16 
ROOT
HETATM    1  C2  UNL     1      26.771  -0.372  53.597  1.00  0.00     0.091 C 
HETATM    2  C3  UNL     1      26.284  -0.723  52.431  1.00  0.00     0.035 C 
HETATM    3  C4  UNL     1      26.758   0.059  51.443  1.00  0.00     0.159 C 
HETATM    4  O2  UNL     1      26.619   1.396  51.895  1.00  0.00    -0.301 OA
HETATM    5  C5  UNL     1      25.983   2.380  51.161  1.00  0.00     0.201 A 
HETATM    6  N1  UNL     1      26.877   3.049  50.417  1.00  0.00    -0.215 NA
HETATM    7  C6  UNL     1      26.597   4.060  49.592  1.00  0.00     0.238 A 
HETATM    8  N2  UNL     1      25.299   4.465  49.480  1.00  0.00    -0.222 NA
HETATM    9  C7  UNL     1      24.383   3.791  50.232  1.00  0.00     0.160 A 
HETATM   10  C14 UNL     1      24.660   2.743  51.092  1.00  0.00     0.129 A 
HETATM   11  N4  UNL     1      23.551   2.191  51.783  1.00  0.00    -0.380 N 
HETATM   12  C15 UNL     1      23.652   0.920  52.455  1.00  0.00     0.147 C 
HETATM   13  C16 UNL     1      24.579   1.057  53.597  1.00  0.00    -0.005 C 
HETATM   14  C17 UNL     1      25.727   0.551  53.973  1.00  0.00     0.035 C 
HETATM   15  H8  UNL     1      22.665   2.709  51.805  1.00  0.00     0.160 HD
ENDROOT
BRANCH   9  16
HETATM   16  N3  UNL     1      23.085   4.323  50.011  1.00  0.00    -0.338 N 
HETATM   17  H3  UNL     1      23.121   5.214  50.551  1.00  0.00     0.167 HD
BRANCH  16  18
HETATM   18  C8  UNL     1      21.925   3.919  49.298  1.00  0.00     0.051 A 
HETATM   19  C9  UNL     1      22.321   3.775  47.961  1.00  0.00     0.031 A 
HETATM   20  C10 UNL     1      21.380   3.370  47.010  1.00  0.00     0.002 A 
HETATM   21  C11 UNL     1      20.074   3.112  47.354  1.00  0.00     0.002 A 
HETATM   22  C12 UNL     1      19.698   3.262  48.692  1.00  0.00     0.021 A 
HETATM   23  C13 UNL     1      20.620   3.657  49.626  1.00  0.00     0.037 A 
HETATM   24 BR1  UNL     1      20.273   3.902  51.481  1.00  0.00    -0.049 Br
ENDBRANCH  16  18
ENDBRANCH   9  16
BRANCH   1  25
HETATM   25  O1  UNL     1      27.944  -0.899  54.040  1.00  0.00    -0.254 OA
BRANCH  25  26
HETATM   26  C1  UNL     1      29.120  -0.135  54.242  1.00  0.00     0.530 C 
HETATM   27  F1  UNL     1      28.917   0.515  55.445  1.00  0.00    -0.144 F 
HETATM   28  F2  UNL     1      30.217  -0.968  54.316  1.00  0.00    -0.144 F 
HETATM   29  F3  UNL     1      29.331   0.738  53.207  1.00  0.00    -0.144 F 
ENDBRANCH  25  26
ENDBRANCH   1  25
TORSDOF 4
ENDMDL
MODEL 6
REMARK VINA RESULT:      -7.6      2.853      4.251
REMARK  4 active torsions:
REMARK  status: ('A' for Active; 'I' for Inactive)
REMARK    1  A    between atoms: C1_2  and  O1_5 
REMARK    2  A    between atoms: O1_5  and  C2_6 
REMARK    3  A    between atoms: C7_14  and  N3_15 
REMARK    4  A    between atoms: N3_15  and  C8_16 
ROOT
HETATM    1  C2  UNL     1      26.903   2.021  53.353  1.00  0.00     0.091 C 
HETATM    2  C3  UNL     1      26.820   1.324  52.245  1.00  0.00     0.035 C 
HETATM    3  C4  UNL     1      26.704   2.122  51.167  1.00  0.00     0.159 C 
HETATM    4  O2  UNL     1      25.699   3.071  51.484  1.00  0.00    -0.301 OA
HETATM    5  C5  UNL     1      24.605   3.312  50.673  1.00  0.00     0.201 A 
HETATM    6  N1  UNL     1      24.869   4.328  49.836  1.00  0.00    -0.215 NA
HETATM    7  C6  UNL     1      24.029   4.815  48.921  1.00  0.00     0.238 A 
HETATM    8  N2  UNL     1      22.793   4.250  48.808  1.00  0.00    -0.222 NA
HETATM    9  C7  UNL     1      22.516   3.217  49.655  1.00  0.00     0.160 A 
HETATM   10  C14 UNL     1      23.376   2.703  50.608  1.00  0.00     0.129 A 
HETATM   11  N4  UNL     1      22.877   1.628  51.388  1.00  0.00    -0.380 N 
HETATM   12  C15 UNL     1      23.760   0.813  52.183  1.00  0.00     0.147 C 
HETATM   13  C16 UNL     1      24.316   1.639  53.275  1.00  0.00    -0.005 C 
HETATM   14  C17 UNL     1      25.493   2.057  53.664  1.00  0.00     0.035 C 
HETATM   15  H8  UNL     1      21.869   1.432  51.384  1.00  0.00     0.160 HD
ENDROOT
BRANCH   9  16
HETATM   16  N3  UNL     1      21.201   2.735  49.421  1.00  0.00    -0.338 N 
HETATM   17  H3  UNL     1      21.382   1.768  49.076  1.00  0.00     0.167 HD
BRANCH  16  18
HETATM   18  C8  UNL     1      19.885   3.255  49.550  1.00  0.00     0.051 A 
HETATM   19  C9  UNL     1      19.602   3.256  50.923  1.00  0.00     0.031 A 
HETATM   20  C10 UNL     1      18.362   3.731  51.364  1.00  0.00     0.002 A 
HETATM   21  C11 UNL     1      17.413   4.193  50.482  1.00  0.00     0.002 A 
HETATM   22  C12 UNL     1      17.715   4.183  49.117  1.00  0.00     0.021 A 
HETATM   23  C13 UNL     1      18.930   3.720  48.684  1.00  0.00     0.037 A 
HETATM   24 BR1  UNL     1      19.496   3.644  46.868  1.00  0.00    -0.049 Br
ENDBRANCH  16  18
ENDBRANCH   9  16
BRANCH   1  25
HETATM   25  O1  UNL     1      28.111   2.446  53.810  1.00  0.00    -0.254 OA
BRANCH  25  26
HETATM   26  C1  UNL     1      29.111   1.574  54.311  1.00  0.00     0.530 C 
HETATM   27  F1  UNL     1      29.980   2.393  55.006  1.00  0.00    -0.144 F 
HETATM   28  F2  UNL     1      28.543   0.639  55.151  1.00  0.00    -0.144 F 
HETATM   29  F3  UNL     1      29.733   0.895  53.295  1.00  0.00    -0.144 F 
ENDBRANCH  25  26
ENDBRANCH   1  25
TORSDOF 4
ENDMDL
MODEL 7
REMARK VINA RESULT:      -7.5      4.960      7.074
REMARK  4 active torsions:
REMARK  status: ('A' for Active; 'I' for Inactive)
REMARK    1  A    between atoms: C1_2  and  O1_5 
REMARK    2  A    between atoms: O1_5  and  C2_6 
REMARK    3  A    between atoms: C7_14  and  N3_15 
REMARK    4  A    between atoms: N3_15  and  C8_16 
ROOT
HETATM    1  C2  UNL     1      20.753   1.750  52.239  1.00  0.00     0.091 C 
HETATM    2  C3  UNL     1      21.092   1.344  51.039  1.00  0.00     0.035 C 
HETATM    3  C4  UNL     1      22.384   0.967  50.991  1.00  0.00     0.159 C 
HETATM    4  O2  UNL     1      23.120   2.002  51.623  1.00  0.00    -0.301 OA
HETATM    5  C5  UNL     1      24.204   2.626  51.033  1.00  0.00     0.201 A 
HETATM    6  N1  UNL     1      25.342   2.012  51.397  1.00  0.00    -0.215 NA
HETATM    7  C6  UNL     1      26.569   2.361  51.005  1.00  0.00     0.238 A 
HETATM    8  N2  UNL     1      26.703   3.427  50.165  1.00  0.00    -0.222 NA
HETATM    9  C7  UNL     1      25.553   4.056  49.790  1.00  0.00     0.160 A 
HETATM   10  C14 UNL     1      24.276   3.707  50.188  1.00  0.00     0.129 A 
HETATM   11  N4  UNL     1      23.220   4.507  49.681  1.00  0.00    -0.380 N 
HETATM   12  C15 UNL     1      21.849   4.069  49.764  1.00  0.00     0.147 C 
HETATM   13  C16 UNL     1      21.444   4.043  51.185  1.00  0.00    -0.005 C 
HETATM   14  C17 UNL     1      21.044   3.152  52.057  1.00  0.00     0.035 C 
HETATM   15  H8  UNL     1      23.439   5.411  49.249  1.00  0.00     0.160 HD
ENDROOT
BRANCH   9  16
HETATM   16  N3  UNL     1      25.851   5.139  48.920  1.00  0.00    -0.338 N 
HETATM   17  H3  UNL     1      25.321   4.880  48.061  1.00  0.00     0.167 HD
BRANCH  16  18
HETATM   18  C8  UNL     1      26.626   6.327  48.998  1.00  0.00     0.051 A 
HETATM   19  C9  UNL     1      27.825   6.053  48.325  1.00  0.00     0.031 A 
HETATM   20  C10 UNL     1      28.797   7.054  48.227  1.00  0.00     0.002 A 
HETATM   21  C11 UNL     1      28.605   8.300  48.777  1.00  0.00     0.002 A 
HETATM   22  C12 UNL     1      27.403   8.553  49.445  1.00  0.00     0.021 A 
HETATM   23  C13 UNL     1      26.449   7.573  49.540  1.00  0.00     0.037 A 
HETATM   24 BR1  UNL     1      24.765   7.758  50.406  1.00  0.00    -0.049 Br
ENDBRANCH  16  18
ENDBRANCH   9  16
BRANCH   1  25
HETATM   25  O1  UNL     1      20.301   0.862  53.165  1.00  0.00    -0.254 OA
BRANCH  25  26
HETATM   26  C1  UNL     1      21.123   0.287  54.166  1.00  0.00     0.530 C 
HETATM   27  F1  UNL     1      21.106  -1.069  53.903  1.00  0.00    -0.144 F 
HETATM   28  F2  UNL     1      22.404   0.788  54.069  1.00  0.00    -0.144 F 
HETATM   29  F3  UNL     1      20.656   0.580  55.421  1.00  0.00    -0.144 F 
ENDBRANCH  25  26
ENDBRANCH   1  25
TORSDOF 4
ENDMDL
MODEL 8
REMARK VINA RESULT:      -7.5      3.604      5.116
REMARK  4 active torsions:
REMARK  status: ('A' for Active; 'I' for Inactive)
REMARK    1  A    between atoms: C1_2  and  O1_5 
REMARK    2  A    between atoms: O1_5  and  C2_6 
REMARK    3  A    between atoms: C7_14  and  N3_15 
REMARK    4  A    between atoms: N3_15  and  C8_16 
ROOT
HETATM    1  C2  UNL     1      26.074   0.957  53.574  1.00  0.00     0.091 C 
HETATM    2  C3  UNL     1      25.723   0.474  52.406  1.00  0.00     0.035 C 
HETATM    3  C4  UNL     1      26.447   1.019  51.410  1.00  0.00     0.159 C 
HETATM    4  O2  UNL     1      26.432   2.420  51.630  1.00  0.00    -0.301 OA
HETATM    5  C5  UNL     1      26.060   3.333  50.661  1.00  0.00     0.201 A 
HETATM    6  N1  UNL     1      27.142   3.759  49.991  1.00  0.00    -0.215 NA
HETATM    7  C6  UNL     1      27.136   4.642  48.991  1.00  0.00     0.238 A 
HETATM    8  N2  UNL     1      25.941   5.170  48.599  1.00  0.00    -0.222 NA
HETATM    9  C7  UNL     1      24.835   4.743  49.274  1.00  0.00     0.160 A 
HETATM   10  C14 UNL     1      24.827   3.830  50.313  1.00  0.00     0.129 A 
HETATM   11  N4  UNL     1      23.560   3.534  50.878  1.00  0.00    -0.380 N 
HETATM   12  C15 UNL     1      23.377   2.390  51.736  1.00  0.00     0.147 C 
HETATM   13  C16 UNL     1      24.131   2.609  52.987  1.00  0.00    -0.005 C 
HETATM   14  C17 UNL     1      25.125   2.045  53.625  1.00  0.00     0.035 C 
HETATM   15  H8  UNL     1      22.764   4.147  50.670  1.00  0.00     0.160 HD
ENDROOT
BRANCH   9  16
HETATM   16  N3  UNL     1      23.674   5.376  48.758  1.00  0.00    -0.338 N 
HETATM   17  H3  UNL     1      22.997   4.584  48.711  1.00  0.00     0.167 HD
BRANCH  16  18
HETATM   18  C8  UNL     1      23.323   6.692  48.353  1.00  0.00     0.051 A 
HETATM   19  C9  UNL     1      22.938   6.594  47.008  1.00  0.00     0.031 A 
HETATM   20  C10 UNL     1      22.524   7.746  46.331  1.00  0.00     0.002 A 
HETATM   21  C11 UNL     1      22.489   8.972  46.952  1.00  0.00     0.002 A 
HETATM   22  C12 UNL     1      22.877   9.049  48.293  1.00  0.00     0.021 A 
HETATM   23  C13 UNL     1      23.281   7.920  48.958  1.00  0.00     0.037 A 
HETATM   24 BR1  UNL     1      23.834   7.854  50.778  1.00  0.00    -0.049 Br
ENDBRANCH  16  18
ENDBRANCH   9  16
BRANCH   1  25
HETATM   25  O1  UNL     1      27.079   0.379  54.284  1.00  0.00    -0.254 OA
BRANCH  25  26
HETATM   26  C1  UNL     1      28.418   0.846  54.269  1.00  0.00     0.530 C 
HETATM   27  F1  UNL     1      29.036   0.113  53.274  1.00  0.00    -0.144 F 
HETATM   28  F2  UNL     1      28.444   2.192  53.972  1.00  0.00    -0.144 F 
HETATM   29  F3  UNL     1      29.017   0.678  55.490  1.00  0.00    -0.144 F 
ENDBRANCH  25  26
ENDBRANCH   1  25
TORSDOF 4
ENDMDL
MODEL 9
REMARK VINA RESULT:      -7.5      2.146      2.979
REMARK  4 active torsions:
REMARK  status: ('A' for Active; 'I' for Inactive)
REMARK    1  A    between atoms: C1_2  and  O1_5 
REMARK    2  A    between atoms: O1_5  and  C2_6 
REMARK    3  A    between atoms: C7_14  and  N3_15 
REMARK    4  A    between atoms: N3_15  and  C8_16 
ROOT
HETATM    1  C2  UNL     1      26.904   0.844  52.643  1.00  0.00     0.091 C 
HETATM    2  C3  UNL     1      26.157   1.653  53.355  1.00  0.00     0.035 C 
HETATM    3  C4  UNL     1      24.885   1.218  53.425  1.00  0.00     0.159 C 
HETATM    4  O2  UNL     1      24.506   0.889  52.099  1.00  0.00    -0.301 OA
HETATM    5  C5  UNL     1      23.365   1.384  51.494  1.00  0.00     0.201 A 
HETATM    6  N1  UNL     1      22.344   0.530  51.671  1.00  0.00    -0.215 NA
HETATM    7  C6  UNL     1      21.102   0.704  51.215  1.00  0.00     0.238 A 
HETATM    8  N2  UNL     1      20.823   1.836  50.508  1.00  0.00    -0.222 NA
HETATM    9  C7  UNL     1      21.854   2.710  50.323  1.00  0.00     0.160 A 
HETATM   10  C14 UNL     1      23.146   2.542  50.788  1.00  0.00     0.129 A 
HETATM   11  N4  UNL     1      24.064   3.576  50.473  1.00  0.00    -0.380 N 
HETATM   12  C15 UNL     1      25.334   3.674  51.149  1.00  0.00     0.147 C 
HETATM   13  C16 UNL     1      26.167   2.515  50.769  1.00  0.00    -0.005 C 
HETATM   14  C17 UNL     1      26.725   1.492  51.365  1.00  0.00     0.035 C 
HETATM   15  H8  UNL     1      23.818   4.262  49.751  1.00  0.00     0.160 HD
ENDROOT
BRANCH   9  16
HETATM   16  N3  UNL     1      21.413   3.833  49.574  1.00  0.00    -0.338 N 
HETATM   17  H3  UNL     1      20.706   4.255  50.213  1.00  0.00     0.167 HD
BRANCH  16  18
HETATM   18  C8  UNL     1      21.715   4.395  48.305  1.00  0.00     0.051 A 
HETATM   19  C9  UNL     1      21.446   3.392  47.363  1.00  0.00     0.031 A 
HETATM   20  C10 UNL     1      21.643   3.662  46.005  1.00  0.00     0.002 A 
HETATM   21  C11 UNL     1      22.096   4.886  45.572  1.00  0.00     0.002 A 
HETATM   22  C12 UNL     1      22.358   5.872  46.527  1.00  0.00     0.021 A 
HETATM   23  C13 UNL     1      22.165   5.610  47.859  1.00  0.00     0.037 A 
HETATM   24 BR1  UNL     1      22.469   6.840  49.278  1.00  0.00    -0.049 Br
ENDBRANCH  16  18
ENDBRANCH   9  16
BRANCH   1  25
HETATM   25  O1  UNL     1      27.528  -0.212  53.230  1.00  0.00    -0.254 OA
BRANCH  25  26
HETATM   26  C1  UNL     1      28.808  -0.129  53.834  1.00  0.00     0.530 C 
HETATM   27  F1  UNL     1      29.426   0.937  53.208  1.00  0.00    -0.144 F 
HETATM   28  F2  UNL     1      28.676   0.108  55.186  1.00  0.00    -0.144 F 
HETATM   29  F3  UNL     1      29.506  -1.299  53.683  1.00  0.00    -0.144 F 
ENDBRANCH  25  26
ENDBRANCH   1  25
TORSDOF 4
ENDMDL
